REMARK  0 active torsions:
REMARK  status: ('A' for Active; 'I' for Inactive)
REMARK       I    between atoms: C3_1  and  O3_15 
REMARK       I    between atoms: O1_3  and  C1_27 
REMARK       I    between atoms: S_6  and  O4_8 
REMARK       I    between atoms: O6_7  and  C6_23 
REMARK       I    between atoms: O4_8  and  C4_29 
REMARK       I    between atoms: O2_9  and  C2_24 
REMARK       I    between atoms: C8_10  and  C7_18 
REMARK       I    between atoms: O3_11  and  C3_20 
REMARK       I    between atoms: O3_11  and  C1_16 
REMARK       I    between atoms: C6_12  and  C5_22 
REMARK       I    between atoms: N_13  and  C2_26 
REMARK       I    between atoms: N_13  and  C7_18 
REMARK       I    between atoms: C6_23  and  C5_30 
ROOT
ATOM      1  C3  GCD d 527      36.615   7.673  31.715  0.00  0.00     0.084 C 
ATOM      2  O2  GCD d 527      35.654   5.533  31.071  0.00  0.00    -0.388 OA
ATOM      3  C6  GCD d 527      33.093   8.936  32.563  0.00  0.00     0.233 C 
ATOM      4  C4  GCD d 527      35.409   8.314  32.360  0.00  0.00    -0.034 C 
ATOM      5  O3  GCD d 527      37.518   8.699  31.288  0.00  0.00    -0.389 OA
ATOM      6  C1  GCD d 527      35.058   7.328  29.725  0.00  0.00     0.165 C 
ATOM      7  O6B GCD d 527      31.947   8.997  32.059  0.00  0.00    -0.642 OA
ATOM      8  O5  GCD d 527      33.921   7.534  30.581  0.00  0.00    -0.311 OA
ATOM      9  C5  GCD d 527      34.162   8.248  31.843  0.00  0.00     0.147 C 
ATOM     10  C2  GCD d 527      36.181   6.747  30.555  0.00  0.00     0.111 C 
ATOM     11  O6A GCD d 527      33.380   9.458  33.662  0.00  0.00    -0.642 OA
ATOM     12  H   GCD d 527      37.126   7.055  32.423  0.00  0.00     0.093 H 
ATOM     13  H   GCD d 527      36.324   5.097  31.620  0.00  0.00     0.210 HD
ATOM     14  H   GCD d 527      35.544   8.830  33.243  0.00  0.00     0.085 H 
ATOM     15  H   GCD d 527      37.074   9.273  30.644  0.00  0.00     0.210 HD
ATOM     16  H   GCD d 527      34.753   6.683  28.928  0.00  0.00     0.134 H 
ATOM     17  H   GCD d 527      37.060   6.612  29.959  0.00  0.00     0.095 H 
ATOM     18  O5  NGK d 526      34.270  10.905  26.055  0.00  0.00    -0.349 OA
ATOM     19  O1  NGK d 526      33.327   8.898  25.629  0.00  0.00    -0.369 OA
ATOM     20  O7  NGK d 526      37.871   7.546  27.182  0.00  0.00    -0.274 OA
ATOM     21  O2S NGK d 526      37.901  12.282  29.093  0.00  0.00    -0.572 OA
ATOM     22  S   NGK d 526      36.404  12.036  29.496  0.00  0.00     0.252 S 
ATOM     23  O6  NGK d 526      32.423  12.798  28.535  0.00  0.00    -0.398 OA
ATOM     24  O4  NGK d 526      35.767  11.076  28.336  0.00  0.00    -0.246 OA
ATOM     25  C8  NGK d 526      37.136   5.609  25.995  0.00  0.00    -0.003 C 
ATOM     26  O3  NGK d 526      35.551   8.572  29.177  0.00  0.00    -0.348 OA
ATOM     27  N   NGK d 526      35.739   7.518  26.417  0.00  0.00    -0.349 N 
ATOM     28  C7  NGK d 526      36.949   6.974  26.595  0.00  0.00     0.214 C 
ATOM     29  O1S NGK d 526      35.675  13.265  29.653  0.00  0.00    -0.572 OA
ATOM     30  C3  NGK d 526      34.712   9.016  28.135  0.00  0.00     0.094 C 
ATOM     31  C6  NGK d 526      33.401  12.668  27.516  0.00  0.00     0.043 C 
ATOM     32  O3S NGK d 526      36.392  11.174  30.670  0.00  0.00    -0.572 OA
ATOM     33  C2  NGK d 526      35.427   8.900  26.786  0.00  0.00     0.087 C 
ATOM     34  C1  NGK d 526      34.566   9.559  25.703  0.00  0.00     0.151 C 
ATOM     35  C4  NGK d 526      34.470  10.501  28.407  0.00  0.00     0.114 C 
ATOM     36  C5  NGK d 526      33.616  11.150  27.315  0.00  0.00     0.090 C 
ATOM     37  H   NGK d 526      32.780   9.313  24.944  0.00  0.00     0.212 HD
ATOM     38  H   NGK d 526      32.251  13.738  28.700  0.00  0.00     0.209 HD
ATOM     39  H   NGK d 526      38.130   5.266  26.192  0.00  0.00     0.040 H 
ATOM     40  H   NGK d 526      36.979   5.660  24.938  0.00  0.00     0.040 H 
ATOM     41  H   NGK d 526      36.432   4.930  26.428  0.00  0.00     0.040 H 
ATOM     42  H   NGK d 526      35.028   6.965  26.021  0.00  0.00     0.163 HD
ATOM     43  H   NGK d 526      33.812   8.438  28.099  0.00  0.00     0.091 H 
ATOM     44  H   NGK d 526      34.315  13.135  27.817  0.00  0.00     0.078 H 
ATOM     45  H   NGK d 526      33.084  13.140  26.610  0.00  0.00     0.078 H 
ATOM     46  H   NGK d 526      36.366   9.405  26.875  0.00  0.00     0.084 H 
ATOM     47  H   NGK d 526      35.106   9.512  24.780  0.00  0.00     0.132 H 
ATOM     48  H   NGK d 526      33.962  10.642  29.338  0.00  0.00     0.093 H 
ATOM     49  H   NGK d 526      32.639  10.716  27.350  0.00  0.00     0.090 H 
ENDROOT
TORSDOF 12
