MODEL 1
REMARK VINA RESULT:      -8.5      0.000      0.000
REMARK  0 active torsions:
REMARK  status: ('A' for Active; 'I' for Inactive)
REMARK       I    between atoms: C3_1  and  O3_15 
REMARK       I    between atoms: O1_3  and  C1_27 
REMARK       I    between atoms: S_6  and  O4_8 
REMARK       I    between atoms: O6_7  and  C6_23 
REMARK       I    between atoms: O4_8  and  C4_29 
REMARK       I    between atoms: O2_9  and  C2_24 
REMARK       I    between atoms: C8_10  and  C7_18 
REMARK       I    between atoms: O3_11  and  C3_20 
REMARK       I    between atoms: O3_11  and  C1_16 
REMARK       I    between atoms: C6_12  and  C5_22 
REMARK       I    between atoms: N_13  and  C2_26 
REMARK       I    between atoms: N_13  and  C7_18 
REMARK       I    between atoms: C6_23  and  C5_30 
ROOT
ATOM      1  C3  GCD d 527      34.509  13.155  31.367  0.00  0.00     0.084 C 
ATOM      2  O2  GCD d 527      34.663  15.000  29.789  0.00  0.00    -0.388 OA
ATOM      3  C6  GCD d 527      38.241  12.453  30.824  0.00  0.00     0.233 C 
ATOM      4  C4  GCD d 527      35.976  12.839  31.539  0.00  0.00    -0.034 C 
ATOM      5  O3  GCD d 527      33.738  11.996  31.704  0.00  0.00    -0.389 OA
ATOM      6  C1  GCD d 527      34.998  12.891  28.878  0.00  0.00     0.165 C 
ATOM      7  O6B GCD d 527      39.062  12.289  29.892  0.00  0.00    -0.642 OA
ATOM      8  O5  GCD d 527      36.403  13.052  29.139  0.00  0.00    -0.311 OA
ATOM      9  C5  GCD d 527      36.855  12.795  30.514  0.00  0.00     0.147 C 
ATOM     10  C2  GCD d 527      34.227  13.656  29.932  0.00  0.00     0.111 C 
ATOM     11  O6A GCD d 527      38.547  12.319  32.029  0.00  0.00    -0.642 OA
ATOM     12  H   GCD d 527      34.223  13.947  32.027  0.00  0.00     0.093 H 
ATOM     13  H   GCD d 527      34.207  15.558  30.438  0.00  0.00     0.210 HD
ATOM     14  H   GCD d 527      36.326  12.646  32.490  0.00  0.00     0.085 H 
ATOM     15  H   GCD d 527      33.982  11.264  31.117  0.00  0.00     0.210 HD
ATOM     16  H   GCD d 527      34.808  13.244  27.886  0.00  0.00     0.134 H 
ATOM     17  H   GCD d 527      33.173  13.531  29.793  0.00  0.00     0.095 H 
ATOM     18  O5  NGK d 526      34.901   8.332  26.411  0.00  0.00    -0.349 OA
ATOM     19  O1  NGK d 526      35.156  10.125  25.062  0.00  0.00    -0.369 OA
ATOM     20  O7  NGK d 526      31.492  11.667  28.077  0.00  0.00    -0.274 OA
ATOM     21  O2S NGK d 526      33.214   7.866  31.020  0.00  0.00    -0.572 OA
ATOM     22  S   NGK d 526      34.660   8.317  30.608  0.00  0.00     0.252 S 
ATOM     23  O6  NGK d 526      37.950   7.498  28.188  0.00  0.00    -0.398 OA
ATOM     24  O4  NGK d 526      34.551   8.861  29.070  0.00  0.00    -0.246 OA
ATOM     25  C8  NGK d 526      31.262  13.125  26.200  0.00  0.00    -0.003 C 
ATOM     26  O3  NGK d 526      34.585  11.510  28.986  0.00  0.00    -0.348 OA
ATOM     27  N   NGK d 526      33.063  11.553  26.448  0.00  0.00    -0.349 N 
ATOM     28  C7  NGK d 526      31.952  12.057  27.000  0.00  0.00     0.214 C 
ATOM     29  O1S NGK d 526      35.621   7.257  30.749  0.00  0.00    -0.572 OA
ATOM     30  C3  NGK d 526      34.988  10.786  27.846  0.00  0.00     0.094 C 
ATOM     31  C6  NGK d 526      36.634   7.220  27.738  0.00  0.00     0.043 C 
ATOM     32  O3S NGK d 526      34.982   9.525  31.355  0.00  0.00    -0.572 OA
ATOM     33  C2  NGK d 526      33.772  10.398  27.001  0.00  0.00     0.087 C 
ATOM     34  C1  NGK d 526      34.221   9.460  25.875  0.00  0.00     0.151 C 
ATOM     35  C4  NGK d 526      35.616   9.497  28.377  0.00  0.00     0.114 C 
ATOM     36  C5  NGK d 526      36.053   8.566  27.245  0.00  0.00     0.090 C 
ATOM     37  H   NGK d 526      35.442   9.534  24.349  0.00  0.00     0.212 HD
ATOM     38  H   NGK d 526      38.361   6.681  28.510  0.00  0.00     0.209 HD
ATOM     39  H   NGK d 526      30.392  13.458  26.725  0.00  0.00     0.040 H 
ATOM     40  H   NGK d 526      30.974  12.728  25.249  0.00  0.00     0.040 H 
ATOM     41  H   NGK d 526      31.929  13.949  26.055  0.00  0.00     0.040 H 
ATOM     42  H   NGK d 526      33.418  11.978  25.634  0.00  0.00     0.163 HD
ATOM     43  H   NGK d 526      35.655  11.367  27.243  0.00  0.00     0.091 H 
ATOM     44  H   NGK d 526      36.042   6.832  28.540  0.00  0.00     0.078 H 
ATOM     45  H   NGK d 526      36.636   6.487  26.959  0.00  0.00     0.078 H 
ATOM     46  H   NGK d 526      33.077   9.901  27.645  0.00  0.00     0.084 H 
ATOM     47  H   NGK d 526      33.350   9.161  25.329  0.00  0.00     0.132 H 
ATOM     48  H   NGK d 526      36.480   9.709  28.971  0.00  0.00     0.093 H 
ATOM     49  H   NGK d 526      36.847   9.040  26.707  0.00  0.00     0.090 H 
ENDROOT
TORSDOF 12
ENDMDL
MODEL 2
REMARK VINA RESULT:      -8.4      2.250      5.313
REMARK  0 active torsions:
REMARK  status: ('A' for Active; 'I' for Inactive)
REMARK       I    between atoms: C3_1  and  O3_15 
REMARK       I    between atoms: O1_3  and  C1_27 
REMARK       I    between atoms: S_6  and  O4_8 
REMARK       I    between atoms: O6_7  and  C6_23 
REMARK       I    between atoms: O4_8  and  C4_29 
REMARK       I    between atoms: O2_9  and  C2_24 
REMARK       I    between atoms: C8_10  and  C7_18 
REMARK       I    between atoms: O3_11  and  C3_20 
REMARK       I    between atoms: O3_11  and  C1_16 
REMARK       I    between atoms: C6_12  and  C5_22 
REMARK       I    between atoms: N_13  and  C2_26 
REMARK       I    between atoms: N_13  and  C7_18 
REMARK       I    between atoms: C6_23  and  C5_30 
ROOT
ATOM      1  C3  GCD d 527      35.756   9.817  26.272  0.00  0.00     0.084 C 
ATOM      2  O2  GCD d 527      33.732   9.077  25.142  0.00  0.00    -0.388 OA
ATOM      3  C6  GCD d 527      35.336   6.947  28.784  0.00  0.00     0.233 C 
ATOM      4  C4  GCD d 527      35.972   8.649  27.205  0.00  0.00    -0.034 C 
ATOM      5  O3  GCD d 527      36.414  10.971  26.806  0.00  0.00    -0.389 OA
ATOM      6  C1  GCD d 527      33.422   9.884  27.297  0.00  0.00     0.165 C 
ATOM      7  O6B GCD d 527      34.464   6.443  29.529  0.00  0.00    -0.642 OA
ATOM      8  O5  GCD d 527      33.596   8.540  27.777  0.00  0.00    -0.311 OA
ATOM      9  C5  GCD d 527      34.977   8.053  27.898  0.00  0.00     0.147 C 
ATOM     10  C2  GCD d 527      34.245  10.052  26.039  0.00  0.00     0.111 C 
ATOM     11  O6A GCD d 527      36.524   6.559  28.769  0.00  0.00    -0.642 OA
ATOM     12  H   GCD d 527      36.182   9.606  25.314  0.00  0.00     0.093 H 
ATOM     13  H   GCD d 527      34.216   9.123  24.303  0.00  0.00     0.210 HD
ATOM     14  H   GCD d 527      36.931   8.287  27.320  0.00  0.00     0.085 H 
ATOM     15  H   GCD d 527      36.042  11.181  27.677  0.00  0.00     0.210 HD
ATOM     16  H   GCD d 527      32.376  10.039  27.133  0.00  0.00     0.134 H 
ATOM     17  H   GCD d 527      34.170  11.054  25.670  0.00  0.00     0.095 H 
ATOM     18  O5  NGK d 526      32.291  12.423  31.674  0.00  0.00    -0.349 OA
ATOM     19  O1  NGK d 526      30.500  11.584  30.585  0.00  0.00    -0.369 OA
ATOM     20  O7  NGK d 526      33.066  13.637  26.831  0.00  0.00    -0.274 OA
ATOM     21  O2S NGK d 526      36.892  13.421  30.208  0.00  0.00    -0.572 OA
ATOM     22  S   NGK d 526      36.338  12.009  30.615  0.00  0.00     0.252 S 
ATOM     23  O6  NGK d 526      34.155   9.864  33.440  0.00  0.00    -0.398 OA
ATOM     24  O4  NGK d 526      34.713  12.088  30.452  0.00  0.00    -0.246 OA
ATOM     25  C8  NGK d 526      30.869  13.456  25.913  0.00  0.00    -0.003 C 
ATOM     26  O3  NGK d 526      33.911  10.861  28.244  0.00  0.00    -0.348 OA
ATOM     27  N   NGK d 526      31.493  12.558  28.053  0.00  0.00    -0.349 N 
ATOM     28  C7  NGK d 526      31.914  13.218  26.967  0.00  0.00     0.214 C 
ATOM     29  O1S NGK d 526      36.739  11.630  31.942  0.00  0.00    -0.572 OA
ATOM     30  C3  NGK d 526      33.001  11.010  29.310  0.00  0.00     0.094 C 
ATOM     31  C6  NGK d 526      33.829  11.213  33.146  0.00  0.00     0.043 C 
ATOM     32  O3S NGK d 526      36.720  11.062  29.576  0.00  0.00    -0.572 OA
ATOM     33  C2  NGK d 526      32.323  12.381  29.247  0.00  0.00     0.087 C 
ATOM     34  C1  NGK d 526      31.484  12.585  30.513  0.00  0.00     0.151 C 
ATOM     35  C4  NGK d 526      33.848  10.968  30.582  0.00  0.00     0.114 C 
ATOM     36  C5  NGK d 526      33.002  11.182  31.839  0.00  0.00     0.090 C 
ATOM     37  H   NGK d 526      29.967  11.711  31.385  0.00  0.00     0.212 HD
ATOM     38  H   NGK d 526      34.677   9.829  34.257  0.00  0.00     0.209 HD
ATOM     39  H   NGK d 526      31.305  13.987  25.093  0.00  0.00     0.040 H 
ATOM     40  H   NGK d 526      30.070  14.033  26.328  0.00  0.00     0.040 H 
ATOM     41  H   NGK d 526      30.490  12.517  25.569  0.00  0.00     0.040 H 
ATOM     42  H   NGK d 526      30.587  12.175  28.049  0.00  0.00     0.163 HD
ATOM     43  H   NGK d 526      32.248  10.251  29.276  0.00  0.00     0.091 H 
ATOM     44  H   NGK d 526      34.720  11.788  33.007  0.00  0.00     0.078 H 
ATOM     45  H   NGK d 526      33.278  11.663  33.944  0.00  0.00     0.078 H 
ATOM     46  H   NGK d 526      33.094  13.120  29.187  0.00  0.00     0.084 H 
ATOM     47  H   NGK d 526      31.061  13.568  30.472  0.00  0.00     0.132 H 
ATOM     48  H   NGK d 526      34.341  10.024  30.683  0.00  0.00     0.093 H 
ATOM     49  H   NGK d 526      32.337  10.350  31.942  0.00  0.00     0.090 H 
ENDROOT
TORSDOF 12
ENDMDL
MODEL 3
REMARK VINA RESULT:      -8.0      2.563      4.947
REMARK  0 active torsions:
REMARK  status: ('A' for Active; 'I' for Inactive)
REMARK       I    between atoms: C3_1  and  O3_15 
REMARK       I    between atoms: O1_3  and  C1_27 
REMARK       I    between atoms: S_6  and  O4_8 
REMARK       I    between atoms: O6_7  and  C6_23 
REMARK       I    between atoms: O4_8  and  C4_29 
REMARK       I    between atoms: O2_9  and  C2_24 
REMARK       I    between atoms: C8_10  and  C7_18 
REMARK       I    between atoms: O3_11  and  C3_20 
REMARK       I    between atoms: O3_11  and  C1_16 
REMARK       I    between atoms: C6_12  and  C5_22 
REMARK       I    between atoms: N_13  and  C2_26 
REMARK       I    between atoms: N_13  and  C7_18 
REMARK       I    between atoms: C6_23  and  C5_30 
ROOT
ATOM      1  C3  GCD d 527      36.102  10.523  27.146  0.00  0.00     0.084 C 
ATOM      2  O2  GCD d 527      34.866   9.921  25.138  0.00  0.00    -0.388 OA
ATOM      3  C6  GCD d 527      35.972   6.853  28.258  0.00  0.00     0.233 C 
ATOM      4  C4  GCD d 527      36.421   9.145  27.675  0.00  0.00    -0.034 C 
ATOM      5  O3  GCD d 527      36.146  11.461  28.226  0.00  0.00    -0.389 OA
ATOM      6  C1  GCD d 527      33.693   9.687  27.127  0.00  0.00     0.165 C 
ATOM      7  O6B GCD d 527      35.146   5.921  28.400  0.00  0.00    -0.642 OA
ATOM      8  O5  GCD d 527      34.165   8.330  27.193  0.00  0.00    -0.311 OA
ATOM      9  C5  GCD d 527      35.532   8.127  27.694  0.00  0.00     0.147 C 
ATOM     10  C2  GCD d 527      34.737  10.521  26.419  0.00  0.00     0.111 C 
ATOM     11  O6A GCD d 527      37.172   6.755  28.595  0.00  0.00    -0.642 OA
ATOM     12  H   GCD d 527      36.832  10.817  26.421  0.00  0.00     0.093 H 
ATOM     13  H   GCD d 527      35.526  10.407  24.619  0.00  0.00     0.210 HD
ATOM     14  H   GCD d 527      37.370   8.970  28.042  0.00  0.00     0.085 H 
ATOM     15  H   GCD d 527      35.491  11.213  28.897  0.00  0.00     0.210 HD
ATOM     16  H   GCD d 527      32.751   9.680  26.620  0.00  0.00     0.134 H 
ATOM     17  H   GCD d 527      34.437  11.548  26.382  0.00  0.00     0.095 H 
ATOM     18  O5  NGK d 526      30.556   9.908  31.251  0.00  0.00    -0.349 OA
ATOM     19  O1  NGK d 526      29.551   9.249  29.339  0.00  0.00    -0.369 OA
ATOM     20  O7  NGK d 526      32.239  13.140  27.751  0.00  0.00    -0.274 OA
ATOM     21  O2S NGK d 526      34.763  12.331  32.116  0.00  0.00    -0.572 OA
ATOM     22  S   NGK d 526      34.627  10.797  31.810  0.00  0.00     0.252 S 
ATOM     23  O6  NGK d 526      32.582   7.284  32.720  0.00  0.00    -0.398 OA
ATOM     24  O4  NGK d 526      33.192  10.605  31.050  0.00  0.00    -0.246 OA
ATOM     25  C8  NGK d 526      30.598  12.913  26.032  0.00  0.00    -0.003 C 
ATOM     26  O3  NGK d 526      33.527  10.263  28.443  0.00  0.00    -0.348 OA
ATOM     27  N   NGK d 526      30.842  11.359  27.848  0.00  0.00    -0.349 N 
ATOM     28  C7  NGK d 526      31.309  12.478  27.282  0.00  0.00     0.214 C 
ATOM     29  O1S NGK d 526      34.731   9.995  32.998  0.00  0.00    -0.572 OA
ATOM     30  C3  NGK d 526      32.354   9.771  29.050  0.00  0.00     0.094 C 
ATOM     31  C6  NGK d 526      31.918   8.538  32.755  0.00  0.00     0.043 C 
ATOM     32  O3S NGK d 526      35.590  10.462  30.770  0.00  0.00    -0.572 OA
ATOM     33  C2  NGK d 526      31.300  10.878  29.153  0.00  0.00     0.087 C 
ATOM     34  C1  NGK d 526      30.115  10.367  29.979  0.00  0.00     0.151 C 
ATOM     35  C4  NGK d 526      32.759   9.382  30.472  0.00  0.00     0.114 C 
ATOM     36  C5  NGK d 526      31.566   8.881  31.289  0.00  0.00     0.090 C 
ATOM     37  H   NGK d 526      28.800   8.924  29.860  0.00  0.00     0.212 HD
ATOM     38  H   NGK d 526      32.826   7.022  33.621  0.00  0.00     0.209 HD
ATOM     39  H   NGK d 526      31.045  13.811  25.660  0.00  0.00     0.040 H 
ATOM     40  H   NGK d 526      29.566  13.092  26.253  0.00  0.00     0.040 H 
ATOM     41  H   NGK d 526      30.675  12.144  25.292  0.00  0.00     0.040 H 
ATOM     42  H   NGK d 526      30.161  10.837  27.367  0.00  0.00     0.163 HD
ATOM     43  H   NGK d 526      31.946   8.958  28.486  0.00  0.00     0.091 H 
ATOM     44  H   NGK d 526      32.562   9.287  33.167  0.00  0.00     0.078 H 
ATOM     45  H   NGK d 526      31.042   8.497  33.367  0.00  0.00     0.078 H 
ATOM     46  H   NGK d 526      31.759  11.715  29.636  0.00  0.00     0.084 H 
ATOM     47  H   NGK d 526      29.415  11.171  30.081  0.00  0.00     0.132 H 
ATOM     48  H   NGK d 526      33.491   8.601  30.461  0.00  0.00     0.093 H 
ATOM     49  H   NGK d 526      31.222   7.966  30.856  0.00  0.00     0.090 H 
ENDROOT
TORSDOF 12
ENDMDL
MODEL 4
REMARK VINA RESULT:      -7.8      2.877      6.040
REMARK  0 active torsions:
REMARK  status: ('A' for Active; 'I' for Inactive)
REMARK       I    between atoms: C3_1  and  O3_15 
REMARK       I    between atoms: O1_3  and  C1_27 
REMARK       I    between atoms: S_6  and  O4_8 
REMARK       I    between atoms: O6_7  and  C6_23 
REMARK       I    between atoms: O4_8  and  C4_29 
REMARK       I    between atoms: O2_9  and  C2_24 
REMARK       I    between atoms: C8_10  and  C7_18 
REMARK       I    between atoms: O3_11  and  C3_20 
REMARK       I    between atoms: O3_11  and  C1_16 
REMARK       I    between atoms: C6_12  and  C5_22 
REMARK       I    between atoms: N_13  and  C2_26 
REMARK       I    between atoms: N_13  and  C7_18 
REMARK       I    between atoms: C6_23  and  C5_30 
ROOT
ATOM      1  C3  GCD d 527      32.741   7.990  31.935  0.00  0.00     0.084 C 
ATOM      2  O2  GCD d 527      32.111   5.909  30.844  0.00  0.00    -0.388 OA
ATOM      3  C6  GCD d 527      29.556   9.617  30.547  0.00  0.00     0.233 C 
ATOM      4  C4  GCD d 527      31.466   8.777  31.746  0.00  0.00    -0.034 C 
ATOM      5  O3  GCD d 527      33.830   8.901  32.124  0.00  0.00    -0.389 OA
ATOM      6  C1  GCD d 527      32.619   7.661  29.409  0.00  0.00     0.165 C 
ATOM      7  O6B GCD d 527      28.938   9.749  29.465  0.00  0.00    -0.642 OA
ATOM      8  O5  GCD d 527      31.227   8.023  29.431  0.00  0.00    -0.311 OA
ATOM      9  C5  GCD d 527      30.760   8.791  30.594  0.00  0.00     0.147 C 
ATOM     10  C2  GCD d 527      32.970   7.035  30.740  0.00  0.00     0.111 C 
ATOM     11  O6A GCD d 527      29.200  10.179  31.605  0.00  0.00    -0.642 OA
ATOM     12  H   GCD d 527      32.669   7.375  32.806  0.00  0.00     0.093 H 
ATOM     13  H   GCD d 527      32.279   5.450  31.681  0.00  0.00     0.210 HD
ATOM     14  H   GCD d 527      31.114   9.333  32.540  0.00  0.00     0.085 H 
ATOM     15  H   GCD d 527      33.914   9.471  31.343  0.00  0.00     0.210 HD
ATOM     16  H   GCD d 527      32.770   6.997  28.584  0.00  0.00     0.134 H 
ATOM     17  H   GCD d 527      34.010   6.784  30.776  0.00  0.00     0.095 H 
ATOM     18  O5  NGK d 526      34.530  11.055  25.986  0.00  0.00    -0.349 OA
ATOM     19  O1  NGK d 526      33.801   9.119  25.082  0.00  0.00    -0.369 OA
ATOM     20  O7  NGK d 526      36.391   7.463  29.012  0.00  0.00    -0.274 OA
ATOM     21  O2S NGK d 526      35.818  12.289  30.583  0.00  0.00    -0.572 OA
ATOM     22  S   NGK d 526      34.353  12.205  30.026  0.00  0.00     0.252 S 
ATOM     23  O6  NGK d 526      31.803  13.260  26.905  0.00  0.00    -0.398 OA
ATOM     24  O4  NGK d 526      34.415  11.235  28.711  0.00  0.00    -0.246 OA
ATOM     25  C8  NGK d 526      36.283   5.529  27.616  0.00  0.00    -0.003 C 
ATOM     26  O3  NGK d 526      33.473   8.819  29.259  0.00  0.00    -0.348 OA
ATOM     27  N   NGK d 526      35.124   7.579  27.137  0.00  0.00    -0.349 N 
ATOM     28  C7  NGK d 526      35.932   6.941  27.993  0.00  0.00     0.214 C 
ATOM     29  O1S NGK d 526      33.811  13.502  29.726  0.00  0.00    -0.572 OA
ATOM     30  C3  NGK d 526      33.458   9.270  27.923  0.00  0.00     0.094 C 
ATOM     31  C6  NGK d 526      33.171  12.978  26.658  0.00  0.00     0.043 C 
ATOM     32  O3S NGK d 526      33.560  11.424  30.966  0.00  0.00    -0.572 OA
ATOM     33  C2  NGK d 526      34.810   9.004  27.254  0.00  0.00     0.087 C 
ATOM     34  C1  NGK d 526      34.826   9.668  25.873  0.00  0.00     0.151 C 
ATOM     35  C4  NGK d 526      33.268  10.785  28.003  0.00  0.00     0.114 C 
ATOM     36  C5  NGK d 526      33.294  11.438  26.619  0.00  0.00     0.090 C 
ATOM     37  H   NGK d 526      33.809   9.537  24.207  0.00  0.00     0.212 HD
ATOM     38  H   NGK d 526      31.672  14.221  26.939  0.00  0.00     0.209 HD
ATOM     39  H   NGK d 526      36.928   5.111  28.360  0.00  0.00     0.040 H 
ATOM     40  H   NGK d 526      36.781   5.527  26.669  0.00  0.00     0.040 H 
ATOM     41  H   NGK d 526      35.389   4.945  27.549  0.00  0.00     0.040 H 
ATOM     42  H   NGK d 526      34.724   7.069  26.397  0.00  0.00     0.163 HD
ATOM     43  H   NGK d 526      32.693   8.774  27.363  0.00  0.00     0.091 H 
ATOM     44  H   NGK d 526      33.780  13.379  27.441  0.00  0.00     0.078 H 
ATOM     45  H   NGK d 526      33.499  13.419  25.740  0.00  0.00     0.078 H 
ATOM     46  H   NGK d 526      35.567   9.427  27.881  0.00  0.00     0.084 H 
ATOM     47  H   NGK d 526      35.795   9.514  25.446  0.00  0.00     0.132 H 
ATOM     48  H   NGK d 526      32.331  11.030  28.457  0.00  0.00     0.093 H 
ATOM     49  H   NGK d 526      32.441  11.097  26.071  0.00  0.00     0.090 H 
ENDROOT
TORSDOF 12
ENDMDL
MODEL 5
REMARK VINA RESULT:      -7.7      2.843      6.167
REMARK  0 active torsions:
REMARK  status: ('A' for Active; 'I' for Inactive)
REMARK       I    between atoms: C3_1  and  O3_15 
REMARK       I    between atoms: O1_3  and  C1_27 
REMARK       I    between atoms: S_6  and  O4_8 
REMARK       I    between atoms: O6_7  and  C6_23 
REMARK       I    between atoms: O4_8  and  C4_29 
REMARK       I    between atoms: O2_9  and  C2_24 
REMARK       I    between atoms: C8_10  and  C7_18 
REMARK       I    between atoms: O3_11  and  C3_20 
REMARK       I    between atoms: O3_11  and  C1_16 
REMARK       I    between atoms: C6_12  and  C5_22 
REMARK       I    between atoms: N_13  and  C2_26 
REMARK       I    between atoms: N_13  and  C7_18 
REMARK       I    between atoms: C6_23  and  C5_30 
ROOT
ATOM      1  C3  GCD d 527      34.777   6.900  31.902  0.00  0.00     0.084 C 
ATOM      2  O2  GCD d 527      35.178   4.926  30.538  0.00  0.00    -0.388 OA
ATOM      3  C6  GCD d 527      31.042   6.656  31.057  0.00  0.00     0.233 C 
ATOM      4  C4  GCD d 527      33.267   6.880  31.947  0.00  0.00    -0.034 C 
ATOM      5  O3  GCD d 527      35.235   8.233  32.151  0.00  0.00    -0.389 OA
ATOM      6  C1  GCD d 527      34.455   6.800  29.374  0.00  0.00     0.165 C 
ATOM      7  O6B GCD d 527      30.288   6.533  30.063  0.00  0.00    -0.642 OA
ATOM      8  O5  GCD d 527      33.105   6.343  29.565  0.00  0.00    -0.311 OA
ATOM      9  C5  GCD d 527      32.491   6.618  30.872  0.00  0.00     0.147 C 
ATOM     10  C2  GCD d 527      35.286   6.342  30.552  0.00  0.00     0.111 C 
ATOM     11  O6A GCD d 527      30.613   6.831  32.218  0.00  0.00    -0.642 OA
ATOM     12  H   GCD d 527      35.176   6.264  32.664  0.00  0.00     0.093 H 
ATOM     13  H   GCD d 527      35.690   4.555  31.273  0.00  0.00     0.210 HD
ATOM     14  H   GCD d 527      32.803   7.077  32.847  0.00  0.00     0.085 H 
ATOM     15  H   GCD d 527      34.883   8.828  31.470  0.00  0.00     0.210 HD
ATOM     16  H   GCD d 527      34.803   6.407  28.442  0.00  0.00     0.134 H 
ATOM     17  H   GCD d 527      36.293   6.695  30.464  0.00  0.00     0.095 H 
ATOM     18  O5  NGK d 526      33.732  10.995  26.414  0.00  0.00    -0.349 OA
ATOM     19  O1  NGK d 526      34.004   9.071  25.266  0.00  0.00    -0.369 OA
ATOM     20  O7  NGK d 526      37.650   8.724  28.653  0.00  0.00    -0.274 OA
ATOM     21  O2S NGK d 526      34.871  12.286  31.035  0.00  0.00    -0.572 OA
ATOM     22  S   NGK d 526      33.605  11.472  30.589  0.00  0.00     0.252 S 
ATOM     23  O6  NGK d 526      30.434  11.263  27.896  0.00  0.00    -0.398 OA
ATOM     24  O4  NGK d 526      33.964  10.822  29.133  0.00  0.00    -0.246 OA
ATOM     25  C8  NGK d 526      38.362   7.186  26.972  0.00  0.00    -0.003 C 
ATOM     26  O3  NGK d 526      34.535   8.244  29.349  0.00  0.00    -0.348 OA
ATOM     27  N   NGK d 526      36.239   8.311  26.929  0.00  0.00    -0.349 N 
ATOM     28  C7  NGK d 526      37.383   8.136  27.602  0.00  0.00     0.214 C 
ATOM     29  O1S NGK d 526      32.421  12.288  30.550  0.00  0.00    -0.572 OA
ATOM     30  C3  NGK d 526      34.079   8.739  28.111  0.00  0.00     0.094 C 
ATOM     31  C6  NGK d 526      31.687  11.796  27.498  0.00  0.00     0.043 C 
ATOM     32  O3S NGK d 526      33.500  10.300  31.448  0.00  0.00    -0.572 OA
ATOM     33  C2  NGK d 526      35.244   9.317  27.303  0.00  0.00     0.087 C 
ATOM     34  C1  NGK d 526      34.692  10.011  26.053  0.00  0.00     0.151 C 
ATOM     35  C4  NGK d 526      33.134   9.891  28.454  0.00  0.00     0.114 C 
ATOM     36  C5  NGK d 526      32.596  10.582  27.198  0.00  0.00     0.090 C 
ATOM     37  H   NGK d 526      33.654   9.507  24.473  0.00  0.00     0.212 HD
ATOM     38  H   NGK d 526      29.823  11.989  28.097  0.00  0.00     0.209 HD
ATOM     39  H   NGK d 526      39.237   7.117  27.584  0.00  0.00     0.040 H 
ATOM     40  H   NGK d 526      38.633   7.545  26.001  0.00  0.00     0.040 H 
ATOM     41  H   NGK d 526      37.913   6.219  26.881  0.00  0.00     0.040 H 
ATOM     42  H   NGK d 526      36.060   7.738  26.149  0.00  0.00     0.163 HD
ATOM     43  H   NGK d 526      33.613   7.963  27.539  0.00  0.00     0.091 H 
ATOM     44  H   NGK d 526      32.106  12.386  28.285  0.00  0.00     0.078 H 
ATOM     45  H   NGK d 526      31.586  12.429  26.642  0.00  0.00     0.078 H 
ATOM     46  H   NGK d 526      35.751  10.022  27.928  0.00  0.00     0.084 H 
ATOM     47  H   NGK d 526      35.517  10.450  25.530  0.00  0.00     0.132 H 
ATOM     48  H   NGK d 526      32.291   9.542  29.014  0.00  0.00     0.093 H 
ATOM     49  H   NGK d 526      31.978   9.886  26.670  0.00  0.00     0.090 H 
ENDROOT
TORSDOF 12
ENDMDL
MODEL 6
REMARK VINA RESULT:      -7.6      2.543      6.014
REMARK  0 active torsions:
REMARK  status: ('A' for Active; 'I' for Inactive)
REMARK       I    between atoms: C3_1  and  O3_15 
REMARK       I    between atoms: O1_3  and  C1_27 
REMARK       I    between atoms: S_6  and  O4_8 
REMARK       I    between atoms: O6_7  and  C6_23 
REMARK       I    between atoms: O4_8  and  C4_29 
REMARK       I    between atoms: O2_9  and  C2_24 
REMARK       I    between atoms: C8_10  and  C7_18 
REMARK       I    between atoms: O3_11  and  C3_20 
REMARK       I    between atoms: O3_11  and  C1_16 
REMARK       I    between atoms: C6_12  and  C5_22 
REMARK       I    between atoms: N_13  and  C2_26 
REMARK       I    between atoms: N_13  and  C7_18 
REMARK       I    between atoms: C6_23  and  C5_30 
ROOT
ATOM      1  C3  GCD d 527      35.344   6.756  31.634  0.00  0.00     0.084 C 
ATOM      2  O2  GCD d 527      34.912   4.753  30.324  0.00  0.00    -0.388 OA
ATOM      3  C6  GCD d 527      31.577   7.481  31.666  0.00  0.00     0.233 C 
ATOM      4  C4  GCD d 527      33.931   7.123  32.019  0.00  0.00    -0.034 C 
ATOM      5  O3  GCD d 527      36.167   7.927  31.701  0.00  0.00    -0.389 OA
ATOM      6  C1  GCD d 527      34.432   6.756  29.253  0.00  0.00     0.165 C 
ATOM      7  O6B GCD d 527      30.607   7.561  30.876  0.00  0.00    -0.642 OA
ATOM      8  O5  GCD d 527      33.093   6.658  29.768  0.00  0.00    -0.311 OA
ATOM      9  C5  GCD d 527      32.887   7.074  31.162  0.00  0.00     0.147 C 
ATOM     10  C2  GCD d 527      35.371   6.094  30.237  0.00  0.00     0.111 C 
ATOM     11  O6A GCD d 527      31.486   7.754  32.883  0.00  0.00    -0.642 OA
ATOM     12  H   GCD d 527      35.737   6.035  32.320  0.00  0.00     0.093 H 
ATOM     13  H   GCD d 527      35.471   4.259  30.944  0.00  0.00     0.210 HD
ATOM     14  H   GCD d 527      33.752   7.428  32.988  0.00  0.00     0.085 H 
ATOM     15  H   GCD d 527      35.827   8.596  31.086  0.00  0.00     0.210 HD
ATOM     16  H   GCD d 527      34.445   6.292  28.289  0.00  0.00     0.134 H 
ATOM     17  H   GCD d 527      36.385   6.178  29.905  0.00  0.00     0.095 H 
ATOM     18  O5  NGK d 526      34.117  11.012  26.309  0.00  0.00    -0.349 OA
ATOM     19  O1  NGK d 526      33.624   9.088  25.235  0.00  0.00    -0.369 OA
ATOM     20  O7  NGK d 526      37.750   7.801  27.727  0.00  0.00    -0.274 OA
ATOM     21  O2S NGK d 526      36.580  11.943  30.477  0.00  0.00    -0.572 OA
ATOM     22  S   NGK d 526      35.083  11.483  30.373  0.00  0.00     0.252 S 
ATOM     23  O6  NGK d 526      31.426  12.108  28.478  0.00  0.00    -0.398 OA
ATOM     24  O4  NGK d 526      34.921  10.771  28.910  0.00  0.00    -0.246 OA
ATOM     25  C8  NGK d 526      37.645   6.141  26.015  0.00  0.00    -0.003 C 
ATOM     26  O3  NGK d 526      34.863   8.131  29.132  0.00  0.00    -0.348 OA
ATOM     27  N   NGK d 526      35.921   7.772  26.391  0.00  0.00    -0.349 N 
ATOM     28  C7  NGK d 526      37.108   7.307  26.797  0.00  0.00     0.214 C 
ATOM     29  O1S NGK d 526      34.166  12.575  30.557  0.00  0.00    -0.572 OA
ATOM     30  C3  NGK d 526      34.271   8.733  28.004  0.00  0.00     0.094 C 
ATOM     31  C6  NGK d 526      32.645  12.304  27.780  0.00  0.00     0.043 C 
ATOM     32  O3S NGK d 526      34.890  10.372  31.295  0.00  0.00    -0.572 OA
ATOM     33  C2  NGK d 526      35.323   8.998  26.924  0.00  0.00     0.087 C 
ATOM     34  C1  NGK d 526      34.689   9.816  25.794  0.00  0.00     0.151 C 
ATOM     35  C4  NGK d 526      33.750  10.087  28.487  0.00  0.00     0.114 C 
ATOM     36  C5  NGK d 526      33.126  10.899  27.349  0.00  0.00     0.090 C 
ATOM     37  H   NGK d 526      33.221   9.604  24.519  0.00  0.00     0.212 HD
ATOM     38  H   NGK d 526      31.080  12.965  28.772  0.00  0.00     0.209 HD
ATOM     39  H   NGK d 526      38.592   5.847  26.417  0.00  0.00     0.040 H 
ATOM     40  H   NGK d 526      37.765   6.425  24.990  0.00  0.00     0.040 H 
ATOM     41  H   NGK d 526      36.960   5.322  26.081  0.00  0.00     0.040 H 
ATOM     42  H   NGK d 526      35.428   7.269  25.704  0.00  0.00     0.163 HD
ATOM     43  H   NGK d 526      33.507   8.105  27.594  0.00  0.00     0.091 H 
ATOM     44  H   NGK d 526      33.369  12.763  28.420  0.00  0.00     0.078 H 
ATOM     45  H   NGK d 526      32.511  12.946  26.936  0.00  0.00     0.078 H 
ATOM     46  H   NGK d 526      36.121   9.546  27.380  0.00  0.00     0.084 H 
ATOM     47  H   NGK d 526      35.453  10.033  25.076  0.00  0.00     0.132 H 
ATOM     48  H   NGK d 526      33.001   9.963  29.241  0.00  0.00     0.093 H 
ATOM     49  H   NGK d 526      32.249  10.387  27.013  0.00  0.00     0.090 H 
ENDROOT
TORSDOF 12
ENDMDL
MODEL 7
REMARK VINA RESULT:      -7.6      3.173      6.120
REMARK  0 active torsions:
REMARK  status: ('A' for Active; 'I' for Inactive)
REMARK       I    between atoms: C3_1  and  O3_15 
REMARK       I    between atoms: O1_3  and  C1_27 
REMARK       I    between atoms: S_6  and  O4_8 
REMARK       I    between atoms: O6_7  and  C6_23 
REMARK       I    between atoms: O4_8  and  C4_29 
REMARK       I    between atoms: O2_9  and  C2_24 
REMARK       I    between atoms: C8_10  and  C7_18 
REMARK       I    between atoms: O3_11  and  C3_20 
REMARK       I    between atoms: O3_11  and  C1_16 
REMARK       I    between atoms: C6_12  and  C5_22 
REMARK       I    between atoms: N_13  and  C2_26 
REMARK       I    between atoms: N_13  and  C7_18 
REMARK       I    between atoms: C6_23  and  C5_30 
ROOT
ATOM      1  C3  GCD d 527      33.189   7.941  27.736  0.00  0.00     0.084 C 
ATOM      2  O2  GCD d 527      33.331   6.677  29.810  0.00  0.00    -0.388 OA
ATOM      3  C6  GCD d 527      36.515   9.641  28.612  0.00  0.00     0.233 C 
ATOM      4  C4  GCD d 527      34.574   8.544  27.707  0.00  0.00    -0.034 C 
ATOM      5  O3  GCD d 527      32.311   8.747  26.943  0.00  0.00    -0.389 OA
ATOM      6  C1  GCD d 527      33.061   8.968  30.067  0.00  0.00     0.165 C 
ATOM      7  O6B GCD d 527      37.066  10.241  29.564  0.00  0.00    -0.642 OA
ATOM      8  O5  GCD d 527      34.494   9.088  30.091  0.00  0.00    -0.311 OA
ATOM      9  C5  GCD d 527      35.183   9.070  28.793  0.00  0.00     0.147 C 
ATOM     10  C2  GCD d 527      32.696   7.788  29.194  0.00  0.00     0.111 C 
ATOM     11  O6A GCD d 527      37.048   9.519  27.487  0.00  0.00    -0.642 OA
ATOM     12  H   GCD d 527      33.208   6.957  27.317  0.00  0.00     0.093 H 
ATOM     13  H   GCD d 527      33.140   5.873  29.302  0.00  0.00     0.210 HD
ATOM     14  H   GCD d 527      35.083   8.555  26.809  0.00  0.00     0.085 H 
ATOM     15  H   GCD d 527      32.280   9.646  27.306  0.00  0.00     0.210 HD
ATOM     16  H   GCD d 527      32.727   8.858  31.077  0.00  0.00     0.134 H 
ATOM     17  H   GCD d 527      31.633   7.687  29.122  0.00  0.00     0.095 H 
ATOM     18  O5  NGK d 526      31.584  13.857  30.962  0.00  0.00    -0.349 OA
ATOM     19  O1  NGK d 526      31.863  12.605  32.820  0.00  0.00    -0.369 OA
ATOM     20  O7  NGK d 526      29.301   9.478  29.896  0.00  0.00    -0.274 OA
ATOM     21  O2S NGK d 526      30.895  12.657  26.230  0.00  0.00    -0.572 OA
ATOM     22  S   NGK d 526      32.273  12.694  26.981  0.00  0.00     0.252 S 
ATOM     23  O6  NGK d 526      34.740  14.897  29.513  0.00  0.00    -0.398 OA
ATOM     24  O4  NGK d 526      31.931  12.570  28.575  0.00  0.00    -0.246 OA
ATOM     25  C8  NGK d 526      28.938   8.562  32.071  0.00  0.00    -0.003 C 
ATOM     26  O3  NGK d 526      32.434  10.129  29.476  0.00  0.00    -0.348 OA
ATOM     27  N   NGK d 526      30.426  10.397  31.634  0.00  0.00    -0.349 N 
ATOM     28  C7  NGK d 526      29.577   9.512  31.098  0.00  0.00     0.214 C 
ATOM     29  O1S NGK d 526      33.028  13.878  26.672  0.00  0.00    -0.572 OA
ATOM     30  C3  NGK d 526      32.436  11.205  30.386  0.00  0.00     0.094 C 
ATOM     31  C6  NGK d 526      33.329  14.959  29.644  0.00  0.00     0.043 C 
ATOM     32  O3S NGK d 526      32.969  11.446  26.703  0.00  0.00    -0.572 OA
ATOM     33  C2  NGK d 526      31.013  11.499  30.869  0.00  0.00     0.087 C 
ATOM     34  C1  NGK d 526      31.023  12.783  31.707  0.00  0.00     0.151 C 
ATOM     35  C4  NGK d 526      32.916  12.418  29.587  0.00  0.00     0.114 C 
ATOM     36  C5  NGK d 526      32.913  13.695  30.431  0.00  0.00     0.090 C 
ATOM     37  H   NGK d 526      31.871  13.416  33.352  0.00  0.00     0.212 HD
ATOM     38  H   NGK d 526      35.054  15.673  29.023  0.00  0.00     0.209 HD
ATOM     39  H   NGK d 526      28.281   7.901  31.544  0.00  0.00     0.040 H 
ATOM     40  H   NGK d 526      28.379   9.117  32.795  0.00  0.00     0.040 H 
ATOM     41  H   NGK d 526      29.697   7.993  32.564  0.00  0.00     0.040 H 
ATOM     42  H   NGK d 526      30.666  10.303  32.584  0.00  0.00     0.163 HD
ATOM     43  H   NGK d 526      33.050  10.985  31.234  0.00  0.00     0.091 H 
ATOM     44  H   NGK d 526      32.867  14.964  28.680  0.00  0.00     0.078 H 
ATOM     45  H   NGK d 526      33.024  15.851  30.150  0.00  0.00     0.078 H 
ATOM     46  H   NGK d 526      30.398  11.623  30.003  0.00  0.00     0.084 H 
ATOM     47  H   NGK d 526      30.013  12.997  31.991  0.00  0.00     0.132 H 
ATOM     48  H   NGK d 526      33.914  12.271  29.231  0.00  0.00     0.093 H 
ATOM     49  H   NGK d 526      33.643  13.587  31.206  0.00  0.00     0.090 H 
ENDROOT
TORSDOF 12
ENDMDL
MODEL 8
REMARK VINA RESULT:      -7.5      2.262      5.294
REMARK  0 active torsions:
REMARK  status: ('A' for Active; 'I' for Inactive)
REMARK       I    between atoms: C3_1  and  O3_15 
REMARK       I    between atoms: O1_3  and  C1_27 
REMARK       I    between atoms: S_6  and  O4_8 
REMARK       I    between atoms: O6_7  and  C6_23 
REMARK       I    between atoms: O4_8  and  C4_29 
REMARK       I    between atoms: O2_9  and  C2_24 
REMARK       I    between atoms: C8_10  and  C7_18 
REMARK       I    between atoms: O3_11  and  C3_20 
REMARK       I    between atoms: O3_11  and  C1_16 
REMARK       I    between atoms: C6_12  and  C5_22 
REMARK       I    between atoms: N_13  and  C2_26 
REMARK       I    between atoms: N_13  and  C7_18 
REMARK       I    between atoms: C6_23  and  C5_30 
ROOT
ATOM      1  C3  GCD d 527      32.458   9.360  27.052  0.00  0.00     0.084 C 
ATOM      2  O2  GCD d 527      33.831   9.759  25.085  0.00  0.00    -0.388 OA
ATOM      3  C6  GCD d 527      33.139  12.960  28.189  0.00  0.00     0.233 C 
ATOM      4  C4  GCD d 527      32.347  10.770  27.581  0.00  0.00    -0.034 C 
ATOM      5  O3  GCD d 527      32.234   8.439  28.126  0.00  0.00    -0.389 OA
ATOM      6  C1  GCD d 527      34.969   9.801  27.108  0.00  0.00     0.165 C 
ATOM      7  O6B GCD d 527      34.098  13.749  28.360  0.00  0.00    -0.642 OA
ATOM      8  O5  GCD d 527      34.718  11.216  27.168  0.00  0.00    -0.311 OA
ATOM      9  C5  GCD d 527      33.386  11.633  27.631  0.00  0.00     0.147 C 
ATOM     10  C2  GCD d 527      33.827   9.145  26.365  0.00  0.00     0.111 C 
ATOM     11  O6A GCD d 527      31.961  13.248  28.493  0.00  0.00    -0.642 OA
ATOM     12  H   GCD d 527      31.712   9.187  26.306  0.00  0.00     0.093 H 
ATOM     13  H   GCD d 527      33.118   9.386  24.544  0.00  0.00     0.210 HD
ATOM     14  H   GCD d 527      31.429  11.093  27.921  0.00  0.00     0.085 H 
ATOM     15  H   GCD d 527      32.901   8.579  28.817  0.00  0.00     0.210 HD
ATOM     16  H   GCD d 527      35.914   9.659  26.627  0.00  0.00     0.134 H 
ATOM     17  H   GCD d 527      33.960   8.083  26.330  0.00  0.00     0.095 H 
ATOM     18  O5  NGK d 526      37.910   9.078  31.316  0.00  0.00    -0.349 OA
ATOM     19  O1  NGK d 526      39.062   9.571  29.438  0.00  0.00    -0.369 OA
ATOM     20  O7  NGK d 526      35.837   6.160  27.752  0.00  0.00    -0.274 OA
ATOM     21  O2S NGK d 526      33.348   7.355  32.049  0.00  0.00    -0.572 OA
ATOM     22  S   NGK d 526      33.735   8.848  31.755  0.00  0.00     0.252 S 
ATOM     23  O6  NGK d 526      36.286  11.989  32.743  0.00  0.00    -0.398 OA
ATOM     24  O4  NGK d 526      35.204   8.810  31.037  0.00  0.00    -0.246 OA
ATOM     25  C8  NGK d 526      37.542   6.125  26.081  0.00  0.00    -0.003 C 
ATOM     26  O3  NGK d 526      35.003   9.204  28.424  0.00  0.00    -0.348 OA
ATOM     27  N   NGK d 526      37.495   7.695  27.899  0.00  0.00    -0.349 N 
ATOM     28  C7  NGK d 526      36.873   6.665  27.313  0.00  0.00     0.214 C 
ATOM     29  O1S NGK d 526      33.726   9.655  32.944  0.00  0.00    -0.572 OA
ATOM     30  C3  NGK d 526      36.222   9.502  29.067  0.00  0.00     0.094 C 
ATOM     31  C6  NGK d 526      36.741  10.646  32.790  0.00  0.00     0.043 C 
ATOM     32  O3S NGK d 526      32.868   9.334  30.690  0.00  0.00    -0.572 OA
ATOM     33  C2  NGK d 526      37.082   8.242  29.193  0.00  0.00     0.087 C 
ATOM     34  C1  NGK d 526      38.310   8.556  30.055  0.00  0.00     0.151 C 
ATOM     35  C4  NGK d 526      35.842   9.950  30.479  0.00  0.00     0.114 C 
ATOM     36  C5  NGK d 526      37.076  10.253  31.333  0.00  0.00     0.090 C 
ATOM     37  H   NGK d 526      39.840   9.772  29.982  0.00  0.00     0.212 HD
ATOM     38  H   NGK d 526      36.061  12.286  33.638  0.00  0.00     0.209 HD
ATOM     39  H   NGK d 526      36.968   5.310  25.692  0.00  0.00     0.040 H 
ATOM     40  H   NGK d 526      38.525   5.783  26.330  0.00  0.00     0.040 H 
ATOM     41  H   NGK d 526      37.609   6.897  25.344  0.00  0.00     0.040 H 
ATOM     42  H   NGK d 526      38.264   8.103  27.440  0.00  0.00     0.163 HD
ATOM     43  H   NGK d 526      36.770  10.240  28.520  0.00  0.00     0.091 H 
ATOM     44  H   NGK d 526      35.975  10.009  33.179  0.00  0.00     0.078 H 
ATOM     45  H   NGK d 526      37.594  10.546  33.427  0.00  0.00     0.078 H 
ATOM     46  H   NGK d 526      36.482   7.488  29.658  0.00  0.00     0.084 H 
ATOM     47  H   NGK d 526      38.869   7.651  30.172  0.00  0.00     0.132 H 
ATOM     48  H   NGK d 526      35.245  10.837  30.452  0.00  0.00     0.093 H 
ATOM     49  H   NGK d 526      37.574  11.102  30.915  0.00  0.00     0.090 H 
ENDROOT
TORSDOF 12
ENDMDL
MODEL 9
REMARK VINA RESULT:      -7.4      2.534      5.684
REMARK  0 active torsions:
REMARK  status: ('A' for Active; 'I' for Inactive)
REMARK       I    between atoms: C3_1  and  O3_15 
REMARK       I    between atoms: O1_3  and  C1_27 
REMARK       I    between atoms: S_6  and  O4_8 
REMARK       I    between atoms: O6_7  and  C6_23 
REMARK       I    between atoms: O4_8  and  C4_29 
REMARK       I    between atoms: O2_9  and  C2_24 
REMARK       I    between atoms: C8_10  and  C7_18 
REMARK       I    between atoms: O3_11  and  C3_20 
REMARK       I    between atoms: O3_11  and  C1_16 
REMARK       I    between atoms: C6_12  and  C5_22 
REMARK       I    between atoms: N_13  and  C2_26 
REMARK       I    between atoms: N_13  and  C7_18 
REMARK       I    between atoms: C6_23  and  C5_30 
ROOT
ATOM      1  C3  GCD d 527      37.357   7.442  31.722  0.00  0.00     0.084 C 
ATOM      2  O2  GCD d 527      36.216   5.371  31.150  0.00  0.00    -0.388 OA
ATOM      3  C6  GCD d 527      34.001   8.910  32.864  0.00  0.00     0.233 C 
ATOM      4  C4  GCD d 527      36.250   8.149  32.468  0.00  0.00    -0.034 C 
ATOM      5  O3  GCD d 527      38.283   8.415  31.227  0.00  0.00    -0.389 OA
ATOM      6  C1  GCD d 527      35.623   7.212  29.866  0.00  0.00     0.165 C 
ATOM      7  O6B GCD d 527      32.823   9.046  32.457  0.00  0.00    -0.642 OA
ATOM      8  O5  GCD d 527      34.575   7.479  30.814  0.00  0.00    -0.311 OA
ATOM      9  C5  GCD d 527      34.963   8.165  32.055  0.00  0.00     0.147 C 
ATOM     10  C2  GCD d 527      36.772   6.556  30.598  0.00  0.00     0.111 C 
ATOM     11  O6A GCD d 527      34.409   9.402  33.938  0.00  0.00    -0.642 OA
ATOM     12  H   GCD d 527      37.885   6.787  32.383  0.00  0.00     0.093 H 
ATOM     13  H   GCD d 527      36.900   4.890  31.639  0.00  0.00     0.210 HD
ATOM     14  H   GCD d 527      36.488   8.647  33.339  0.00  0.00     0.085 H 
ATOM     15  H   GCD d 527      37.824   9.021  30.624  0.00  0.00     0.210 HD
ATOM     16  H   GCD d 527      35.214   6.595  29.094  0.00  0.00     0.134 H 
ATOM     17  H   GCD d 527      37.590   6.373  29.930  0.00  0.00     0.095 H 
ATOM     18  O5  NGK d 526      34.759  10.867  26.290  0.00  0.00    -0.349 OA
ATOM     19  O1  NGK d 526      33.662   8.925  25.934  0.00  0.00    -0.369 OA
ATOM     20  O7  NGK d 526      38.226   7.283  27.100  0.00  0.00    -0.274 OA
ATOM     21  O2S NGK d 526      38.705  11.989  29.025  0.00  0.00    -0.572 OA
ATOM     22  S   NGK d 526      37.234  11.831  29.549  0.00  0.00     0.252 S 
ATOM     23  O6  NGK d 526      33.242  12.845  28.923  0.00  0.00    -0.398 OA
ATOM     24  O4  NGK d 526      36.446  10.923  28.441  0.00  0.00    -0.246 OA
ATOM     25  C8  NGK d 526      37.278   5.406  25.969  0.00  0.00    -0.003 C 
ATOM     26  O3  NGK d 526      36.145   8.429  29.285  0.00  0.00    -0.348 OA
ATOM     27  N   NGK d 526      36.041   7.393  26.514  0.00  0.00    -0.349 N 
ATOM     28  C7  NGK d 526      37.225   6.774  26.589  0.00  0.00     0.214 C 
ATOM     29  O1S NGK d 526      36.598  13.101  29.771  0.00  0.00    -0.572 OA
ATOM     30  C3  NGK d 526      35.253   8.934  28.318  0.00  0.00     0.094 C 
ATOM     31  C6  NGK d 526      34.123  12.665  27.826  0.00  0.00     0.043 C 
ATOM     32  O3S NGK d 526      37.265  10.960  30.716  0.00  0.00    -0.572 OA
ATOM     33  C2  NGK d 526      35.846   8.788  26.914  0.00  0.00     0.087 C 
ATOM     34  C1  NGK d 526      34.941   9.509  25.909  0.00  0.00     0.151 C 
ATOM     35  C4  NGK d 526      35.126  10.428  28.616  0.00  0.00     0.114 C 
ATOM     36  C5  NGK d 526      34.227  11.139  27.601  0.00  0.00     0.090 C 
ATOM     37  H   NGK d 526      33.087   9.380  25.299  0.00  0.00     0.212 HD
ATOM     38  H   NGK d 526      33.143  13.792  29.106  0.00  0.00     0.209 HD
ATOM     39  H   NGK d 526      38.261   5.001  26.082  0.00  0.00     0.040 H 
ATOM     40  H   NGK d 526      37.038   5.477  24.929  0.00  0.00     0.040 H 
ATOM     41  H   NGK d 526      36.571   4.767  26.455  0.00  0.00     0.040 H 
ATOM     42  H   NGK d 526      35.267   6.888  26.175  0.00  0.00     0.163 HD
ATOM     43  H   NGK d 526      34.319   8.412  28.354  0.00  0.00     0.091 H 
ATOM     44  H   NGK d 526      35.086  13.072  28.053  0.00  0.00     0.078 H 
ATOM     45  H   NGK d 526      33.763  13.165  26.952  0.00  0.00     0.078 H 
ATOM     46  H   NGK d 526      36.819   9.233  26.927  0.00  0.00     0.084 H 
ATOM     47  H   NGK d 526      35.400   9.438  24.944  0.00  0.00     0.132 H 
ATOM     48  H   NGK d 526      34.706  10.591  29.586  0.00  0.00     0.093 H 
ATOM     49  H   NGK d 526      33.231  10.765  27.715  0.00  0.00     0.090 H 
ENDROOT
TORSDOF 12
ENDMDL
MODEL 10
REMARK VINA RESULT:      -7.4      1.933      5.778
REMARK  0 active torsions:
REMARK  status: ('A' for Active; 'I' for Inactive)
REMARK       I    between atoms: C3_1  and  O3_15 
REMARK       I    between atoms: O1_3  and  C1_27 
REMARK       I    between atoms: S_6  and  O4_8 
REMARK       I    between atoms: O6_7  and  C6_23 
REMARK       I    between atoms: O4_8  and  C4_29 
REMARK       I    between atoms: O2_9  and  C2_24 
REMARK       I    between atoms: C8_10  and  C7_18 
REMARK       I    between atoms: O3_11  and  C3_20 
REMARK       I    between atoms: O3_11  and  C1_16 
REMARK       I    between atoms: C6_12  and  C5_22 
REMARK       I    between atoms: N_13  and  C2_26 
REMARK       I    between atoms: N_13  and  C7_18 
REMARK       I    between atoms: C6_23  and  C5_30 
ROOT
ATOM      1  C3  GCD d 527      32.743   9.024  27.409  0.00  0.00     0.084 C 
ATOM      2  O2  GCD d 527      34.070   8.972  25.371  0.00  0.00    -0.388 OA
ATOM      3  C6  GCD d 527      32.333  12.815  26.979  0.00  0.00     0.233 C 
ATOM      4  C4  GCD d 527      32.215  10.438  27.337  0.00  0.00    -0.034 C 
ATOM      5  O3  GCD d 527      32.716   8.583  28.771  0.00  0.00    -0.389 OA
ATOM      6  C1  GCD d 527      35.027  10.128  27.143  0.00  0.00     0.165 C 
ATOM      7  O6B GCD d 527      33.026  13.838  26.769  0.00  0.00    -0.642 OA
ATOM      8  O5  GCD d 527      34.391  11.320  26.650  0.00  0.00    -0.311 OA
ATOM      9  C5  GCD d 527      32.971  11.500  26.982  0.00  0.00     0.147 C 
ATOM     10  C2  GCD d 527      34.157   8.942  26.788  0.00  0.00     0.111 C 
ATOM     11  O6A GCD d 527      31.105  12.861  27.209  0.00  0.00    -0.642 OA
ATOM     12  H   GCD d 527      32.120   8.370  26.836  0.00  0.00     0.093 H 
ATOM     13  H   GCD d 527      33.522   8.234  25.064  0.00  0.00     0.210 HD
ATOM     14  H   GCD d 527      31.224  10.601  27.572  0.00  0.00     0.085 H 
ATOM     15  H   GCD d 527      33.275   9.164  29.310  0.00  0.00     0.210 HD
ATOM     16  H   GCD d 527      36.002  10.074  26.707  0.00  0.00     0.134 H 
ATOM     17  H   GCD d 527      34.580   8.036  27.171  0.00  0.00     0.095 H 
ATOM     18  O5  NGK d 526      37.790  11.980  31.120  0.00  0.00    -0.349 OA
ATOM     19  O1  NGK d 526      38.874  11.985  29.140  0.00  0.00    -0.369 OA
ATOM     20  O7  NGK d 526      36.823   7.437  29.133  0.00  0.00    -0.274 OA
ATOM     21  O2S NGK d 526      33.844   9.501  32.732  0.00  0.00    -0.572 OA
ATOM     22  S   NGK d 526      33.821  10.797  31.847  0.00  0.00     0.252 S 
ATOM     23  O6  NGK d 526      35.342  14.644  31.359  0.00  0.00    -0.398 OA
ATOM     24  O4  NGK d 526      35.284  10.886  31.123  0.00  0.00    -0.246 OA
ATOM     25  C8  NGK d 526      38.571   7.215  27.522  0.00  0.00    -0.003 C 
ATOM     26  O3  NGK d 526      35.143  10.137  28.584  0.00  0.00    -0.348 OA
ATOM     27  N   NGK d 526      37.982   9.298  28.564  0.00  0.00    -0.349 N 
ATOM     28  C7  NGK d 526      37.705   7.992  28.472  0.00  0.00     0.214 C 
ATOM     29  O1S NGK d 526      33.517  11.974  32.615  0.00  0.00    -0.572 OA
ATOM     30  C3  NGK d 526      36.191  10.990  28.986  0.00  0.00     0.094 C 
ATOM     31  C6  NGK d 526      36.145  13.614  31.911  0.00  0.00     0.043 C 
ATOM     32  O3S NGK d 526      32.921  10.560  30.727  0.00  0.00    -0.572 OA
ATOM     33  C2  NGK d 526      37.356  10.176  29.555  0.00  0.00     0.087 C 
ATOM     34  C1  NGK d 526      38.394  11.133  30.151  0.00  0.00     0.151 C 
ATOM     35  C4  NGK d 526      35.617  11.838  30.122  0.00  0.00     0.114 C 
ATOM     36  C5  NGK d 526      36.665  12.784  30.714  0.00  0.00     0.090 C 
ATOM     37  H   NGK d 526      39.532  12.592  29.514  0.00  0.00     0.212 HD
ATOM     38  H   NGK d 526      34.990  15.197  32.074  0.00  0.00     0.209 HD
ATOM     39  H   NGK d 526      38.269   6.189  27.522  0.00  0.00     0.040 H 
ATOM     40  H   NGK d 526      39.592   7.287  27.831  0.00  0.00     0.040 H 
ATOM     41  H   NGK d 526      38.467   7.617  26.536  0.00  0.00     0.040 H 
ATOM     42  H   NGK d 526      38.635   9.686  27.939  0.00  0.00     0.163 HD
ATOM     43  H   NGK d 526      36.546  11.571  28.160  0.00  0.00     0.091 H 
ATOM     44  H   NGK d 526      35.563  12.998  32.564  0.00  0.00     0.078 H 
ATOM     45  H   NGK d 526      36.953  14.015  32.487  0.00  0.00     0.078 H 
ATOM     46  H   NGK d 526      36.960   9.535  30.314  0.00  0.00     0.084 H 
ATOM     47  H   NGK d 526      39.173  10.543  30.587  0.00  0.00     0.132 H 
ATOM     48  H   NGK d 526      34.801  12.438  29.778  0.00  0.00     0.093 H 
ATOM     49  H   NGK d 526      36.934  13.499  29.966  0.00  0.00     0.090 H 
ENDROOT
TORSDOF 12
ENDMDL
MODEL 11
REMARK VINA RESULT:      -7.3      2.486      5.625
REMARK  0 active torsions:
REMARK  status: ('A' for Active; 'I' for Inactive)
REMARK       I    between atoms: C3_1  and  O3_15 
REMARK       I    between atoms: O1_3  and  C1_27 
REMARK       I    between atoms: S_6  and  O4_8 
REMARK       I    between atoms: O6_7  and  C6_23 
REMARK       I    between atoms: O4_8  and  C4_29 
REMARK       I    between atoms: O2_9  and  C2_24 
REMARK       I    between atoms: C8_10  and  C7_18 
REMARK       I    between atoms: O3_11  and  C3_20 
REMARK       I    between atoms: O3_11  and  C1_16 
REMARK       I    between atoms: C6_12  and  C5_22 
REMARK       I    between atoms: N_13  and  C2_26 
REMARK       I    between atoms: N_13  and  C7_18 
REMARK       I    between atoms: C6_23  and  C5_30 
ROOT
ATOM      1  C3  GCD d 527      35.140   9.182  32.343  0.00  0.00     0.084 C 
ATOM      2  O2  GCD d 527      34.967   6.817  31.803  0.00  0.00    -0.388 OA
ATOM      3  C6  GCD d 527      31.343   9.504  31.899  0.00  0.00     0.233 C 
ATOM      4  C4  GCD d 527      33.676   9.521  32.491  0.00  0.00    -0.034 C 
ATOM      5  O3  GCD d 527      35.869  10.377  32.040  0.00  0.00    -0.389 OA
ATOM      6  C1  GCD d 527      34.444   8.266  30.067  0.00  0.00     0.165 C 
ATOM      7  O6B GCD d 527      30.444   9.210  31.077  0.00  0.00    -0.642 OA
ATOM      8  O5  GCD d 527      33.075   8.224  30.505  0.00  0.00    -0.311 OA
ATOM      9  C5  GCD d 527      32.717   9.077  31.648  0.00  0.00     0.147 C 
ATOM     10  C2  GCD d 527      35.336   8.082  31.274  0.00  0.00     0.111 C 
ATOM     11  O6A GCD d 527      31.126  10.172  32.933  0.00  0.00    -0.642 OA
ATOM     12  H   GCD d 527      35.520   8.786  33.261  0.00  0.00     0.093 H 
ATOM     13  H   GCD d 527      35.503   6.625  32.589  0.00  0.00     0.210 HD
ATOM     14  H   GCD d 527      33.391  10.125  33.278  0.00  0.00     0.085 H 
ATOM     15  H   GCD d 527      35.539  10.754  31.209  0.00  0.00     0.210 HD
ATOM     16  H   GCD d 527      34.575   7.500  29.333  0.00  0.00     0.134 H 
ATOM     17  H   GCD d 527      36.368   8.143  30.994  0.00  0.00     0.095 H 
ATOM     18  O5  NGK d 526      34.090  11.184  25.795  0.00  0.00    -0.349 OA
ATOM     19  O1  NGK d 526      33.832   8.968  25.445  0.00  0.00    -0.369 OA
ATOM     20  O7  NGK d 526      37.801   9.034  28.465  0.00  0.00    -0.274 OA
ATOM     21  O2S NGK d 526      36.105  13.738  29.500  0.00  0.00    -0.572 OA
ATOM     22  S   NGK d 526      34.659  13.128  29.479  0.00  0.00     0.252 S 
ATOM     23  O6  NGK d 526      31.149  12.698  27.278  0.00  0.00    -0.398 OA
ATOM     24  O4  NGK d 526      34.677  11.940  28.356  0.00  0.00    -0.246 OA
ATOM     25  C8  NGK d 526      37.965   6.880  27.448  0.00  0.00    -0.003 C 
ATOM     26  O3  NGK d 526      34.786   9.549  29.493  0.00  0.00    -0.348 OA
ATOM     27  N   NGK d 526      36.104   8.365  27.122  0.00  0.00    -0.349 N 
ATOM     28  C7  NGK d 526      37.281   8.187  27.735  0.00  0.00     0.214 C 
ATOM     29  O1S NGK d 526      33.654  14.121  29.212  0.00  0.00    -0.572 OA
ATOM     30  C3  NGK d 526      34.254   9.662  28.193  0.00  0.00     0.094 C 
ATOM     31  C6  NGK d 526      32.408  12.756  26.627  0.00  0.00     0.043 C 
ATOM     32  O3S NGK d 526      34.464  12.394  30.722  0.00  0.00    -0.572 OA
ATOM     33  C2  NGK d 526      35.377   9.635  27.152  0.00  0.00     0.087 C 
ATOM     34  C1  NGK d 526      34.789   9.945  25.771  0.00  0.00     0.151 C 
ATOM     35  C4  NGK d 526      33.599  11.042  28.135  0.00  0.00     0.114 C 
ATOM     36  C5  NGK d 526      33.023  11.343  26.749  0.00  0.00     0.090 C 
ATOM     37  H   NGK d 526      33.458   9.161  24.571  0.00  0.00     0.212 HD
ATOM     38  H   NGK d 526      30.719  13.566  27.229  0.00  0.00     0.209 HD
ATOM     39  H   NGK d 526      38.891   6.838  27.982  0.00  0.00     0.040 H 
ATOM     40  H   NGK d 526      38.155   6.800  26.398  0.00  0.00     0.040 H 
ATOM     41  H   NGK d 526      37.337   6.073  27.759  0.00  0.00     0.040 H 
ATOM     42  H   NGK d 526      35.711   7.609  26.630  0.00  0.00     0.163 HD
ATOM     43  H   NGK d 526      33.576   8.860  27.988  0.00  0.00     0.091 H 
ATOM     44  H   NGK d 526      33.038  13.477  27.104  0.00  0.00     0.078 H 
ATOM     45  H   NGK d 526      32.304  13.049  25.604  0.00  0.00     0.078 H 
ATOM     46  H   NGK d 526      36.091  10.382  27.430  0.00  0.00     0.084 H 
ATOM     47  H   NGK d 526      35.596   9.972  25.069  0.00  0.00     0.132 H 
ATOM     48  H   NGK d 526      32.797  11.114  28.839  0.00  0.00     0.093 H 
ATOM     49  H   NGK d 526      32.217  10.664  26.566  0.00  0.00     0.090 H 
ENDROOT
TORSDOF 12
ENDMDL
MODEL 12
REMARK VINA RESULT:      -7.2      1.720      2.027
REMARK  0 active torsions:
REMARK  status: ('A' for Active; 'I' for Inactive)
REMARK       I    between atoms: C3_1  and  O3_15 
REMARK       I    between atoms: O1_3  and  C1_27 
REMARK       I    between atoms: S_6  and  O4_8 
REMARK       I    between atoms: O6_7  and  C6_23 
REMARK       I    between atoms: O4_8  and  C4_29 
REMARK       I    between atoms: O2_9  and  C2_24 
REMARK       I    between atoms: C8_10  and  C7_18 
REMARK       I    between atoms: O3_11  and  C3_20 
REMARK       I    between atoms: O3_11  and  C1_16 
REMARK       I    between atoms: C6_12  and  C5_22 
REMARK       I    between atoms: N_13  and  C2_26 
REMARK       I    between atoms: N_13  and  C7_18 
REMARK       I    between atoms: C6_23  and  C5_30 
ROOT
ATOM      1  C3  GCD d 527      32.087  12.035  31.707  0.00  0.00     0.084 C 
ATOM      2  O2  GCD d 527      32.810  14.188  30.836  0.00  0.00    -0.388 OA
ATOM      3  C6  GCD d 527      35.742  11.203  32.525  0.00  0.00     0.233 C 
ATOM      4  C4  GCD d 527      33.370  11.576  32.359  0.00  0.00    -0.034 C 
ATOM      5  O3  GCD d 527      31.278  10.891  31.410  0.00  0.00    -0.389 OA
ATOM      6  C1  GCD d 527      33.540  12.341  29.634  0.00  0.00     0.165 C 
ATOM      7  O6B GCD d 527      36.872  11.206  31.984  0.00  0.00    -0.642 OA
ATOM      8  O5  GCD d 527      34.718  12.327  30.460  0.00  0.00    -0.311 OA
ATOM      9  C5  GCD d 527      34.588  11.714  31.789  0.00  0.00     0.147 C 
ATOM     10  C2  GCD d 527      32.391  12.886  30.453  0.00  0.00     0.111 C 
ATOM     11  O6A GCD d 527      35.542  10.760  33.677  0.00  0.00    -0.642 OA
ATOM     12  H   GCD d 527      31.539  12.664  32.377  0.00  0.00     0.093 H 
ATOM     13  H   GCD d 527      32.117  14.607  31.370  0.00  0.00     0.210 HD
ATOM     14  H   GCD d 527      33.315  11.134  33.289  0.00  0.00     0.085 H 
ATOM     15  H   GCD d 527      31.758  10.305  30.803  0.00  0.00     0.210 HD
ATOM     16  H   GCD d 527      33.755  12.936  28.771  0.00  0.00     0.134 H 
ATOM     17  H   GCD d 527      31.485  12.879  29.882  0.00  0.00     0.095 H 
ATOM     18  O5  NGK d 526      34.569   8.531  26.272  0.00  0.00    -0.349 OA
ATOM     19  O1  NGK d 526      35.293  10.571  25.630  0.00  0.00    -0.369 OA
ATOM     20  O7  NGK d 526      30.687  11.617  27.235  0.00  0.00    -0.274 OA
ATOM     21  O2S NGK d 526      31.188   7.099  29.563  0.00  0.00    -0.572 OA
ATOM     22  S   NGK d 526      32.665   7.525  29.883  0.00  0.00     0.252 S 
ATOM     23  O6  NGK d 526      36.670   7.064  28.837  0.00  0.00    -0.398 OA
ATOM     24  O4  NGK d 526      33.167   8.429  28.617  0.00  0.00    -0.246 OA
ATOM     25  C8  NGK d 526      31.188  13.496  25.850  0.00  0.00    -0.003 C 
ATOM     26  O3  NGK d 526      33.157  11.010  29.220  0.00  0.00    -0.348 OA
ATOM     27  N   NGK d 526      32.781  11.779  26.386  0.00  0.00    -0.349 N 
ATOM     28  C7  NGK d 526      31.529  12.218  26.563  0.00  0.00     0.214 C 
ATOM     29  O1S NGK d 526      33.517   6.392  30.120  0.00  0.00    -0.572 OA
ATOM     30  C3  NGK d 526      34.004  10.554  28.190  0.00  0.00     0.094 C 
ATOM     31  C6  NGK d 526      35.654   7.004  27.850  0.00  0.00     0.043 C 
ATOM     32  O3S NGK d 526      32.626   8.490  30.973  0.00  0.00    -0.572 OA
ATOM     33  C2  NGK d 526      33.240  10.474  26.865  0.00  0.00     0.087 C 
ATOM     34  C1  NGK d 526      34.129   9.803  25.813  0.00  0.00     0.151 C 
ATOM     35  C4  NGK d 526      34.401   9.131  28.584  0.00  0.00     0.114 C 
ATOM     36  C5  NGK d 526      35.282   8.469  27.522  0.00  0.00     0.090 C 
ATOM     37  H   NGK d 526      35.858  10.148  24.964  0.00  0.00     0.212 HD
ATOM     38  H   NGK d 526      36.940   6.165  29.079  0.00  0.00     0.209 HD
ATOM     39  H   NGK d 526      30.171  13.759  26.055  0.00  0.00     0.040 H 
ATOM     40  H   NGK d 526      31.317  13.362  24.797  0.00  0.00     0.040 H 
ATOM     41  H   NGK d 526      31.834  14.278  26.192  0.00  0.00     0.040 H 
ATOM     42  H   NGK d 526      33.421  12.359  25.914  0.00  0.00     0.163 HD
ATOM     43  H   NGK d 526      34.841  11.210  28.066  0.00  0.00     0.091 H 
ATOM     44  H   NGK d 526      34.800   6.481  28.228  0.00  0.00     0.078 H 
ATOM     45  H   NGK d 526      35.988   6.482  26.978  0.00  0.00     0.078 H 
ATOM     46  H   NGK d 526      32.360   9.891  27.036  0.00  0.00     0.084 H 
ATOM     47  H   NGK d 526      33.559   9.711  24.911  0.00  0.00     0.132 H 
ATOM     48  H   NGK d 526      34.949   9.127  29.503  0.00  0.00     0.093 H 
ATOM     49  H   NGK d 526      36.212   8.996  27.479  0.00  0.00     0.090 H 
ENDROOT
TORSDOF 12
ENDMDL
MODEL 13
REMARK VINA RESULT:      -7.2      2.139      5.499
REMARK  0 active torsions:
REMARK  status: ('A' for Active; 'I' for Inactive)
REMARK       I    between atoms: C3_1  and  O3_15 
REMARK       I    between atoms: O1_3  and  C1_27 
REMARK       I    between atoms: S_6  and  O4_8 
REMARK       I    between atoms: O6_7  and  C6_23 
REMARK       I    between atoms: O4_8  and  C4_29 
REMARK       I    between atoms: O2_9  and  C2_24 
REMARK       I    between atoms: C8_10  and  C7_18 
REMARK       I    between atoms: O3_11  and  C3_20 
REMARK       I    between atoms: O3_11  and  C1_16 
REMARK       I    between atoms: C6_12  and  C5_22 
REMARK       I    between atoms: N_13  and  C2_26 
REMARK       I    between atoms: N_13  and  C7_18 
REMARK       I    between atoms: C6_23  and  C5_30 
ROOT
ATOM      1  C3  GCD d 527      34.365   8.859  26.879  0.00  0.00     0.084 C 
ATOM      2  O2  GCD d 527      31.937   9.000  26.937  0.00  0.00    -0.388 OA
ATOM      3  C6  GCD d 527      34.259   6.687  30.040  0.00  0.00     0.233 C 
ATOM      4  C4  GCD d 527      34.588   7.797  27.930  0.00  0.00    -0.034 C 
ATOM      5  O3  GCD d 527      35.556   9.644  26.748  0.00  0.00    -0.389 OA
ATOM      6  C1  GCD d 527      33.029  10.035  28.706  0.00  0.00     0.165 C 
ATOM      7  O6B GCD d 527      33.753   6.683  31.186  0.00  0.00    -0.642 OA
ATOM      8  O5  GCD d 527      32.933   8.796  29.430  0.00  0.00    -0.311 OA
ATOM      9  C5  GCD d 527      33.925   7.761  29.107  0.00  0.00     0.147 C 
ATOM     10  C2  GCD d 527      33.128   9.718  27.230  0.00  0.00     0.111 C 
ATOM     11  O6A GCD d 527      35.065   5.814  29.650  0.00  0.00    -0.642 OA
ATOM     12  H   GCD d 527      34.162   8.404  25.933  0.00  0.00     0.093 H 
ATOM     13  H   GCD d 527      31.928   8.759  25.998  0.00  0.00     0.210 HD
ATOM     14  H   GCD d 527      35.283   7.059  27.739  0.00  0.00     0.085 H 
ATOM     15  H   GCD d 527      35.760  10.067  27.597  0.00  0.00     0.210 HD
ATOM     16  H   GCD d 527      32.168  10.621  28.949  0.00  0.00     0.134 H 
ATOM     17  H   GCD d 527      33.237  10.616  26.658  0.00  0.00     0.095 H 
ATOM     18  O5  NGK d 526      35.162  13.161  32.250  0.00  0.00    -0.349 OA
ATOM     19  O1  NGK d 526      32.905  13.113  32.276  0.00  0.00    -0.369 OA
ATOM     20  O7  NGK d 526      33.829  13.506  27.390  0.00  0.00    -0.274 OA
ATOM     21  O2S NGK d 526      38.464  11.899  28.812  0.00  0.00    -0.572 OA
ATOM     22  S   NGK d 526      37.728  10.916  29.790  0.00  0.00     0.252 S 
ATOM     23  O6  NGK d 526      36.621  10.195  33.741  0.00  0.00    -0.398 OA
ATOM     24  O4  NGK d 526      36.378  11.691  30.292  0.00  0.00    -0.246 OA
ATOM     25  C8  NGK d 526      31.562  14.240  27.544  0.00  0.00    -0.003 C 
ATOM     26  O3  NGK d 526      34.226  10.769  29.052  0.00  0.00    -0.348 OA
ATOM     27  N   NGK d 526      32.796  13.337  29.398  0.00  0.00    -0.349 N 
ATOM     28  C7  NGK d 526      32.830  13.652  28.098  0.00  0.00     0.214 C 
ATOM     29  O1S NGK d 526      38.566  10.509  30.884  0.00  0.00    -0.572 OA
ATOM     30  C3  NGK d 526      34.075  11.391  30.307  0.00  0.00     0.094 C 
ATOM     31  C6  NGK d 526      36.688  11.520  33.239  0.00  0.00     0.043 C 
ATOM     32  O3S NGK d 526      37.192   9.816  29.000  0.00  0.00    -0.572 OA
ATOM     33  C2  NGK d 526      33.982  12.910  30.144  0.00  0.00     0.087 C 
ATOM     34  C1  NGK d 526      34.006  13.567  31.528  0.00  0.00     0.151 C 
ATOM     35  C4  NGK d 526      35.361  11.083  31.075  0.00  0.00     0.114 C 
ATOM     36  C5  NGK d 526      35.376  11.751  32.453  0.00  0.00     0.090 C 
ATOM     37  H   NGK d 526      32.917  13.527  33.153  0.00  0.00     0.212 HD
ATOM     38  H   NGK d 526      37.426  10.000  34.245  0.00  0.00     0.209 HD
ATOM     39  H   NGK d 526      31.693  14.455  26.505  0.00  0.00     0.040 H 
ATOM     40  H   NGK d 526      31.330  15.143  28.069  0.00  0.00     0.040 H 
ATOM     41  H   NGK d 526      30.763  13.540  27.666  0.00  0.00     0.040 H 
ATOM     42  H   NGK d 526      31.937  13.395  29.874  0.00  0.00     0.163 HD
ATOM     43  H   NGK d 526      33.191  11.042  30.800  0.00  0.00     0.091 H 
ATOM     44  H   NGK d 526      37.532  11.629  32.591  0.00  0.00     0.078 H 
ATOM     45  H   NGK d 526      36.798  12.231  34.030  0.00  0.00     0.078 H 
ATOM     46  H   NGK d 526      34.827  13.224  29.567  0.00  0.00     0.084 H 
ATOM     47  H   NGK d 526      33.991  14.628  31.389  0.00  0.00     0.132 H 
ATOM     48  H   NGK d 526      35.473  10.030  31.227  0.00  0.00     0.093 H 
ATOM     49  H   NGK d 526      34.605  11.310  33.049  0.00  0.00     0.090 H 
ENDROOT
TORSDOF 12
ENDMDL
MODEL 14
REMARK VINA RESULT:      -7.2      3.051      6.304
REMARK  0 active torsions:
REMARK  status: ('A' for Active; 'I' for Inactive)
REMARK       I    between atoms: C3_1  and  O3_15 
REMARK       I    between atoms: O1_3  and  C1_27 
REMARK       I    between atoms: S_6  and  O4_8 
REMARK       I    between atoms: O6_7  and  C6_23 
REMARK       I    between atoms: O4_8  and  C4_29 
REMARK       I    between atoms: O2_9  and  C2_24 
REMARK       I    between atoms: C8_10  and  C7_18 
REMARK       I    between atoms: O3_11  and  C3_20 
REMARK       I    between atoms: O3_11  and  C1_16 
REMARK       I    between atoms: C6_12  and  C5_22 
REMARK       I    between atoms: N_13  and  C2_26 
REMARK       I    between atoms: N_13  and  C7_18 
REMARK       I    between atoms: C6_23  and  C5_30 
ROOT
ATOM      1  C3  GCD d 527      38.527   6.814  26.970  0.00  0.00     0.084 C 
ATOM      2  O2  GCD d 527      36.815   6.368  25.300  0.00  0.00    -0.388 OA
ATOM      3  C6  GCD d 527      37.524   3.583  28.779  0.00  0.00     0.233 C 
ATOM      4  C4  GCD d 527      38.516   5.496  27.709  0.00  0.00    -0.034 C 
ATOM      5  O3  GCD d 527      39.050   7.830  27.833  0.00  0.00    -0.389 OA
ATOM      6  C1  GCD d 527      36.020   6.813  27.435  0.00  0.00     0.165 C 
ATOM      7  O6B GCD d 527      36.501   3.000  29.208  0.00  0.00    -0.642 OA
ATOM      8  O5  GCD d 527      36.071   5.400  27.699  0.00  0.00    -0.311 OA
ATOM      9  C5  GCD d 527      37.385   4.837  28.043  0.00  0.00     0.147 C 
ATOM     10  C2  GCD d 527      37.113   7.153  26.446  0.00  0.00     0.111 C 
ATOM     11  O6A GCD d 527      38.681   3.149  28.966  0.00  0.00    -0.642 OA
ATOM     12  H   GCD d 527      39.162   6.749  26.111  0.00  0.00     0.093 H 
ATOM     13  H   GCD d 527      37.480   6.534  24.613  0.00  0.00     0.210 HD
ATOM     14  H   GCD d 527      39.421   5.077  27.972  0.00  0.00     0.085 H 
ATOM     15  H   GCD d 527      38.489   7.906  28.620  0.00  0.00     0.210 HD
ATOM     16  H   GCD d 527      35.041   7.040  27.068  0.00  0.00     0.134 H 
ATOM     17  H   GCD d 527      37.130   8.206  26.250  0.00  0.00     0.095 H 
ATOM     18  O5  NGK d 526      33.923   8.624  31.818  0.00  0.00    -0.349 OA
ATOM     19  O1  NGK d 526      32.427   8.063  30.222  0.00  0.00    -0.369 OA
ATOM     20  O7  NGK d 526      35.802  10.603  27.566  0.00  0.00    -0.274 OA
ATOM     21  O2S NGK d 526      38.743   9.644  31.630  0.00  0.00    -0.572 OA
ATOM     22  S   NGK d 526      38.103   8.211  31.647  0.00  0.00     0.252 S 
ATOM     23  O6  NGK d 526      35.315   5.720  33.484  0.00  0.00    -0.398 OA
ATOM     24  O4  NGK d 526      36.560   8.390  31.137  0.00  0.00    -0.246 OA
ATOM     25  C8  NGK d 526      33.875  10.680  26.157  0.00  0.00    -0.003 C 
ATOM     26  O3  NGK d 526      36.283   7.592  28.624  0.00  0.00    -0.348 OA
ATOM     27  N   NGK d 526      33.983   9.405  28.192  0.00  0.00    -0.349 N 
ATOM     28  C7  NGK d 526      34.647  10.220  27.362  0.00  0.00     0.214 C 
ATOM     29  O1S NGK d 526      38.185   7.595  32.943  0.00  0.00    -0.572 OA
ATOM     30  C3  NGK d 526      35.152   7.600  29.466  0.00  0.00     0.094 C 
ATOM     31  C6  NGK d 526      35.073   7.113  33.364  0.00  0.00     0.043 C 
ATOM     32  O3S NGK d 526      38.710   7.437  30.572  0.00  0.00    -0.572 OA
ATOM     33  C2  NGK d 526      34.514   8.991  29.492  0.00  0.00     0.087 C 
ATOM     34  C1  NGK d 526      33.407   9.017  30.551  0.00  0.00     0.151 C 
ATOM     35  C4  NGK d 526      35.683   7.305  30.869  0.00  0.00     0.114 C 
ATOM     36  C5  NGK d 526      34.570   7.341  31.920  0.00  0.00     0.090 C 
ATOM     37  H   NGK d 526      31.725   8.077  30.891  0.00  0.00     0.212 HD
ATOM     38  H   NGK d 526      35.634   5.524  34.378  0.00  0.00     0.209 HD
ATOM     39  H   NGK d 526      34.491  11.322  25.563  0.00  0.00     0.040 H 
ATOM     40  H   NGK d 526      33.005  11.214  26.475  0.00  0.00     0.040 H 
ATOM     41  H   NGK d 526      33.581   9.831  25.577  0.00  0.00     0.040 H 
ATOM     42  H   NGK d 526      33.100   9.070  27.916  0.00  0.00     0.163 HD
ATOM     43  H   NGK d 526      34.423   6.892  29.130  0.00  0.00     0.091 H 
ATOM     44  H   NGK d 526      35.975   7.662  33.533  0.00  0.00     0.078 H 
ATOM     45  H   NGK d 526      34.355   7.446  34.084  0.00  0.00     0.078 H 
ATOM     46  H   NGK d 526      35.283   9.694  29.738  0.00  0.00     0.084 H 
ATOM     47  H   NGK d 526      33.010  10.010  30.588  0.00  0.00     0.132 H 
ATOM     48  H   NGK d 526      36.134   6.336  30.913  0.00  0.00     0.093 H 
ATOM     49  H   NGK d 526      33.895   6.535  31.722  0.00  0.00     0.090 H 
ENDROOT
TORSDOF 12
ENDMDL
MODEL 15
REMARK VINA RESULT:      -7.2      2.929      5.997
REMARK  0 active torsions:
REMARK  status: ('A' for Active; 'I' for Inactive)
REMARK       I    between atoms: C3_1  and  O3_15 
REMARK       I    between atoms: O1_3  and  C1_27 
REMARK       I    between atoms: S_6  and  O4_8 
REMARK       I    between atoms: O6_7  and  C6_23 
REMARK       I    between atoms: O4_8  and  C4_29 
REMARK       I    between atoms: O2_9  and  C2_24 
REMARK       I    between atoms: C8_10  and  C7_18 
REMARK       I    between atoms: O3_11  and  C3_20 
REMARK       I    between atoms: O3_11  and  C1_16 
REMARK       I    between atoms: C6_12  and  C5_22 
REMARK       I    between atoms: N_13  and  C2_26 
REMARK       I    between atoms: N_13  and  C7_18 
REMARK       I    between atoms: C6_23  and  C5_30 
ROOT
ATOM      1  C3  GCD d 527      33.174  10.306  32.743  0.00  0.00     0.084 C 
ATOM      2  O2  GCD d 527      33.483   7.917  32.405  0.00  0.00    -0.388 OA
ATOM      3  C6  GCD d 527      29.573   9.965  31.463  0.00  0.00     0.233 C 
ATOM      4  C4  GCD d 527      31.680  10.405  32.540  0.00  0.00    -0.034 C 
ATOM      5  O3  GCD d 527      33.766  11.585  32.492  0.00  0.00    -0.389 OA
ATOM      6  C1  GCD d 527      33.158   9.154  30.468  0.00  0.00     0.165 C 
ATOM      7  O6B GCD d 527      28.938   9.477  30.499  0.00  0.00    -0.642 OA
ATOM      8  O5  GCD d 527      31.747   8.911  30.603  0.00  0.00    -0.311 OA
ATOM      9  C5  GCD d 527      31.016   9.758  31.556  0.00  0.00     0.147 C 
ATOM     10  C2  GCD d 527      33.770   9.193  31.851  0.00  0.00     0.111 C 
ATOM     11  O6A GCD d 527      29.029  10.647  32.359  0.00  0.00    -0.642 OA
ATOM     12  H   GCD d 527      33.390  10.034  33.755  0.00  0.00     0.093 H 
ATOM     13  H   GCD d 527      33.848   7.864  33.302  0.00  0.00     0.210 HD
ATOM     14  H   GCD d 527      31.137  10.997  33.186  0.00  0.00     0.085 H 
ATOM     15  H   GCD d 527      33.581  11.853  31.578  0.00  0.00     0.210 HD
ATOM     16  H   GCD d 527      33.566   8.379  29.854  0.00  0.00     0.134 H 
ATOM     17  H   GCD d 527      34.817   9.408  31.794  0.00  0.00     0.095 H 
ATOM     18  O5  NGK d 526      33.355  11.715  25.964  0.00  0.00    -0.349 OA
ATOM     19  O1  NGK d 526      33.517   9.471  25.777  0.00  0.00    -0.369 OA
ATOM     20  O7  NGK d 526      36.639  10.374  29.561  0.00  0.00    -0.274 OA
ATOM     21  O2S NGK d 526      34.070  14.784  29.757  0.00  0.00    -0.572 OA
ATOM     22  S   NGK d 526      32.774  13.941  29.483  0.00  0.00     0.252 S 
ATOM     23  O6  NGK d 526      29.961  12.803  26.628  0.00  0.00    -0.398 OA
ATOM     24  O4  NGK d 526      33.224  12.708  28.507  0.00  0.00    -0.246 OA
ATOM     25  C8  NGK d 526      37.350   8.222  28.811  0.00  0.00    -0.003 C 
ATOM     26  O3  NGK d 526      33.427  10.440  29.862  0.00  0.00    -0.348 OA
ATOM     27  N   NGK d 526      35.412   9.354  27.953  0.00  0.00    -0.349 N 
ATOM     28  C7  NGK d 526      36.431   9.411  28.819  0.00  0.00     0.214 C 
ATOM     29  O1S NGK d 526      31.720  14.735  28.913  0.00  0.00    -0.572 OA
ATOM     30  C3  NGK d 526      33.195  10.386  28.473  0.00  0.00     0.094 C 
ATOM     31  C6  NGK d 526      31.312  13.032  26.262  0.00  0.00     0.043 C 
ATOM     32  O3S NGK d 526      32.414  13.259  30.718  0.00  0.00    -0.572 OA
ATOM     33  C2  NGK d 526      34.516  10.485  27.706  0.00  0.00     0.087 C 
ATOM     34  C1  NGK d 526      34.218  10.611  26.208  0.00  0.00     0.151 C 
ATOM     35  C4  NGK d 526      32.371  11.632  28.145  0.00  0.00     0.114 C 
ATOM     36  C5  NGK d 526      32.087  11.751  26.646  0.00  0.00     0.090 C 
ATOM     37  H   NGK d 526      33.327   9.547  24.829  0.00  0.00     0.212 HD
ATOM     38  H   NGK d 526      29.430  13.583  26.406  0.00  0.00     0.209 HD
ATOM     39  H   NGK d 526      38.126   8.365  29.533  0.00  0.00     0.040 H 
ATOM     40  H   NGK d 526      37.783   8.113  27.839  0.00  0.00     0.040 H 
ATOM     41  H   NGK d 526      36.794   7.341  29.054  0.00  0.00     0.040 H 
ATOM     42  H   NGK d 526      35.258   8.516  27.462  0.00  0.00     0.163 HD
ATOM     43  H   NGK d 526      32.708   9.471  28.204  0.00  0.00     0.091 H 
ATOM     44  H   NGK d 526      31.703  13.875  26.792  0.00  0.00     0.078 H 
ATOM     45  H   NGK d 526      31.401  13.243  25.217  0.00  0.00     0.078 H 
ATOM     46  H   NGK d 526      35.028  11.356  28.059  0.00  0.00     0.084 H 
ATOM     47  H   NGK d 526      35.151  10.730  25.696  0.00  0.00     0.132 H 
ATOM     48  H   NGK d 526      31.428  11.611  28.650  0.00  0.00     0.093 H 
ATOM     49  H   NGK d 526      31.455  10.937  26.358  0.00  0.00     0.090 H 
ENDROOT
TORSDOF 12
ENDMDL
MODEL 16
REMARK VINA RESULT:      -7.2      2.271      5.275
REMARK  0 active torsions:
REMARK  status: ('A' for Active; 'I' for Inactive)
REMARK       I    between atoms: C3_1  and  O3_15 
REMARK       I    between atoms: O1_3  and  C1_27 
REMARK       I    between atoms: S_6  and  O4_8 
REMARK       I    between atoms: O6_7  and  C6_23 
REMARK       I    between atoms: O4_8  and  C4_29 
REMARK       I    between atoms: O2_9  and  C2_24 
REMARK       I    between atoms: C8_10  and  C7_18 
REMARK       I    between atoms: O3_11  and  C3_20 
REMARK       I    between atoms: O3_11  and  C1_16 
REMARK       I    between atoms: C6_12  and  C5_22 
REMARK       I    between atoms: N_13  and  C2_26 
REMARK       I    between atoms: N_13  and  C7_18 
REMARK       I    between atoms: C6_23  and  C5_30 
ROOT
ATOM      1  C3  GCD d 527      37.355   9.972  29.333  0.00  0.00     0.084 C 
ATOM      2  O2  GCD d 527      37.975  12.194  28.559  0.00  0.00    -0.388 OA
ATOM      3  C6  GCD d 527      35.200   9.539  26.189  0.00  0.00     0.233 C 
ATOM      4  C4  GCD d 527      36.668   9.449  28.094  0.00  0.00    -0.034 C 
ATOM      5  O3  GCD d 527      36.881   9.246  30.472  0.00  0.00    -0.389 OA
ATOM      6  C1  GCD d 527      35.734  11.928  29.106  0.00  0.00     0.165 C 
ATOM      7  O6B GCD d 527      34.314  10.143  25.541  0.00  0.00    -0.642 OA
ATOM      8  O5  GCD d 527      35.490  11.564  27.736  0.00  0.00    -0.311 OA
ATOM      9  C5  GCD d 527      35.810  10.182  27.350  0.00  0.00     0.147 C 
ATOM     10  C2  GCD d 527      37.137  11.497  29.471  0.00  0.00     0.111 C 
ATOM     11  O6A GCD d 527      35.585   8.385  25.899  0.00  0.00    -0.642 OA
ATOM     12  H   GCD d 527      38.412   9.821  29.259  0.00  0.00     0.093 H 
ATOM     13  H   GCD d 527      38.901  11.967  28.732  0.00  0.00     0.210 HD
ATOM     14  H   GCD d 527      36.864   8.480  27.798  0.00  0.00     0.085 H 
ATOM     15  H   GCD d 527      35.923   9.369  30.558  0.00  0.00     0.210 HD
ATOM     16  H   GCD d 527      35.587  12.983  29.193  0.00  0.00     0.134 H 
ATOM     17  H   GCD d 527      37.345  11.719  30.497  0.00  0.00     0.095 H 
ATOM     18  O5  NGK d 526      30.935  11.908  31.068  0.00  0.00    -0.349 OA
ATOM     19  O1  NGK d 526      31.591  13.891  30.210  0.00  0.00    -0.369 OA
ATOM     20  O7  NGK d 526      35.616  12.574  32.847  0.00  0.00    -0.274 OA
ATOM     21  O2S NGK d 526      33.461   7.952  32.577  0.00  0.00    -0.572 OA
ATOM     22  S   NGK d 526      33.098   8.303  31.091  0.00  0.00     0.252 S 
ATOM     23  O6  NGK d 526      30.073   9.507  28.492  0.00  0.00    -0.398 OA
ATOM     24  O4  NGK d 526      32.801   9.911  31.057  0.00  0.00    -0.246 OA
ATOM     25  C8  NGK d 526      35.917  14.929  32.590  0.00  0.00    -0.003 C 
ATOM     26  O3  NGK d 526      34.842  11.239  30.012  0.00  0.00    -0.348 OA
ATOM     27  N   NGK d 526      34.156  13.691  31.523  0.00  0.00    -0.349 N 
ATOM     28  C7  NGK d 526      35.225  13.622  32.326  0.00  0.00     0.214 C 
ATOM     29  O1S NGK d 526      31.987   7.530  30.606  0.00  0.00    -0.572 OA
ATOM     30  C3  NGK d 526      33.559  11.821  29.974  0.00  0.00     0.094 C 
ATOM     31  C6  NGK d 526      30.099   9.965  29.834  0.00  0.00     0.043 C 
ATOM     32  O3S NGK d 526      34.310   8.182  30.293  0.00  0.00    -0.572 OA
ATOM     33  C2  NGK d 526      33.265  12.554  31.286  0.00  0.00     0.087 C 
ATOM     34  C1  NGK d 526      31.803  13.013  31.288  0.00  0.00     0.151 C 
ATOM     35  C4  NGK d 526      32.581  10.651  29.865  0.00  0.00     0.114 C 
ATOM     36  C5  NGK d 526      31.124  11.122  29.876  0.00  0.00     0.090 C 
ATOM     37  H   NGK d 526      30.667  14.183  30.209  0.00  0.00     0.212 HD
ATOM     38  H   NGK d 526      29.441   8.777  28.411  0.00  0.00     0.209 HD
ATOM     39  H   NGK d 526      36.753  14.765  33.239  0.00  0.00     0.040 H 
ATOM     40  H   NGK d 526      35.233  15.607  33.055  0.00  0.00     0.040 H 
ATOM     41  H   NGK d 526      36.259  15.345  31.666  0.00  0.00     0.040 H 
ATOM     42  H   NGK d 526      33.961  14.543  31.072  0.00  0.00     0.163 HD
ATOM     43  H   NGK d 526      33.481  12.518  29.166  0.00  0.00     0.091 H 
ATOM     44  H   NGK d 526      30.402   9.177  30.490  0.00  0.00     0.078 H 
ATOM     45  H   NGK d 526      29.131  10.291  30.152  0.00  0.00     0.078 H 
ATOM     46  H   NGK d 526      33.441  11.865  32.086  0.00  0.00     0.084 H 
ATOM     47  H   NGK d 526      31.605  13.477  32.233  0.00  0.00     0.132 H 
ATOM     48  H   NGK d 526      32.735  10.106  28.958  0.00  0.00     0.093 H 
ATOM     49  H   NGK d 526      30.949  11.692  28.988  0.00  0.00     0.090 H 
ENDROOT
TORSDOF 12
ENDMDL
MODEL 17
REMARK VINA RESULT:      -7.1      2.357      5.953
REMARK  0 active torsions:
REMARK  status: ('A' for Active; 'I' for Inactive)
REMARK       I    between atoms: C3_1  and  O3_15 
REMARK       I    between atoms: O1_3  and  C1_27 
REMARK       I    between atoms: S_6  and  O4_8 
REMARK       I    between atoms: O6_7  and  C6_23 
REMARK       I    between atoms: O4_8  and  C4_29 
REMARK       I    between atoms: O2_9  and  C2_24 
REMARK       I    between atoms: C8_10  and  C7_18 
REMARK       I    between atoms: O3_11  and  C3_20 
REMARK       I    between atoms: O3_11  and  C1_16 
REMARK       I    between atoms: C6_12  and  C5_22 
REMARK       I    between atoms: N_13  and  C2_26 
REMARK       I    between atoms: N_13  and  C7_18 
REMARK       I    between atoms: C6_23  and  C5_30 
ROOT
ATOM      1  C3  GCD d 527      36.422   5.829  30.897  0.00  0.00     0.084 C 
ATOM      2  O2  GCD d 527      38.772   6.365  31.223  0.00  0.00    -0.388 OA
ATOM      3  C6  GCD d 527      37.063   5.567  27.123  0.00  0.00     0.233 C 
ATOM      4  C4  GCD d 527      36.451   5.411  29.446  0.00  0.00    -0.034 C 
ATOM      5  O3  GCD d 527      35.094   6.243  31.238  0.00  0.00    -0.389 OA
ATOM      6  C1  GCD d 527      37.551   7.953  30.050  0.00  0.00     0.165 C 
ATOM      7  O6B GCD d 527      37.595   6.214  26.192  0.00  0.00    -0.642 OA
ATOM      8  O5  GCD d 527      37.917   7.273  28.837  0.00  0.00    -0.311 OA
ATOM      9  C5  GCD d 527      37.144   6.071  28.492  0.00  0.00     0.147 C 
ATOM     10  C2  GCD d 527      37.472   6.933  31.164  0.00  0.00     0.111 C 
ATOM     11  O6A GCD d 527      36.437   4.500  26.938  0.00  0.00    -0.642 OA
ATOM     12  H   GCD d 527      36.683   5.003  31.523  0.00  0.00     0.093 H 
ATOM     13  H   GCD d 527      38.801   5.694  31.922  0.00  0.00     0.210 HD
ATOM     14  H   GCD d 527      35.913   4.576  29.167  0.00  0.00     0.085 H 
ATOM     15  H   GCD d 527      34.836   6.993  30.680  0.00  0.00     0.210 HD
ATOM     16  H   GCD d 527      38.284   8.711  30.232  0.00  0.00     0.134 H 
ATOM     17  H   GCD d 527      37.166   7.396  32.079  0.00  0.00     0.095 H 
ATOM     18  O5  NGK d 526      34.945  12.043  28.215  0.00  0.00    -0.349 OA
ATOM     19  O1  NGK d 526      37.166  12.375  28.456  0.00  0.00    -0.369 OA
ATOM     20  O7  NGK d 526      36.027  10.130  32.764  0.00  0.00    -0.274 OA
ATOM     21  O2S NGK d 526      31.859   8.730  30.167  0.00  0.00    -0.572 OA
ATOM     22  S   NGK d 526      32.808   8.496  28.939  0.00  0.00     0.252 S 
ATOM     23  O6  NGK d 526      34.160  10.024  25.307  0.00  0.00    -0.398 OA
ATOM     24  O4  NGK d 526      33.989   9.621  29.048  0.00  0.00    -0.246 OA
ATOM     25  C8  NGK d 526      38.104  11.194  33.271  0.00  0.00    -0.003 C 
ATOM     26  O3  NGK d 526      36.242   8.560  29.952  0.00  0.00    -0.348 OA
ATOM     27  N   NGK d 526      37.136  11.151  31.072  0.00  0.00    -0.349 N 
ATOM     28  C7  NGK d 526      36.999  10.767  32.347  0.00  0.00     0.214 C 
ATOM     29  O1S NGK d 526      32.103   8.560  27.688  0.00  0.00    -0.572 OA
ATOM     30  C3  NGK d 526      36.305   9.740  29.183  0.00  0.00     0.094 C 
ATOM     31  C6  NGK d 526      33.812  10.893  26.373  0.00  0.00     0.043 C 
ATOM     32  O3S NGK d 526      33.529   7.250  29.161  0.00  0.00    -0.572 OA
ATOM     33  C2  NGK d 526      36.085  10.969  30.070  0.00  0.00     0.087 C 
ATOM     34  C1  NGK d 526      35.973  12.214  29.183  0.00  0.00     0.151 C 
ATOM     35  C4  NGK d 526      35.132   9.655  28.206  0.00  0.00     0.114 C 
ATOM     36  C5  NGK d 526      35.025  10.907  27.332  0.00  0.00     0.090 C 
ATOM     37  H   NGK d 526      37.098  13.162  27.894  0.00  0.00     0.212 HD
ATOM     38  H   NGK d 526      33.428   9.980  24.674  0.00  0.00     0.209 HD
ATOM     39  H   NGK d 526      37.899  10.839  34.260  0.00  0.00     0.040 H 
ATOM     40  H   NGK d 526      38.166  12.262  33.282  0.00  0.00     0.040 H 
ATOM     41  H   NGK d 526      39.032  10.785  32.930  0.00  0.00     0.040 H 
ATOM     42  H   NGK d 526      37.981  11.574  30.797  0.00  0.00     0.163 HD
ATOM     43  H   NGK d 526      37.255   9.829  28.700  0.00  0.00     0.091 H 
ATOM     44  H   NGK d 526      32.944  10.529  26.880  0.00  0.00     0.078 H 
ATOM     45  H   NGK d 526      33.586  11.875  26.016  0.00  0.00     0.078 H 
ATOM     46  H   NGK d 526      35.176  10.815  30.614  0.00  0.00     0.084 H 
ATOM     47  H   NGK d 526      35.769  13.052  29.817  0.00  0.00     0.132 H 
ATOM     48  H   NGK d 526      35.238   8.815  27.552  0.00  0.00     0.093 H 
ATOM     49  H   NGK d 526      35.888  10.951  26.701  0.00  0.00     0.090 H 
ENDROOT
TORSDOF 12
ENDMDL
MODEL 18
REMARK VINA RESULT:      -7.1      2.077      4.925
REMARK  0 active torsions:
REMARK  status: ('A' for Active; 'I' for Inactive)
REMARK       I    between atoms: C3_1  and  O3_15 
REMARK       I    between atoms: O1_3  and  C1_27 
REMARK       I    between atoms: S_6  and  O4_8 
REMARK       I    between atoms: O6_7  and  C6_23 
REMARK       I    between atoms: O4_8  and  C4_29 
REMARK       I    between atoms: O2_9  and  C2_24 
REMARK       I    between atoms: C8_10  and  C7_18 
REMARK       I    between atoms: O3_11  and  C3_20 
REMARK       I    between atoms: O3_11  and  C1_16 
REMARK       I    between atoms: C6_12  and  C5_22 
REMARK       I    between atoms: N_13  and  C2_26 
REMARK       I    between atoms: N_13  and  C7_18 
REMARK       I    between atoms: C6_23  and  C5_30 
ROOT
ATOM      1  C3  GCD d 527      37.536   8.945  30.705  0.00  0.00     0.084 C 
ATOM      2  O2  GCD d 527      39.048  10.440  29.524  0.00  0.00    -0.388 OA
ATOM      3  C6  GCD d 527      36.440   7.481  27.332  0.00  0.00     0.233 C 
ATOM      4  C4  GCD d 527      37.135   8.034  29.569  0.00  0.00    -0.034 C 
ATOM      5  O3  GCD d 527      36.524   8.904  31.717  0.00  0.00    -0.389 OA
ATOM      6  C1  GCD d 527      36.790  10.815  29.138  0.00  0.00     0.165 C 
ATOM      7  O6B GCD d 527      36.044   7.858  26.204  0.00  0.00    -0.642 OA
ATOM      8  O5  GCD d 527      36.877   9.912  28.022  0.00  0.00    -0.311 OA
ATOM      9  C5  GCD d 527      36.835   8.475  28.327  0.00  0.00     0.147 C 
ATOM     10  C2  GCD d 527      37.792  10.379  30.184  0.00  0.00     0.111 C 
ATOM     11  O6A GCD d 527      36.500   6.277  27.663  0.00  0.00    -0.642 OA
ATOM     12  H   GCD d 527      38.454   8.610  31.139  0.00  0.00     0.093 H 
ATOM     13  H   GCD d 527      39.750  10.172  30.137  0.00  0.00     0.210 HD
ATOM     14  H   GCD d 527      37.087   7.019  29.751  0.00  0.00     0.085 H 
ATOM     15  H   GCD d 527      35.680   9.204  31.344  0.00  0.00     0.210 HD
ATOM     16  H   GCD d 527      36.973  11.803  28.773  0.00  0.00     0.134 H 
ATOM     17  H   GCD d 527      37.733  11.007  31.049  0.00  0.00     0.095 H 
ATOM     18  O5  NGK d 526      31.886  12.459  28.777  0.00  0.00    -0.349 OA
ATOM     19  O1  NGK d 526      33.381  13.701  27.627  0.00  0.00    -0.369 OA
ATOM     20  O7  NGK d 526      35.737  13.102  31.983  0.00  0.00    -0.274 OA
ATOM     21  O2S NGK d 526      32.396   9.275  32.507  0.00  0.00    -0.572 OA
ATOM     22  S   NGK d 526      32.644   8.965  30.988  0.00  0.00     0.252 S 
ATOM     23  O6  NGK d 526      31.134   9.322  27.122  0.00  0.00    -0.398 OA
ATOM     24  O4  NGK d 526      32.911  10.405  30.262  0.00  0.00    -0.246 OA
ATOM     25  C8  NGK d 526      36.849  15.000  31.054  0.00  0.00    -0.003 C 
ATOM     26  O3  NGK d 526      35.489  10.767  29.768  0.00  0.00    -0.348 OA
ATOM     27  N   NGK d 526      35.203  13.712  29.867  0.00  0.00    -0.349 N 
ATOM     28  C7  NGK d 526      35.888  13.845  31.010  0.00  0.00     0.214 C 
ATOM     29  O1S NGK d 526      31.551   8.245  30.395  0.00  0.00    -0.572 OA
ATOM     30  C3  NGK d 526      34.542  11.465  28.992  0.00  0.00     0.094 C 
ATOM     31  C6  NGK d 526      30.890  10.330  28.090  0.00  0.00     0.043 C 
ATOM     32  O3S NGK d 526      33.936   8.302  30.872  0.00  0.00    -0.572 OA
ATOM     33  C2  NGK d 526      34.111  12.751  29.703  0.00  0.00     0.087 C 
ATOM     34  C1  NGK d 526      32.952  13.388  28.929  0.00  0.00     0.151 C 
ATOM     35  C4  NGK d 526      33.322  10.547  28.910  0.00  0.00     0.114 C 
ATOM     36  C5  NGK d 526      32.169  11.198  28.141  0.00  0.00     0.090 C 
ATOM     37  H   NGK d 526      32.649  14.105  27.134  0.00  0.00     0.212 HD
ATOM     38  H   NGK d 526      30.357   8.747  27.051  0.00  0.00     0.209 HD
ATOM     39  H   NGK d 526      37.342  15.017  32.003  0.00  0.00     0.040 H 
ATOM     40  H   NGK d 526      36.312  15.915  30.913  0.00  0.00     0.040 H 
ATOM     41  H   NGK d 526      37.575  14.889  30.276  0.00  0.00     0.040 H 
ATOM     42  H   NGK d 526      35.444  14.285  29.105  0.00  0.00     0.163 HD
ATOM     43  H   NGK d 526      34.948  11.720  28.035  0.00  0.00     0.091 H 
ATOM     44  H   NGK d 526      30.703   9.889  29.046  0.00  0.00     0.078 H 
ATOM     45  H   NGK d 526      30.032  10.915  27.835  0.00  0.00     0.078 H 
ATOM     46  H   NGK d 526      33.797  12.483  30.691  0.00  0.00     0.084 H 
ATOM     47  H   NGK d 526      32.633  14.256  29.470  0.00  0.00     0.132 H 
ATOM     48  H   NGK d 526      33.564   9.632  28.411  0.00  0.00     0.093 H 
ATOM     49  H   NGK d 526      32.471  11.322  27.123  0.00  0.00     0.090 H 
ENDROOT
TORSDOF 12
ENDMDL
MODEL 19
REMARK VINA RESULT:      -7.0      3.069      6.317
REMARK  0 active torsions:
REMARK  status: ('A' for Active; 'I' for Inactive)
REMARK       I    between atoms: C3_1  and  O3_15 
REMARK       I    between atoms: O1_3  and  C1_27 
REMARK       I    between atoms: S_6  and  O4_8 
REMARK       I    between atoms: O6_7  and  C6_23 
REMARK       I    between atoms: O4_8  and  C4_29 
REMARK       I    between atoms: O2_9  and  C2_24 
REMARK       I    between atoms: C8_10  and  C7_18 
REMARK       I    between atoms: O3_11  and  C3_20 
REMARK       I    between atoms: O3_11  and  C1_16 
REMARK       I    between atoms: C6_12  and  C5_22 
REMARK       I    between atoms: N_13  and  C2_26 
REMARK       I    between atoms: N_13  and  C7_18 
REMARK       I    between atoms: C6_23  and  C5_30 
ROOT
ATOM      1  C3  GCD d 527      33.380   6.855  29.228  0.00  0.00     0.084 C 
ATOM      2  O2  GCD d 527      35.130   6.734  30.913  0.00  0.00    -0.388 OA
ATOM      3  C6  GCD d 527      35.664   9.082  27.097  0.00  0.00     0.233 C 
ATOM      4  C4  GCD d 527      34.150   7.505  28.103  0.00  0.00    -0.034 C 
ATOM      5  O3  GCD d 527      31.982   7.104  29.043  0.00  0.00    -0.389 OA
ATOM      6  C1  GCD d 527      34.201   8.839  30.604  0.00  0.00     0.165 C 
ATOM      7  O6B GCD d 527      36.374  10.110  27.202  0.00  0.00    -0.642 OA
ATOM      8  O5  GCD d 527      35.221   9.095  29.623  0.00  0.00    -0.311 OA
ATOM      9  C5  GCD d 527      35.005   8.536  28.281  0.00  0.00     0.147 C 
ATOM     10  C2  GCD d 527      33.894   7.358  30.597  0.00  0.00     0.111 C 
ATOM     11  O6A GCD d 527      35.471   8.499  26.008  0.00  0.00    -0.642 OA
ATOM     12  H   GCD d 527      33.533   5.797  29.215  0.00  0.00     0.093 H 
ATOM     13  H   GCD d 527      35.012   5.772  30.928  0.00  0.00     0.210 HD
ATOM     14  H   GCD d 527      34.015   7.143  27.146  0.00  0.00     0.085 H 
ATOM     15  H   GCD d 527      31.819   8.060  29.051  0.00  0.00     0.210 HD
ATOM     16  H   GCD d 527      34.564   9.184  31.549  0.00  0.00     0.134 H 
ATOM     17  H   GCD d 527      33.111   7.132  31.292  0.00  0.00     0.095 H 
ATOM     18  O5  NGK d 526      31.751  13.405  30.787  0.00  0.00    -0.349 OA
ATOM     19  O1  NGK d 526      33.477  13.206  32.230  0.00  0.00    -0.369 OA
ATOM     20  O7  NGK d 526      31.149   8.840  32.865  0.00  0.00    -0.274 OA
ATOM     21  O2S NGK d 526      29.048  10.061  28.373  0.00  0.00    -0.572 OA
ATOM     22  S   NGK d 526      30.467  10.582  27.949  0.00  0.00     0.252 S 
ATOM     23  O6  NGK d 526      32.859  13.944  27.377  0.00  0.00    -0.398 OA
ATOM     24  O4  NGK d 526      31.158  11.188  29.301  0.00  0.00    -0.246 OA
ATOM     25  C8  NGK d 526      32.452   9.022  34.858  0.00  0.00    -0.003 C 
ATOM     26  O3  NGK d 526      32.965   9.518  30.285  0.00  0.00    -0.348 OA
ATOM     27  N   NGK d 526      32.599  10.572  33.027  0.00  0.00    -0.349 N 
ATOM     28  C7  NGK d 526      32.013   9.461  33.489  0.00  0.00     0.214 C 
ATOM     29  O1S NGK d 526      30.396  11.548  26.887  0.00  0.00    -0.572 OA
ATOM     30  C3  NGK d 526      33.066  10.890  30.592  0.00  0.00     0.094 C 
ATOM     31  C6  NGK d 526      31.873  13.923  28.397  0.00  0.00     0.043 C 
ATOM     32  O3S NGK d 526      31.299   9.423  27.654  0.00  0.00    -0.572 OA
ATOM     33  C2  NGK d 526      32.180  11.237  31.792  0.00  0.00     0.087 C 
ATOM     34  C1  NGK d 526      32.167  12.757  31.983  0.00  0.00     0.151 C 
ATOM     35  C4  NGK d 526      32.507  11.626  29.373  0.00  0.00     0.114 C 
ATOM     36  C5  NGK d 526      32.491  13.143  29.580  0.00  0.00     0.090 C 
ATOM     37  H   NGK d 526      33.471  14.168  32.351  0.00  0.00     0.212 HD
ATOM     38  H   NGK d 526      32.517  14.426  26.608  0.00  0.00     0.209 HD
ATOM     39  H   NGK d 526      31.927   8.131  35.132  0.00  0.00     0.040 H 
ATOM     40  H   NGK d 526      32.236   9.795  35.565  0.00  0.00     0.040 H 
ATOM     41  H   NGK d 526      33.504   8.829  34.849  0.00  0.00     0.040 H 
ATOM     42  H   NGK d 526      33.344  10.959  33.540  0.00  0.00     0.163 HD
ATOM     43  H   NGK d 526      34.077  11.155  30.822  0.00  0.00     0.091 H 
ATOM     44  H   NGK d 526      30.990  13.429  28.049  0.00  0.00     0.078 H 
ATOM     45  H   NGK d 526      31.592  14.913  28.687  0.00  0.00     0.078 H 
ATOM     46  H   NGK d 526      31.195  10.879  31.579  0.00  0.00     0.084 H 
ATOM     47  H   NGK d 526      31.503  12.981  32.793  0.00  0.00     0.132 H 
ATOM     48  H   NGK d 526      33.096  11.427  28.503  0.00  0.00     0.093 H 
ATOM     49  H   NGK d 526      33.503  13.483  29.648  0.00  0.00     0.090 H 
ENDROOT
TORSDOF 12
ENDMDL
MODEL 20
REMARK VINA RESULT:      -7.0      2.863      4.941
REMARK  0 active torsions:
REMARK  status: ('A' for Active; 'I' for Inactive)
REMARK       I    between atoms: C3_1  and  O3_15 
REMARK       I    between atoms: O1_3  and  C1_27 
REMARK       I    between atoms: S_6  and  O4_8 
REMARK       I    between atoms: O6_7  and  C6_23 
REMARK       I    between atoms: O4_8  and  C4_29 
REMARK       I    between atoms: O2_9  and  C2_24 
REMARK       I    between atoms: C8_10  and  C7_18 
REMARK       I    between atoms: O3_11  and  C3_20 
REMARK       I    between atoms: O3_11  and  C1_16 
REMARK       I    between atoms: C6_12  and  C5_22 
REMARK       I    between atoms: N_13  and  C2_26 
REMARK       I    between atoms: N_13  and  C7_18 
REMARK       I    between atoms: C6_23  and  C5_30 
ROOT
ATOM      1  C3  GCD d 527      35.712  10.462  26.937  0.00  0.00     0.084 C 
ATOM      2  O2  GCD d 527      34.190   9.876  25.132  0.00  0.00    -0.388 OA
ATOM      3  C6  GCD d 527      37.004   6.850  26.946  0.00  0.00     0.233 C 
ATOM      4  C4  GCD d 527      36.564   9.216  26.972  0.00  0.00    -0.034 C 
ATOM      5  O3  GCD d 527      35.783  11.113  28.211  0.00  0.00    -0.389 OA
ATOM      6  C1  GCD d 527      33.761   8.835  27.162  0.00  0.00     0.165 C 
ATOM      7  O6B GCD d 527      36.570   5.675  26.976  0.00  0.00    -0.642 OA
ATOM      8  O5  GCD d 527      34.614   7.757  26.738  0.00  0.00    -0.311 OA
ATOM      9  C5  GCD d 527      36.062   7.965  26.874  0.00  0.00     0.147 C 
ATOM     10  C2  GCD d 527      34.261  10.115  26.531  0.00  0.00     0.111 C 
ATOM     11  O6A GCD d 527      38.222   7.125  26.993  0.00  0.00    -0.642 OA
ATOM     12  H   GCD d 527      36.081  11.141  26.198  0.00  0.00     0.093 H 
ATOM     13  H   GCD d 527      34.497  10.662  24.654  0.00  0.00     0.210 HD
ATOM     14  H   GCD d 527      37.585   9.325  27.074  0.00  0.00     0.085 H 
ATOM     15  H   GCD d 527      35.452  10.514  28.899  0.00  0.00     0.210 HD
ATOM     16  H   GCD d 527      32.760   8.591  26.874  0.00  0.00     0.134 H 
ATOM     17  H   GCD d 527      33.671  10.949  26.852  0.00  0.00     0.095 H 
ATOM     18  O5  NGK d 526      32.022   7.066  31.715  0.00  0.00    -0.349 OA
ATOM     19  O1  NGK d 526      30.754   6.491  29.937  0.00  0.00    -0.369 OA
ATOM     20  O7  NGK d 526      31.589  11.326  29.034  0.00  0.00    -0.274 OA
ATOM     21  O2S NGK d 526      35.379  10.615  32.381  0.00  0.00    -0.572 OA
ATOM     22  S   NGK d 526      35.624   9.233  31.679  0.00  0.00     0.252 S 
ATOM     23  O6  NGK d 526      35.068   5.112  31.928  0.00  0.00    -0.398 OA
ATOM     24  O4  NGK d 526      34.157   8.693  31.200  0.00  0.00    -0.246 OA
ATOM     25  C8  NGK d 526      29.669  10.875  27.687  0.00  0.00    -0.003 C 
ATOM     26  O3  NGK d 526      33.816   9.032  28.594  0.00  0.00    -0.348 OA
ATOM     27  N   NGK d 526      30.874   9.181  28.891  0.00  0.00    -0.349 N 
ATOM     28  C7  NGK d 526      30.804  10.483  28.590  0.00  0.00     0.214 C 
ATOM     29  O1S NGK d 526      36.299   8.298  32.539  0.00  0.00    -0.572 OA
ATOM     30  C3  NGK d 526      33.068   8.038  29.256  0.00  0.00     0.094 C 
ATOM     31  C6  NGK d 526      34.101   6.005  32.456  0.00  0.00     0.043 C 
ATOM     32  O3S NGK d 526      36.303   9.486  30.415  0.00  0.00    -0.572 OA
ATOM     33  C2  NGK d 526      31.809   8.643  29.882  0.00  0.00     0.087 C 
ATOM     34  C1  NGK d 526      31.118   7.583  30.746  0.00  0.00     0.151 C 
ATOM     35  C4  NGK d 526      33.961   7.541  30.393  0.00  0.00     0.114 C 
ATOM     36  C5  NGK d 526      33.257   6.488  31.253  0.00  0.00     0.090 C 
ATOM     37  H   NGK d 526      30.316   5.818  30.482  0.00  0.00     0.212 HD
ATOM     38  H   NGK d 526      35.626   4.778  32.647  0.00  0.00     0.209 HD
ATOM     39  H   NGK d 526      29.702  11.929  27.510  0.00  0.00     0.040 H 
ATOM     40  H   NGK d 526      28.740  10.621  28.153  0.00  0.00     0.040 H 
ATOM     41  H   NGK d 526      29.756  10.353  26.758  0.00  0.00     0.040 H 
ATOM     42  H   NGK d 526      30.272   8.557  28.427  0.00  0.00     0.163 HD
ATOM     43  H   NGK d 526      32.777   7.265  28.575  0.00  0.00     0.091 H 
ATOM     44  H   NGK d 526      34.582   6.836  32.928  0.00  0.00     0.078 H 
ATOM     45  H   NGK d 526      33.491   5.528  33.193  0.00  0.00     0.078 H 
ATOM     46  H   NGK d 526      32.116   9.473  30.484  0.00  0.00     0.084 H 
ATOM     47  H   NGK d 526      30.271   8.040  31.214  0.00  0.00     0.132 H 
ATOM     48  H   NGK d 526      34.856   7.097  30.011  0.00  0.00     0.093 H 
ATOM     49  H   NGK d 526      33.093   5.619  30.652  0.00  0.00     0.090 H 
ENDROOT
TORSDOF 12
ENDMDL
MODEL 21
REMARK VINA RESULT:      -7.0      2.601      5.558
REMARK  0 active torsions:
REMARK  status: ('A' for Active; 'I' for Inactive)
REMARK       I    between atoms: C3_1  and  O3_15 
REMARK       I    between atoms: O1_3  and  C1_27 
REMARK       I    between atoms: S_6  and  O4_8 
REMARK       I    between atoms: O6_7  and  C6_23 
REMARK       I    between atoms: O4_8  and  C4_29 
REMARK       I    between atoms: O2_9  and  C2_24 
REMARK       I    between atoms: C8_10  and  C7_18 
REMARK       I    between atoms: O3_11  and  C3_20 
REMARK       I    between atoms: O3_11  and  C1_16 
REMARK       I    between atoms: C6_12  and  C5_22 
REMARK       I    between atoms: N_13  and  C2_26 
REMARK       I    between atoms: N_13  and  C7_18 
REMARK       I    between atoms: C6_23  and  C5_30 
ROOT
ATOM      1  C3  GCD d 527      32.633  12.043  26.882  0.00  0.00     0.084 C 
ATOM      2  O2  GCD d 527      30.578  10.821  27.330  0.00  0.00    -0.388 OA
ATOM      3  C6  GCD d 527      34.540   8.714  26.847  0.00  0.00     0.233 C 
ATOM      4  C4  GCD d 527      33.554  10.890  26.558  0.00  0.00    -0.034 C 
ATOM      5  O3  GCD d 527      33.417  13.162  27.309  0.00  0.00    -0.389 OA
ATOM      6  C1  GCD d 527      32.163  10.742  29.024  0.00  0.00     0.165 C 
ATOM      7  O6B GCD d 527      34.676   7.678  27.539  0.00  0.00    -0.642 OA
ATOM      8  O5  GCD d 527      32.689   9.551  28.414  0.00  0.00    -0.311 OA
ATOM      9  C5  GCD d 527      33.580   9.735  27.259  0.00  0.00     0.147 C 
ATOM     10  C2  GCD d 527      31.584  11.619  27.936  0.00  0.00     0.111 C 
ATOM     11  O6A GCD d 527      35.207   8.932  25.813  0.00  0.00    -0.642 OA
ATOM     12  H   GCD d 527      32.087  12.334  26.010  0.00  0.00     0.093 H 
ATOM     13  H   GCD d 527      30.156  11.321  26.614  0.00  0.00     0.210 HD
ATOM     14  H   GCD d 527      34.198  10.990  25.758  0.00  0.00     0.085 H 
ATOM     15  H   GCD d 527      33.922  12.920  28.102  0.00  0.00     0.210 HD
ATOM     16  H   GCD d 527      31.435  10.442  29.748  0.00  0.00     0.134 H 
ATOM     17  H   GCD d 527      31.213  12.535  28.348  0.00  0.00     0.095 H 
ATOM     18  O5  NGK d 526      35.079  11.111  33.295  0.00  0.00    -0.349 OA
ATOM     19  O1  NGK d 526      33.191   9.899  33.549  0.00  0.00    -0.369 OA
ATOM     20  O7  NGK d 526      31.488  13.875  31.062  0.00  0.00    -0.274 OA
ATOM     21  O2S NGK d 526      36.437  14.469  29.950  0.00  0.00    -0.572 OA
ATOM     22  S   NGK d 526      36.495  12.911  29.770  0.00  0.00     0.252 S 
ATOM     23  O6  NGK d 526      37.650   9.298  31.492  0.00  0.00    -0.398 OA
ATOM     24  O4  NGK d 526      35.443  12.283  30.852  0.00  0.00    -0.246 OA
ATOM     25  C8  NGK d 526      29.497  12.984  32.033  0.00  0.00    -0.003 C 
ATOM     26  O3  NGK d 526      33.197  11.516  29.672  0.00  0.00    -0.348 OA
ATOM     27  N   NGK d 526      31.637  11.898  32.159  0.00  0.00    -0.349 N 
ATOM     28  C7  NGK d 526      30.962  12.958  31.697  0.00  0.00     0.214 C 
ATOM     29  O1S NGK d 526      37.826  12.394  29.934  0.00  0.00    -0.572 OA
ATOM     30  C3  NGK d 526      33.561  10.921  30.897  0.00  0.00     0.094 C 
ATOM     31  C6  NGK d 526      37.190  10.370  32.299  0.00  0.00     0.043 C 
ATOM     32  O3S NGK d 526      35.876  12.585  28.492  0.00  0.00    -0.572 OA
ATOM     33  C2  NGK d 526      33.094  11.785  32.072  0.00  0.00     0.087 C 
ATOM     34  C1  NGK d 526      33.663  11.212  33.374  0.00  0.00     0.151 C 
ATOM     35  C4  NGK d 526      35.090  10.908  30.909  0.00  0.00     0.114 C 
ATOM     36  C5  NGK d 526      35.647  10.341  32.218  0.00  0.00     0.090 C 
ATOM     37  H   NGK d 526      33.549   9.534  34.373  0.00  0.00     0.212 HD
ATOM     38  H   NGK d 526      38.619   9.272  31.509  0.00  0.00     0.209 HD
ATOM     39  H   NGK d 526      29.052  13.865  31.620  0.00  0.00     0.040 H 
ATOM     40  H   NGK d 526      29.375  12.987  33.096  0.00  0.00     0.040 H 
ATOM     41  H   NGK d 526      29.022  12.119  31.621  0.00  0.00     0.040 H 
ATOM     42  H   NGK d 526      31.132  11.164  32.576  0.00  0.00     0.163 HD
ATOM     43  H   NGK d 526      33.127   9.948  30.991  0.00  0.00     0.091 H 
ATOM     44  H   NGK d 526      37.564  11.301  31.927  0.00  0.00     0.078 H 
ATOM     45  H   NGK d 526      37.529  10.270  33.309  0.00  0.00     0.078 H 
ATOM     46  H   NGK d 526      33.462  12.777  31.908  0.00  0.00     0.084 H 
ATOM     47  H   NGK d 526      33.367  11.859  34.175  0.00  0.00     0.132 H 
ATOM     48  H   NGK d 526      35.474  10.308  30.111  0.00  0.00     0.093 H 
ATOM     49  H   NGK d 526      35.376   9.308  32.278  0.00  0.00     0.090 H 
ENDROOT
TORSDOF 12
ENDMDL
MODEL 22
REMARK VINA RESULT:      -6.9      2.364      5.050
REMARK  0 active torsions:
REMARK  status: ('A' for Active; 'I' for Inactive)
REMARK       I    between atoms: C3_1  and  O3_15 
REMARK       I    between atoms: O1_3  and  C1_27 
REMARK       I    between atoms: S_6  and  O4_8 
REMARK       I    between atoms: O6_7  and  C6_23 
REMARK       I    between atoms: O4_8  and  C4_29 
REMARK       I    between atoms: O2_9  and  C2_24 
REMARK       I    between atoms: C8_10  and  C7_18 
REMARK       I    between atoms: O3_11  and  C3_20 
REMARK       I    between atoms: O3_11  and  C1_16 
REMARK       I    between atoms: C6_12  and  C5_22 
REMARK       I    between atoms: N_13  and  C2_26 
REMARK       I    between atoms: N_13  and  C7_18 
REMARK       I    between atoms: C6_23  and  C5_30 
ROOT
ATOM      1  C3  GCD d 527      36.567  12.942  30.594  0.00  0.00     0.084 C 
ATOM      2  O2  GCD d 527      37.676  11.099  31.730  0.00  0.00    -0.388 OA
ATOM      3  C6  GCD d 527      33.633  12.613  33.044  0.00  0.00     0.233 C 
ATOM      4  C4  GCD d 527      35.436  13.199  31.562  0.00  0.00    -0.034 C 
ATOM      5  O3  GCD d 527      36.198  13.437  29.302  0.00  0.00    -0.389 OA
ATOM      6  C1  GCD d 527      35.715  10.539  30.622  0.00  0.00     0.165 C 
ATOM      7  O6B GCD d 527      32.867  11.739  33.514  0.00  0.00    -0.642 OA
ATOM      8  O5  GCD d 527      35.002  10.807  31.842  0.00  0.00    -0.311 OA
ATOM      9  C5  GCD d 527      34.714  12.216  32.145  0.00  0.00     0.147 C 
ATOM     10  C2  GCD d 527      36.929  11.439  30.571  0.00  0.00     0.111 C 
ATOM     11  O6A GCD d 527      33.507  13.831  33.294  0.00  0.00    -0.642 OA
ATOM     12  H   GCD d 527      37.447  13.463  30.910  0.00  0.00     0.093 H 
ATOM     13  H   GCD d 527      38.479  11.641  31.767  0.00  0.00     0.210 HD
ATOM     14  H   GCD d 527      35.202  14.177  31.791  0.00  0.00     0.085 H 
ATOM     15  H   GCD d 527      35.400  12.978  28.996  0.00  0.00     0.210 HD
ATOM     16  H   GCD d 527      35.967   9.500  30.614  0.00  0.00     0.134 H 
ATOM     17  H   GCD d 527      37.468  11.294  29.657  0.00  0.00     0.095 H 
ATOM     18  O5  NGK d 526      31.914   8.816  27.544  0.00  0.00    -0.349 OA
ATOM     19  O1  NGK d 526      32.952   7.210  28.745  0.00  0.00    -0.369 OA
ATOM     20  O7  NGK d 526      36.835   9.849  27.059  0.00  0.00    -0.274 OA
ATOM     21  O2S NGK d 526      33.242  13.396  26.292  0.00  0.00    -0.572 OA
ATOM     22  S   NGK d 526      32.635  12.956  27.671  0.00  0.00     0.252 S 
ATOM     23  O6  NGK d 526      29.625  10.779  29.556  0.00  0.00    -0.398 OA
ATOM     24  O4  NGK d 526      32.909  11.349  27.802  0.00  0.00    -0.246 OA
ATOM     25  C8  NGK d 526      37.843   7.762  27.631  0.00  0.00    -0.003 C 
ATOM     26  O3  NGK d 526      34.920  10.852  29.455  0.00  0.00    -0.348 OA
ATOM     27  N   NGK d 526      35.546   8.299  28.092  0.00  0.00    -0.349 N 
ATOM     28  C7  NGK d 526      36.701   8.737  27.576  0.00  0.00     0.214 C 
ATOM     29  O1S NGK d 526      31.240  13.286  27.781  0.00  0.00    -0.572 OA
ATOM     30  C3  NGK d 526      33.953   9.850  29.236  0.00  0.00     0.094 C 
ATOM     31  C6  NGK d 526      30.165  10.345  28.319  0.00  0.00     0.043 C 
ATOM     32  O3S NGK d 526      33.471  13.512  28.726  0.00  0.00    -0.572 OA
ATOM     33  C2  NGK d 526      34.292   9.045  27.978  0.00  0.00     0.087 C 
ATOM     34  C1  NGK d 526      33.133   8.092  27.665  0.00  0.00     0.151 C 
ATOM     35  C4  NGK d 526      32.643  10.593  28.975  0.00  0.00     0.114 C 
ATOM     36  C5  NGK d 526      31.495   9.632  28.655  0.00  0.00     0.090 C 
ATOM     37  H   NGK d 526      32.219   6.605  28.549  0.00  0.00     0.212 HD
ATOM     38  H   NGK d 526      28.784  11.236  29.399  0.00  0.00     0.209 HD
ATOM     39  H   NGK d 526      38.713   8.206  27.196  0.00  0.00     0.040 H 
ATOM     40  H   NGK d 526      37.583   6.878  27.087  0.00  0.00     0.040 H 
ATOM     41  H   NGK d 526      38.044   7.507  28.650  0.00  0.00     0.040 H 
ATOM     42  H   NGK d 526      35.541   7.439  28.569  0.00  0.00     0.163 HD
ATOM     43  H   NGK d 526      33.904   9.181  30.070  0.00  0.00     0.091 H 
ATOM     44  H   NGK d 526      30.345  11.182  27.678  0.00  0.00     0.078 H 
ATOM     45  H   NGK d 526      29.490   9.690  27.808  0.00  0.00     0.078 H 
ATOM     46  H   NGK d 526      34.429   9.741  27.178  0.00  0.00     0.084 H 
ATOM     47  H   NGK d 526      33.367   7.578  26.756  0.00  0.00     0.132 H 
ATOM     48  H   NGK d 526      32.352  11.168  29.829  0.00  0.00     0.093 H 
ATOM     49  H   NGK d 526      31.293   9.047  29.527  0.00  0.00     0.090 H 
ENDROOT
TORSDOF 12
ENDMDL
MODEL 23
REMARK VINA RESULT:      -6.9      3.622      6.559
REMARK  0 active torsions:
REMARK  status: ('A' for Active; 'I' for Inactive)
REMARK       I    between atoms: C3_1  and  O3_15 
REMARK       I    between atoms: O1_3  and  C1_27 
REMARK       I    between atoms: S_6  and  O4_8 
REMARK       I    between atoms: O6_7  and  C6_23 
REMARK       I    between atoms: O4_8  and  C4_29 
REMARK       I    between atoms: O2_9  and  C2_24 
REMARK       I    between atoms: C8_10  and  C7_18 
REMARK       I    between atoms: O3_11  and  C3_20 
REMARK       I    between atoms: O3_11  and  C1_16 
REMARK       I    between atoms: C6_12  and  C5_22 
REMARK       I    between atoms: N_13  and  C2_26 
REMARK       I    between atoms: N_13  and  C7_18 
REMARK       I    between atoms: C6_23  and  C5_30 
ROOT
ATOM      1  C3  GCD d 527      34.867   7.186  32.650  0.00  0.00     0.084 C 
ATOM      2  O2  GCD d 527      34.587   4.775  32.486  0.00  0.00    -0.388 OA
ATOM      3  C6  GCD d 527      31.662   7.643  30.591  0.00  0.00     0.233 C 
ATOM      4  C4  GCD d 527      33.533   7.639  32.105  0.00  0.00    -0.034 C 
ATOM      5  O3  GCD d 527      35.821   8.243  32.492  0.00  0.00    -0.389 OA
ATOM      6  C1  GCD d 527      35.024   5.857  30.480  0.00  0.00     0.165 C 
ATOM      7  O6B GCD d 527      31.139   7.239  29.527  0.00  0.00    -0.642 OA
ATOM      8  O5  GCD d 527      33.604   5.993  30.296  0.00  0.00    -0.311 OA
ATOM      9  C5  GCD d 527      32.944   7.088  31.021  0.00  0.00     0.147 C 
ATOM     10  C2  GCD d 527      35.317   5.876  31.963  0.00  0.00     0.111 C 
ATOM     11  O6A GCD d 527      31.145   8.526  31.310  0.00  0.00    -0.642 OA
ATOM     12  H   GCD d 527      34.783   6.969  33.695  0.00  0.00     0.093 H 
ATOM     13  H   GCD d 527      34.726   4.721  33.444  0.00  0.00     0.210 HD
ATOM     14  H   GCD d 527      33.046   8.411  32.586  0.00  0.00     0.085 H 
ATOM     15  H   GCD d 527      35.913   8.457  31.550  0.00  0.00     0.210 HD
ATOM     16  H   GCD d 527      35.328   4.947  30.007  0.00  0.00     0.134 H 
ATOM     17  H   GCD d 527      36.371   5.813  32.141  0.00  0.00     0.095 H 
ATOM     18  O5  NGK d 526      36.850   7.828  26.045  0.00  0.00    -0.349 OA
ATOM     19  O1  NGK d 526      36.437   5.608  25.988  0.00  0.00    -0.369 OA
ATOM     20  O7  NGK d 526      38.815   6.061  30.350  0.00  0.00    -0.274 OA
ATOM     21  O2S NGK d 526      37.544  10.974  29.777  0.00  0.00    -0.572 OA
ATOM     22  S   NGK d 526      36.158  10.464  29.245  0.00  0.00     0.252 S 
ATOM     23  O6  NGK d 526      33.812   9.799  25.867  0.00  0.00    -0.398 OA
ATOM     24  O4  NGK d 526      36.456   9.067  28.449  0.00  0.00    -0.246 OA
ATOM     25  C8  NGK d 526      39.062   3.735  29.868  0.00  0.00    -0.003 C 
ATOM     26  O3  NGK d 526      35.750   6.967  29.902  0.00  0.00    -0.348 OA
ATOM     27  N   NGK d 526      37.727   5.231  28.544  0.00  0.00    -0.349 N 
ATOM     28  C7  NGK d 526      38.517   5.113  29.618  0.00  0.00     0.214 C 
ATOM     29  O1S NGK d 526      35.502  11.439  28.417  0.00  0.00    -0.572 OA
ATOM     30  C3  NGK d 526      35.811   6.836  28.500  0.00  0.00     0.094 C 
ATOM     31  C6  NGK d 526      35.221   9.642  25.813  0.00  0.00     0.043 C 
ATOM     32  O3S NGK d 526      35.375  10.021  30.391  0.00  0.00    -0.572 OA
ATOM     33  C2  NGK d 526      37.241   6.522  28.053  0.00  0.00     0.087 C 
ATOM     34  C1  NGK d 526      37.312   6.570  26.523  0.00  0.00     0.151 C 
ATOM     35  C4  NGK d 526      35.441   8.212  27.943  0.00  0.00     0.114 C 
ATOM     36  C5  NGK d 526      35.523   8.250  26.415  0.00  0.00     0.090 C 
ATOM     37  H   NGK d 526      36.480   5.636  25.019  0.00  0.00     0.212 HD
ATOM     38  H   NGK d 526      33.569  10.663  25.499  0.00  0.00     0.209 HD
ATOM     39  H   NGK d 526      39.677   3.748  30.744  0.00  0.00     0.040 H 
ATOM     40  H   NGK d 526      39.646   3.425  29.027  0.00  0.00     0.040 H 
ATOM     41  H   NGK d 526      38.252   3.052  30.012  0.00  0.00     0.040 H 
ATOM     42  H   NGK d 526      37.461   4.415  28.064  0.00  0.00     0.163 HD
ATOM     43  H   NGK d 526      35.164   6.053  28.162  0.00  0.00     0.091 H 
ATOM     44  H   NGK d 526      35.703  10.406  26.385  0.00  0.00     0.078 H 
ATOM     45  H   NGK d 526      35.582   9.719  24.809  0.00  0.00     0.078 H 
ATOM     46  H   NGK d 526      37.882   7.265  28.480  0.00  0.00     0.084 H 
ATOM     47  H   NGK d 526      38.329   6.399  26.236  0.00  0.00     0.132 H 
ATOM     48  H   NGK d 526      34.443   8.480  28.218  0.00  0.00     0.093 H 
ATOM     49  H   NGK d 526      34.771   7.599  26.022  0.00  0.00     0.090 H 
ENDROOT
TORSDOF 12
ENDMDL
MODEL 24
REMARK VINA RESULT:      -6.9      2.229      5.438
REMARK  0 active torsions:
REMARK  status: ('A' for Active; 'I' for Inactive)
REMARK       I    between atoms: C3_1  and  O3_15 
REMARK       I    between atoms: O1_3  and  C1_27 
REMARK       I    between atoms: S_6  and  O4_8 
REMARK       I    between atoms: O6_7  and  C6_23 
REMARK       I    between atoms: O4_8  and  C4_29 
REMARK       I    between atoms: O2_9  and  C2_24 
REMARK       I    between atoms: C8_10  and  C7_18 
REMARK       I    between atoms: O3_11  and  C3_20 
REMARK       I    between atoms: O3_11  and  C1_16 
REMARK       I    between atoms: C6_12  and  C5_22 
REMARK       I    between atoms: N_13  and  C2_26 
REMARK       I    between atoms: N_13  and  C7_18 
REMARK       I    between atoms: C6_23  and  C5_30 
ROOT
ATOM      1  C3  GCD d 527      34.008   8.258  28.392  0.00  0.00     0.084 C 
ATOM      2  O2  GCD d 527      31.576   8.255  28.421  0.00  0.00    -0.388 OA
ATOM      3  C6  GCD d 527      33.998   8.160  32.228  0.00  0.00     0.233 C 
ATOM      4  C4  GCD d 527      34.284   7.958  29.847  0.00  0.00    -0.034 C 
ATOM      5  O3  GCD d 527      35.147   8.917  27.827  0.00  0.00    -0.389 OA
ATOM      6  C1  GCD d 527      32.571  10.153  29.313  0.00  0.00     0.165 C 
ATOM      7  O6B GCD d 527      33.476   8.750  33.202  0.00  0.00    -0.642 OA
ATOM      8  O5  GCD d 527      32.546   9.507  30.598  0.00  0.00    -0.311 OA
ATOM      9  C5  GCD d 527      33.608   8.528  30.869  0.00  0.00     0.147 C 
ATOM     10  C2  GCD d 527      32.712   9.089  28.247  0.00  0.00     0.111 C 
ATOM     11  O6A GCD d 527      34.864   7.269  32.358  0.00  0.00    -0.642 OA
ATOM     12  H   GCD d 527      33.849   7.349  27.852  0.00  0.00     0.093 H 
ATOM     13  H   GCD d 527      31.595   7.541  27.766  0.00  0.00     0.210 HD
ATOM     14  H   GCD d 527      35.029   7.281  30.072  0.00  0.00     0.085 H 
ATOM     15  H   GCD d 527      35.310   9.746  28.303  0.00  0.00     0.210 HD
ATOM     16  H   GCD d 527      31.670  10.722  29.217  0.00  0.00     0.134 H 
ATOM     17  H   GCD d 527      32.770   9.534  27.276  0.00  0.00     0.095 H 
ATOM     18  O5  NGK d 526      34.442  14.833  30.529  0.00  0.00    -0.349 OA
ATOM     19  O1  NGK d 526      32.193  14.666  30.629  0.00  0.00    -0.369 OA
ATOM     20  O7  NGK d 526      33.162  12.387  26.299  0.00  0.00    -0.274 OA
ATOM     21  O2S NGK d 526      37.870  12.111  28.259  0.00  0.00    -0.572 OA
ATOM     22  S   NGK d 526      37.185  11.776  29.631  0.00  0.00     0.252 S 
ATOM     23  O6  NGK d 526      36.070  13.260  33.360  0.00  0.00    -0.398 OA
ATOM     24  O4  NGK d 526      35.781  12.613  29.661  0.00  0.00    -0.246 OA
ATOM     25  C8  NGK d 526      30.850  12.942  26.081  0.00  0.00    -0.003 C 
ATOM     26  O3  NGK d 526      33.712  11.030  29.175  0.00  0.00    -0.348 OA
ATOM     27  N   NGK d 526      32.112  13.276  28.098  0.00  0.00    -0.349 N 
ATOM     28  C7  NGK d 526      32.144  12.832  26.836  0.00  0.00     0.214 C 
ATOM     29  O1S NGK d 526      38.033  12.086  30.750  0.00  0.00    -0.572 OA
ATOM     30  C3  NGK d 526      33.502  12.226  29.891  0.00  0.00     0.094 C 
ATOM     31  C6  NGK d 526      36.058  14.097  32.216  0.00  0.00     0.043 C 
ATOM     32  O3S NGK d 526      36.734  10.392  29.581  0.00  0.00    -0.572 OA
ATOM     33  C2  NGK d 526      33.312  13.401  28.928  0.00  0.00     0.087 C 
ATOM     34  C1  NGK d 526      33.273  14.706  29.729  0.00  0.00     0.151 C 
ATOM     35  C4  NGK d 526      34.794  12.469  30.672  0.00  0.00     0.114 C 
ATOM     36  C5  NGK d 526      34.746  13.779  31.462  0.00  0.00     0.090 C 
ATOM     37  H   NGK d 526      32.165  15.491  31.138  0.00  0.00     0.212 HD
ATOM     38  H   NGK d 526      36.879  13.422  33.871  0.00  0.00     0.209 HD
ATOM     39  H   NGK d 526      30.981  12.562  25.090  0.00  0.00     0.040 H 
ATOM     40  H   NGK d 526      30.550  13.968  26.034  0.00  0.00     0.040 H 
ATOM     41  H   NGK d 526      30.095  12.373  26.583  0.00  0.00     0.040 H 
ATOM     42  H   NGK d 526      31.244  13.530  28.486  0.00  0.00     0.163 HD
ATOM     43  H   NGK d 526      32.636  12.148  30.515  0.00  0.00     0.091 H 
ATOM     44  H   NGK d 526      36.902  13.888  31.593  0.00  0.00     0.078 H 
ATOM     45  H   NGK d 526      36.110  15.130  32.488  0.00  0.00     0.078 H 
ATOM     46  H   NGK d 526      34.143  13.401  28.254  0.00  0.00     0.084 H 
ATOM     47  H   NGK d 526      33.191  15.516  29.034  0.00  0.00     0.132 H 
ATOM     48  H   NGK d 526      34.973  11.679  31.371  0.00  0.00     0.093 H 
ATOM     49  H   NGK d 526      33.996  13.687  32.220  0.00  0.00     0.090 H 
ENDROOT
TORSDOF 12
ENDMDL
MODEL 25
REMARK VINA RESULT:      -6.8      2.601      4.891
REMARK  0 active torsions:
REMARK  status: ('A' for Active; 'I' for Inactive)
REMARK       I    between atoms: C3_1  and  O3_15 
REMARK       I    between atoms: O1_3  and  C1_27 
REMARK       I    between atoms: S_6  and  O4_8 
REMARK       I    between atoms: O6_7  and  C6_23 
REMARK       I    between atoms: O4_8  and  C4_29 
REMARK       I    between atoms: O2_9  and  C2_24 
REMARK       I    between atoms: C8_10  and  C7_18 
REMARK       I    between atoms: O3_11  and  C3_20 
REMARK       I    between atoms: O3_11  and  C1_16 
REMARK       I    between atoms: C6_12  and  C5_22 
REMARK       I    between atoms: N_13  and  C2_26 
REMARK       I    between atoms: N_13  and  C7_18 
REMARK       I    between atoms: C6_23  and  C5_30 
ROOT
ATOM      1  C3  GCD d 527      31.032   8.964  28.803  0.00  0.00     0.084 C 
ATOM      2  O2  GCD d 527      30.082  10.364  30.551  0.00  0.00    -0.388 OA
ATOM      3  C6  GCD d 527      33.076   7.115  31.471  0.00  0.00     0.233 C 
ATOM      4  C4  GCD d 527      31.725   7.925  29.652  0.00  0.00    -0.034 C 
ATOM      5  O3  GCD d 527      31.653   9.004  27.513  0.00  0.00    -0.389 OA
ATOM      6  C1  GCD d 527      32.361  10.633  30.200  0.00  0.00     0.165 C 
ATOM      7  O6B GCD d 527      33.841   7.357  32.434  0.00  0.00    -0.642 OA
ATOM      8  O5  GCD d 527      32.588   9.618  31.193  0.00  0.00    -0.311 OA
ATOM      9  C5  GCD d 527      32.440   8.221  30.760  0.00  0.00     0.147 C 
ATOM     10  C2  GCD d 527      31.048  10.340  29.510  0.00  0.00     0.111 C 
ATOM     11  O6A GCD d 527      32.838   5.956  31.068  0.00  0.00    -0.642 OA
ATOM     12  H   GCD d 527      30.004   8.703  28.667  0.00  0.00     0.093 H 
ATOM     13  H   GCD d 527      29.204  10.183  30.182  0.00  0.00     0.210 HD
ATOM     14  H   GCD d 527      31.648   6.935  29.371  0.00  0.00     0.085 H 
ATOM     15  H   GCD d 527      32.589   9.240  27.612  0.00  0.00     0.210 HD
ATOM     16  H   GCD d 527      32.368  11.581  30.696  0.00  0.00     0.134 H 
ATOM     17  H   GCD d 527      30.860  11.055  28.736  0.00  0.00     0.095 H 
ATOM     18  O5  NGK d 526      37.206  12.094  29.070  0.00  0.00    -0.349 OA
ATOM     19  O1  NGK d 526      36.247  13.245  30.760  0.00  0.00    -0.369 OA
ATOM     20  O7  NGK d 526      32.566  13.184  27.393  0.00  0.00    -0.274 OA
ATOM     21  O2S NGK d 526      35.312   9.346  25.440  0.00  0.00    -0.572 OA
ATOM     22  S   NGK d 526      35.555   8.881  26.920  0.00  0.00     0.252 S 
ATOM     23  O6  NGK d 526      38.262   8.778  30.084  0.00  0.00    -0.398 OA
ATOM     24  O4  NGK d 526      35.629  10.241  27.823  0.00  0.00    -0.246 OA
ATOM     25  C8  NGK d 526      31.937  15.000  28.810  0.00  0.00    -0.003 C 
ATOM     26  O3  NGK d 526      33.380  10.618  29.174  0.00  0.00    -0.348 OA
ATOM     27  N   NGK d 526      33.798  13.547  29.260  0.00  0.00    -0.349 N 
ATOM     28  C7  NGK d 526      32.787  13.821  28.426  0.00  0.00     0.214 C 
ATOM     29  O1S NGK d 526      36.736   8.072  27.048  0.00  0.00    -0.572 OA
ATOM     30  C3  NGK d 526      34.569  11.202  29.654  0.00  0.00     0.094 C 
ATOM     31  C6  NGK d 526      38.239   9.877  29.187  0.00  0.00     0.043 C 
ATOM     32  O3S NGK d 526      34.334   8.245  27.395  0.00  0.00    -0.572 OA
ATOM     33  C2  NGK d 526      34.823  12.545  28.963  0.00  0.00     0.087 C 
ATOM     34  C1  NGK d 526      36.207  13.063  29.366  0.00  0.00     0.151 C 
ATOM     35  C4  NGK d 526      35.691  10.248  29.243  0.00  0.00     0.114 C 
ATOM     36  C5  NGK d 526      37.069  10.780  29.643  0.00  0.00     0.090 C 
ATOM     37  H   NGK d 526      37.123  13.573  31.018  0.00  0.00     0.212 HD
ATOM     38  H   NGK d 526      38.984   8.177  29.839  0.00  0.00     0.209 HD
ATOM     39  H   NGK d 526      31.164  15.133  28.083  0.00  0.00     0.040 H 
ATOM     40  H   NGK d 526      32.545  15.880  28.849  0.00  0.00     0.040 H 
ATOM     41  H   NGK d 526      31.499  14.826  29.770  0.00  0.00     0.040 H 
ATOM     42  H   NGK d 526      33.855  14.041  30.109  0.00  0.00     0.163 HD
ATOM     43  H   NGK d 526      34.514  11.363  30.711  0.00  0.00     0.091 H 
ATOM     44  H   NGK d 526      38.076   9.536  28.187  0.00  0.00     0.078 H 
ATOM     45  H   NGK d 526      39.167  10.407  29.198  0.00  0.00     0.078 H 
ATOM     46  H   NGK d 526      34.780  12.376  27.907  0.00  0.00     0.084 H 
ATOM     47  H   NGK d 526      36.385  13.974  28.833  0.00  0.00     0.132 H 
ATOM     48  H   NGK d 526      35.569   9.291  29.706  0.00  0.00     0.093 H 
ATOM     49  H   NGK d 526      37.124  10.801  30.711  0.00  0.00     0.090 H 
ENDROOT
TORSDOF 12
ENDMDL
MODEL 26
REMARK VINA RESULT:      -6.8      2.288      5.723
REMARK  0 active torsions:
REMARK  status: ('A' for Active; 'I' for Inactive)
REMARK       I    between atoms: C3_1  and  O3_15 
REMARK       I    between atoms: O1_3  and  C1_27 
REMARK       I    between atoms: S_6  and  O4_8 
REMARK       I    between atoms: O6_7  and  C6_23 
REMARK       I    between atoms: O4_8  and  C4_29 
REMARK       I    between atoms: O2_9  and  C2_24 
REMARK       I    between atoms: C8_10  and  C7_18 
REMARK       I    between atoms: O3_11  and  C3_20 
REMARK       I    between atoms: O3_11  and  C1_16 
REMARK       I    between atoms: C6_12  and  C5_22 
REMARK       I    between atoms: N_13  and  C2_26 
REMARK       I    between atoms: N_13  and  C7_18 
REMARK       I    between atoms: C6_23  and  C5_30 
ROOT
ATOM      1  C3  GCD d 527      31.225  10.008  28.772  0.00  0.00     0.084 C 
ATOM      2  O2  GCD d 527      32.030   8.697  26.887  0.00  0.00    -0.388 OA
ATOM      3  C6  GCD d 527      32.206  13.207  26.895  0.00  0.00     0.233 C 
ATOM      4  C4  GCD d 527      31.267  11.389  28.163  0.00  0.00    -0.034 C 
ATOM      5  O3  GCD d 527      31.287  10.123  30.198  0.00  0.00    -0.389 OA
ATOM      6  C1  GCD d 527      33.663   9.879  28.037  0.00  0.00     0.165 C 
ATOM      7  O6B GCD d 527      33.181  13.700  26.282  0.00  0.00    -0.642 OA
ATOM      8  O5  GCD d 527      33.446  10.974  27.130  0.00  0.00    -0.311 OA
ATOM      9  C5  GCD d 527      32.288  11.838  27.400  0.00  0.00     0.147 C 
ATOM     10  C2  GCD d 527      32.361   9.128  28.200  0.00  0.00     0.111 C 
ATOM     11  O6A GCD d 527      31.153  13.842  27.118  0.00  0.00    -0.642 OA
ATOM     12  H   GCD d 527      30.306   9.522  28.519  0.00  0.00     0.093 H 
ATOM     13  H   GCD d 527      31.196   8.202  26.910  0.00  0.00     0.210 HD
ATOM     14  H   GCD d 527      30.474  12.025  28.339  0.00  0.00     0.085 H 
ATOM     15  H   GCD d 527      32.115  10.562  30.451  0.00  0.00     0.210 HD
ATOM     16  H   GCD d 527      34.446   9.272  27.633  0.00  0.00     0.134 H 
ATOM     17  H   GCD d 527      32.473   8.324  28.898  0.00  0.00     0.095 H 
ATOM     18  O5  NGK d 526      37.610  11.653  30.895  0.00  0.00    -0.349 OA
ATOM     19  O1  NGK d 526      38.226  10.512  29.046  0.00  0.00    -0.369 OA
ATOM     20  O7  NGK d 526      34.647   7.561  30.881  0.00  0.00    -0.274 OA
ATOM     21  O2S NGK d 526      33.395  11.795  33.449  0.00  0.00    -0.572 OA
ATOM     22  S   NGK d 526      33.699  12.583  32.126  0.00  0.00     0.252 S 
ATOM     23  O6  NGK d 526      36.442  14.998  30.126  0.00  0.00    -0.398 OA
ATOM     24  O4  NGK d 526      34.925  11.790  31.389  0.00  0.00    -0.246 OA
ATOM     25  C8  NGK d 526      35.848   6.080  29.444  0.00  0.00    -0.003 C 
ATOM     26  O3  NGK d 526      34.041  10.340  29.355  0.00  0.00    -0.348 OA
ATOM     27  N   NGK d 526      36.295   8.436  29.597  0.00  0.00    -0.349 N 
ATOM     28  C7  NGK d 526      35.533   7.426  30.034  0.00  0.00     0.214 C 
ATOM     29  O1S NGK d 526      34.011  13.964  32.376  0.00  0.00    -0.572 OA
ATOM     30  C3  NGK d 526      35.389  10.754  29.363  0.00  0.00     0.094 C 
ATOM     31  C6  NGK d 526      36.884  13.988  31.019  0.00  0.00     0.043 C 
ATOM     32  O3S NGK d 526      32.585  12.373  31.212  0.00  0.00    -0.572 OA
ATOM     33  C2  NGK d 526      36.243   9.779  30.177  0.00  0.00     0.087 C 
ATOM     34  C1  NGK d 526      37.657  10.351  30.322  0.00  0.00     0.151 C 
ATOM     35  C4  NGK d 526      35.400  12.100  30.087  0.00  0.00     0.114 C 
ATOM     36  C5  NGK d 526      36.818  12.658  30.233  0.00  0.00     0.090 C 
ATOM     37  H   NGK d 526      39.122  10.874  29.135  0.00  0.00     0.212 HD
ATOM     38  H   NGK d 526      36.464  15.858  30.573  0.00  0.00     0.209 HD
ATOM     39  H   NGK d 526      35.186   5.347  29.856  0.00  0.00     0.040 H 
ATOM     40  H   NGK d 526      36.859   5.818  29.675  0.00  0.00     0.040 H 
ATOM     41  H   NGK d 526      35.722   6.117  28.383  0.00  0.00     0.040 H 
ATOM     42  H   NGK d 526      36.918   8.268  28.854  0.00  0.00     0.163 HD
ATOM     43  H   NGK d 526      35.777  10.803  28.367  0.00  0.00     0.091 H 
ATOM     44  H   NGK d 526      36.244  13.944  31.875  0.00  0.00     0.078 H 
ATOM     45  H   NGK d 526      37.875  14.185  31.370  0.00  0.00     0.078 H 
ATOM     46  H   NGK d 526      35.783   9.672  31.137  0.00  0.00     0.084 H 
ATOM     47  H   NGK d 526      38.222   9.681  30.936  0.00  0.00     0.132 H 
ATOM     48  H   NGK d 526      34.823  12.827  29.555  0.00  0.00     0.093 H 
ATOM     49  H   NGK d 526      37.193  12.884  29.257  0.00  0.00     0.090 H 
ENDROOT
TORSDOF 12
ENDMDL
MODEL 27
REMARK VINA RESULT:      -6.8      2.546      5.126
REMARK  0 active torsions:
REMARK  status: ('A' for Active; 'I' for Inactive)
REMARK       I    between atoms: C3_1  and  O3_15 
REMARK       I    between atoms: O1_3  and  C1_27 
REMARK       I    between atoms: S_6  and  O4_8 
REMARK       I    between atoms: O6_7  and  C6_23 
REMARK       I    between atoms: O4_8  and  C4_29 
REMARK       I    between atoms: O2_9  and  C2_24 
REMARK       I    between atoms: C8_10  and  C7_18 
REMARK       I    between atoms: O3_11  and  C3_20 
REMARK       I    between atoms: O3_11  and  C1_16 
REMARK       I    between atoms: C6_12  and  C5_22 
REMARK       I    between atoms: N_13  and  C2_26 
REMARK       I    between atoms: N_13  and  C7_18 
REMARK       I    between atoms: C6_23  and  C5_30 
ROOT
ATOM      1  C3  GCD d 527      37.566  11.625  28.912  0.00  0.00     0.084 C 
ATOM      2  O2  GCD d 527      38.672   9.904  30.228  0.00  0.00    -0.388 OA
ATOM      3  C6  GCD d 527      35.655  12.719  32.054  0.00  0.00     0.233 C 
ATOM      4  C4  GCD d 527      36.903  12.410  30.019  0.00  0.00    -0.034 C 
ATOM      5  O3  GCD d 527      36.860  11.856  27.688  0.00  0.00    -0.389 OA
ATOM      6  C1  GCD d 527      36.384   9.623  29.960  0.00  0.00     0.165 C 
ATOM      7  O6B GCD d 527      34.964  12.229  32.978  0.00  0.00    -0.642 OA
ATOM      8  O5  GCD d 527      36.195  10.371  31.173  0.00  0.00    -0.311 OA
ATOM      9  C5  GCD d 527      36.273  11.835  31.068  0.00  0.00     0.147 C 
ATOM     10  C2  GCD d 527      37.638  10.125  29.279  0.00  0.00     0.111 C 
ATOM     11  O6A GCD d 527      35.832  13.949  31.918  0.00  0.00    -0.642 OA
ATOM     12  H   GCD d 527      38.575  11.955  28.781  0.00  0.00     0.093 H 
ATOM     13  H   GCD d 527      39.518  10.203  29.859  0.00  0.00     0.210 HD
ATOM     14  H   GCD d 527      36.931  13.440  29.972  0.00  0.00     0.085 H 
ATOM     15  H   GCD d 527      35.940  11.563  27.784  0.00  0.00     0.210 HD
ATOM     16  H   GCD d 527      36.438   8.587  30.221  0.00  0.00     0.134 H 
ATOM     17  H   GCD d 527      37.793   9.615  28.351  0.00  0.00     0.095 H 
ATOM     18  O5  NGK d 526      31.518   8.250  28.809  0.00  0.00    -0.349 OA
ATOM     19  O1  NGK d 526      32.621   6.785  30.126  0.00  0.00    -0.369 OA
ATOM     20  O7  NGK d 526      36.062   7.780  26.654  0.00  0.00    -0.274 OA
ATOM     21  O2S NGK d 526      33.080  11.840  25.813  0.00  0.00    -0.572 OA
ATOM     22  S   NGK d 526      32.926  11.941  27.371  0.00  0.00     0.252 S 
ATOM     23  O6  NGK d 526      30.437  11.195  30.627  0.00  0.00    -0.398 OA
ATOM     24  O4  NGK d 526      32.952  10.407  27.937  0.00  0.00    -0.246 OA
ATOM     25  C8  NGK d 526      36.838   5.716  27.569  0.00  0.00    -0.003 C 
ATOM     26  O3  NGK d 526      35.298   9.829  29.027  0.00  0.00    -0.348 OA
ATOM     27  N   NGK d 526      34.971   6.943  28.454  0.00  0.00    -0.349 N 
ATOM     28  C7  NGK d 526      35.931   6.913  27.521  0.00  0.00     0.214 C 
ATOM     29  O1S NGK d 526      31.733  12.647  27.754  0.00  0.00    -0.572 OA
ATOM     30  C3  NGK d 526      34.161   9.099  29.428  0.00  0.00     0.094 C 
ATOM     31  C6  NGK d 526      30.432  10.333  29.500  0.00  0.00     0.043 C 
ATOM     32  O3S NGK d 526      34.157  12.504  27.908  0.00  0.00    -0.572 OA
ATOM     33  C2  NGK d 526      33.900   7.941  28.460  0.00  0.00     0.087 C 
ATOM     34  C1  NGK d 526      32.562   7.284  28.812  0.00  0.00     0.151 C 
ATOM     35  C4  NGK d 526      32.987  10.072  29.317  0.00  0.00     0.114 C 
ATOM     36  C5  NGK d 526      31.655   9.402  29.663  0.00  0.00     0.090 C 
ATOM     37  H   NGK d 526      31.775   6.368  30.352  0.00  0.00     0.212 HD
ATOM     38  H   NGK d 526      29.684  11.803  30.572  0.00  0.00     0.209 HD
ATOM     39  H   NGK d 526      37.565   5.787  26.787  0.00  0.00     0.040 H 
ATOM     40  H   NGK d 526      36.260   4.825  27.439  0.00  0.00     0.040 H 
ATOM     41  H   NGK d 526      37.335   5.684  28.516  0.00  0.00     0.040 H 
ATOM     42  H   NGK d 526      34.987   6.266  29.167  0.00  0.00     0.163 HD
ATOM     43  H   NGK d 526      34.292   8.701  30.413  0.00  0.00     0.091 H 
ATOM     44  H   NGK d 526      30.516  10.902  28.598  0.00  0.00     0.078 H 
ATOM     45  H   NGK d 526      29.521   9.775  29.442  0.00  0.00     0.078 H 
ATOM     46  H   NGK d 526      33.867   8.350  27.472  0.00  0.00     0.084 H 
ATOM     47  H   NGK d 526      32.375   6.512  28.094  0.00  0.00     0.132 H 
ATOM     48  H   NGK d 526      33.112  10.900  29.982  0.00  0.00     0.093 H 
ATOM     49  H   NGK d 526      31.673   9.133  30.698  0.00  0.00     0.090 H 
ENDROOT
TORSDOF 12
ENDMDL
MODEL 28
REMARK VINA RESULT:      -6.7      2.956      5.404
REMARK  0 active torsions:
REMARK  status: ('A' for Active; 'I' for Inactive)
REMARK       I    between atoms: C3_1  and  O3_15 
REMARK       I    between atoms: O1_3  and  C1_27 
REMARK       I    between atoms: S_6  and  O4_8 
REMARK       I    between atoms: O6_7  and  C6_23 
REMARK       I    between atoms: O4_8  and  C4_29 
REMARK       I    between atoms: O2_9  and  C2_24 
REMARK       I    between atoms: C8_10  and  C7_18 
REMARK       I    between atoms: O3_11  and  C3_20 
REMARK       I    between atoms: O3_11  and  C1_16 
REMARK       I    between atoms: C6_12  and  C5_22 
REMARK       I    between atoms: N_13  and  C2_26 
REMARK       I    between atoms: N_13  and  C7_18 
REMARK       I    between atoms: C6_23  and  C5_30 
ROOT
ATOM      1  C3  GCD d 527      36.646   9.222  27.769  0.00  0.00     0.084 C 
ATOM      2  O2  GCD d 527      35.311   8.978  25.750  0.00  0.00    -0.388 OA
ATOM      3  C6  GCD d 527      37.088   5.413  27.870  0.00  0.00     0.233 C 
ATOM      4  C4  GCD d 527      37.186   7.817  27.893  0.00  0.00    -0.034 C 
ATOM      5  O3  GCD d 527      36.673   9.850  29.055  0.00  0.00    -0.389 OA
ATOM      6  C1  GCD d 527      34.371   8.073  27.670  0.00  0.00     0.165 C 
ATOM      7  O6B GCD d 527      36.404   4.364  27.808  0.00  0.00    -0.642 OA
ATOM      8  O5  GCD d 527      35.015   6.830  27.345  0.00  0.00    -0.311 OA
ATOM      9  C5  GCD d 527      36.438   6.709  27.693  0.00  0.00     0.147 C 
ATOM     10  C2  GCD d 527      35.229   9.205  27.149  0.00  0.00     0.111 C 
ATOM     11  O6A GCD d 527      38.317   5.409  28.099  0.00  0.00    -0.642 OA
ATOM     12  H   GCD d 527      37.260   9.796  27.107  0.00  0.00     0.093 H 
ATOM     13  H   GCD d 527      35.851   9.671  25.340  0.00  0.00     0.210 HD
ATOM     14  H   GCD d 527      38.179   7.696  28.143  0.00  0.00     0.085 H 
ATOM     15  H   GCD d 527      36.121   9.345  29.673  0.00  0.00     0.210 HD
ATOM     16  H   GCD d 527      33.394   8.058  27.235  0.00  0.00     0.134 H 
ATOM     17  H   GCD d 527      34.799  10.152  27.404  0.00  0.00     0.095 H 
ATOM     18  O5  NGK d 526      31.639   6.771  31.880  0.00  0.00    -0.349 OA
ATOM     19  O1  NGK d 526      30.548   6.481  29.925  0.00  0.00    -0.369 OA
ATOM     20  O7  NGK d 526      32.557  11.000  29.274  0.00  0.00    -0.274 OA
ATOM     21  O2S NGK d 526      35.568   9.484  33.111  0.00  0.00    -0.572 OA
ATOM     22  S   NGK d 526      35.599   8.077  32.416  0.00  0.00     0.252 S 
ATOM     23  O6  NGK d 526      34.111   4.187  32.477  0.00  0.00    -0.398 OA
ATOM     24  O4  NGK d 526      34.134   7.876  31.718  0.00  0.00    -0.246 OA
ATOM     25  C8  NGK d 526      30.802  10.980  27.655  0.00  0.00    -0.003 C 
ATOM     26  O3  NGK d 526      34.260   8.264  29.099  0.00  0.00    -0.348 OA
ATOM     27  N   NGK d 526      31.413   9.068  28.976  0.00  0.00    -0.349 N 
ATOM     28  C7  NGK d 526      31.679  10.351  28.701  0.00  0.00     0.214 C 
ATOM     29  O1S NGK d 526      35.916   7.022  33.339  0.00  0.00    -0.572 OA
ATOM     30  C3  NGK d 526      33.221   7.467  29.621  0.00  0.00     0.094 C 
ATOM     31  C6  NGK d 526      33.300   5.278  32.884  0.00  0.00     0.043 C 
ATOM     32  O3S NGK d 526      36.493   8.164  31.269  0.00  0.00    -0.572 OA
ATOM     33  C2  NGK d 526      32.051   8.343  30.076  0.00  0.00     0.087 C 
ATOM     34  C1  NGK d 526      31.023   7.469  30.805  0.00  0.00     0.151 C 
ATOM     35  C4  NGK d 526      33.806   6.791  30.862  0.00  0.00     0.114 C 
ATOM     36  C5  NGK d 526      32.769   5.928  31.585  0.00  0.00     0.090 C 
ATOM     37  H   NGK d 526      29.897   5.927  30.383  0.00  0.00     0.212 HD
ATOM     38  H   NGK d 526      34.471   3.742  33.260  0.00  0.00     0.209 HD
ATOM     39  H   NGK d 526      31.094  11.999  27.511  0.00  0.00     0.040 H 
ATOM     40  H   NGK d 526      29.782  10.944  27.976  0.00  0.00     0.040 H 
ATOM     41  H   NGK d 526      30.906  10.445  26.735  0.00  0.00     0.040 H 
ATOM     42  H   NGK d 526      30.761   8.591  28.414  0.00  0.00     0.163 HD
ATOM     43  H   NGK d 526      32.868   6.773  28.886  0.00  0.00     0.091 H 
ATOM     44  H   NGK d 526      33.880   5.983  33.441  0.00  0.00     0.078 H 
ATOM     45  H   NGK d 526      32.499   4.954  33.513  0.00  0.00     0.078 H 
ATOM     46  H   NGK d 526      32.444   9.087  30.737  0.00  0.00     0.084 H 
ATOM     47  H   NGK d 526      30.240   8.108  31.158  0.00  0.00     0.132 H 
ATOM     48  H   NGK d 526      34.627   6.156  30.601  0.00  0.00     0.093 H 
ATOM     49  H   NGK d 526      32.505   5.113  30.945  0.00  0.00     0.090 H 
ENDROOT
TORSDOF 12
ENDMDL
MODEL 29
REMARK VINA RESULT:      -6.7      3.406      5.940
REMARK  0 active torsions:
REMARK  status: ('A' for Active; 'I' for Inactive)
REMARK       I    between atoms: C3_1  and  O3_15 
REMARK       I    between atoms: O1_3  and  C1_27 
REMARK       I    between atoms: S_6  and  O4_8 
REMARK       I    between atoms: O6_7  and  C6_23 
REMARK       I    between atoms: O4_8  and  C4_29 
REMARK       I    between atoms: O2_9  and  C2_24 
REMARK       I    between atoms: C8_10  and  C7_18 
REMARK       I    between atoms: O3_11  and  C3_20 
REMARK       I    between atoms: O3_11  and  C1_16 
REMARK       I    between atoms: C6_12  and  C5_22 
REMARK       I    between atoms: N_13  and  C2_26 
REMARK       I    between atoms: N_13  and  C7_18 
REMARK       I    between atoms: C6_23  and  C5_30 
ROOT
ATOM      1  C3  GCD d 527      32.658   9.386  30.335  0.00  0.00     0.084 C 
ATOM      2  O2  GCD d 527      30.975   7.809  29.562  0.00  0.00    -0.388 OA
ATOM      3  C6  GCD d 527      33.797   9.864  26.702  0.00  0.00     0.233 C 
ATOM      4  C4  GCD d 527      33.114   9.947  29.009  0.00  0.00    -0.034 C 
ATOM      5  O3  GCD d 527      33.696   9.572  31.303  0.00  0.00    -0.389 OA
ATOM      6  C1  GCD d 527      33.175   7.125  29.274  0.00  0.00     0.165 C 
ATOM      7  O6B GCD d 527      34.123   9.184  25.701  0.00  0.00    -0.642 OA
ATOM      8  O5  GCD d 527      33.145   7.732  27.971  0.00  0.00    -0.311 OA
ATOM      9  C5  GCD d 527      33.335   9.188  27.913  0.00  0.00     0.147 C 
ATOM     10  C2  GCD d 527      32.249   7.903  30.184  0.00  0.00     0.111 C 
ATOM     11  O6A GCD d 527      33.864  11.112  26.728  0.00  0.00    -0.642 OA
ATOM     12  H   GCD d 527      31.789   9.908  30.676  0.00  0.00     0.093 H 
ATOM     13  H   GCD d 527      30.320   8.288  30.093  0.00  0.00     0.210 HD
ATOM     14  H   GCD d 527      33.265  10.965  28.935  0.00  0.00     0.085 H 
ATOM     15  H   GCD d 527      34.496   9.106  31.013  0.00  0.00     0.210 HD
ATOM     16  H   GCD d 527      32.886   6.101  29.164  0.00  0.00     0.134 H 
ATOM     17  H   GCD d 527      32.271   7.502  31.176  0.00  0.00     0.095 H 
ATOM     18  O5  NGK d 526      37.884   4.956  29.315  0.00  0.00    -0.349 OA
ATOM     19  O1  NGK d 526      36.244   3.628  28.509  0.00  0.00    -0.369 OA
ATOM     20  O7  NGK d 526      34.078   5.509  32.591  0.00  0.00    -0.274 OA
ATOM     21  O2S NGK d 526      37.789   8.990  32.148  0.00  0.00    -0.572 OA
ATOM     22  S   NGK d 526      37.530   8.943  30.600  0.00  0.00     0.252 S 
ATOM     23  O6  NGK d 526      38.891   7.501  26.937  0.00  0.00    -0.398 OA
ATOM     24  O4  NGK d 526      37.105   7.403  30.252  0.00  0.00    -0.246 OA
ATOM     25  C8  NGK d 526      32.763   3.563  32.161  0.00  0.00    -0.003 C 
ATOM     26  O3  NGK d 526      34.491   7.194  29.870  0.00  0.00    -0.348 OA
ATOM     27  N   NGK d 526      34.492   4.349  30.689  0.00  0.00    -0.349 N 
ATOM     28  C7  NGK d 526      33.829   4.569  31.831  0.00  0.00     0.214 C 
ATOM     29  O1S NGK d 526      38.672   9.381  29.845  0.00  0.00    -0.572 OA
ATOM     30  C3  NGK d 526      35.344   6.235  29.286  0.00  0.00     0.094 C 
ATOM     31  C6  NGK d 526      39.062   6.741  28.122  0.00  0.00     0.043 C 
ATOM     32  O3S NGK d 526      36.306   9.684  30.328  0.00  0.00    -0.572 OA
ATOM     33  C2  NGK d 526      35.668   5.126  30.291  0.00  0.00     0.087 C 
ATOM     34  C1  NGK d 526      36.737   4.204  29.694  0.00  0.00     0.151 C 
ATOM     35  C4  NGK d 526      36.645   6.977  28.977  0.00  0.00     0.114 C 
ATOM     36  C5  NGK d 526      37.707   6.045  28.389  0.00  0.00     0.090 C 
ATOM     37  H   NGK d 526      36.919   3.044  28.129  0.00  0.00     0.212 HD
ATOM     38  H   NGK d 526      39.718   7.959  26.724  0.00  0.00     0.209 HD
ATOM     39  H   NGK d 526      32.296   3.828  33.086  0.00  0.00     0.040 H 
ATOM     40  H   NGK d 526      33.203   2.593  32.248  0.00  0.00     0.040 H 
ATOM     41  H   NGK d 526      32.029   3.554  31.382  0.00  0.00     0.040 H 
ATOM     42  H   NGK d 526      34.176   3.635  30.091  0.00  0.00     0.163 HD
ATOM     43  H   NGK d 526      34.889   5.797  28.423  0.00  0.00     0.091 H 
ATOM     44  H   NGK d 526      39.318   7.381  28.940  0.00  0.00     0.078 H 
ATOM     45  H   NGK d 526      39.852   6.027  28.016  0.00  0.00     0.078 H 
ATOM     46  H   NGK d 526      36.033   5.594  31.181  0.00  0.00     0.084 H 
ATOM     47  H   NGK d 526      36.985   3.468  30.430  0.00  0.00     0.132 H 
ATOM     48  H   NGK d 526      36.479   7.762  28.269  0.00  0.00     0.093 H 
ATOM     49  H   NGK d 526      37.367   5.707  27.433  0.00  0.00     0.090 H 
ENDROOT
TORSDOF 12
ENDMDL
MODEL 30
REMARK VINA RESULT:      -6.7      2.421      5.004
REMARK  0 active torsions:
REMARK  status: ('A' for Active; 'I' for Inactive)
REMARK       I    between atoms: C3_1  and  O3_15 
REMARK       I    between atoms: O1_3  and  C1_27 
REMARK       I    between atoms: S_6  and  O4_8 
REMARK       I    between atoms: O6_7  and  C6_23 
REMARK       I    between atoms: O4_8  and  C4_29 
REMARK       I    between atoms: O2_9  and  C2_24 
REMARK       I    between atoms: C8_10  and  C7_18 
REMARK       I    between atoms: O3_11  and  C3_20 
REMARK       I    between atoms: O3_11  and  C1_16 
REMARK       I    between atoms: C6_12  and  C5_22 
REMARK       I    between atoms: N_13  and  C2_26 
REMARK       I    between atoms: N_13  and  C7_18 
REMARK       I    between atoms: C6_23  and  C5_30 
ROOT
ATOM      1  C3  GCD d 527      32.136   7.974  28.942  0.00  0.00     0.084 C 
ATOM      2  O2  GCD d 527      30.092   9.250  29.280  0.00  0.00    -0.388 OA
ATOM      3  C6  GCD d 527      32.904   8.318  32.685  0.00  0.00     0.233 C 
ATOM      4  C4  GCD d 527      32.532   7.735  30.380  0.00  0.00    -0.034 C 
ATOM      5  O3  GCD d 527      33.299   7.871  28.113  0.00  0.00    -0.389 OA
ATOM      6  C1  GCD d 527      32.061  10.429  29.629  0.00  0.00     0.165 C 
ATOM      7  O6B GCD d 527      32.966   9.198  33.576  0.00  0.00    -0.642 OA
ATOM      8  O5  GCD d 527      31.997  10.038  31.012  0.00  0.00    -0.311 OA
ATOM      9  C5  GCD d 527      32.465   8.684  31.340  0.00  0.00     0.147 C 
ATOM     10  C2  GCD d 527      31.424   9.339  28.795  0.00  0.00     0.111 C 
ATOM     11  O6A GCD d 527      33.220   7.125  32.885  0.00  0.00    -0.642 OA
ATOM     12  H   GCD d 527      31.435   7.230  28.625  0.00  0.00     0.093 H 
ATOM     13  H   GCD d 527      29.614   8.564  28.788  0.00  0.00     0.210 HD
ATOM     14  H   GCD d 527      32.873   6.798  30.643  0.00  0.00     0.085 H 
ATOM     15  H   GCD d 527      33.949   8.538  28.383  0.00  0.00     0.210 HD
ATOM     16  H   GCD d 527      31.563  11.371  29.534  0.00  0.00     0.134 H 
ATOM     17  H   GCD d 527      31.485   9.578  27.753  0.00  0.00     0.095 H 
ATOM     18  O5  NGK d 526      36.214  13.533  29.609  0.00  0.00    -0.349 OA
ATOM     19  O1  NGK d 526      34.259  14.582  30.027  0.00  0.00    -0.369 OA
ATOM     20  O7  NGK d 526      33.015  11.673  26.170  0.00  0.00    -0.274 OA
ATOM     21  O2S NGK d 526      37.265   9.188  27.529  0.00  0.00    -0.572 OA
ATOM     22  S   NGK d 526      36.818   9.415  29.017  0.00  0.00     0.252 S 
ATOM     23  O6  NGK d 526      37.416  11.663  32.473  0.00  0.00    -0.398 OA
ATOM     24  O4  NGK d 526      36.056  10.861  29.053  0.00  0.00    -0.246 OA
ATOM     25  C8  NGK d 526      31.296  13.330  26.139  0.00  0.00    -0.003 C 
ATOM     26  O3  NGK d 526      33.426  10.556  29.169  0.00  0.00    -0.348 OA
ATOM     27  N   NGK d 526      32.959  13.173  27.867  0.00  0.00    -0.349 N 
ATOM     28  C7  NGK d 526      32.495  12.642  26.729  0.00  0.00     0.214 C 
ATOM     29  O1S NGK d 526      37.925   9.355  29.932  0.00  0.00    -0.572 OA
ATOM     30  C3  NGK d 526      33.995  11.754  29.646  0.00  0.00     0.094 C 
ATOM     31  C6  NGK d 526      37.573  12.250  31.192  0.00  0.00     0.043 C 
ATOM     32  O3S NGK d 526      35.743   8.477  29.310  0.00  0.00    -0.572 OA
ATOM     33  C2  NGK d 526      34.209  12.740  28.494  0.00  0.00     0.087 C 
ATOM     34  C1  NGK d 526      34.994  13.951  29.008  0.00  0.00     0.151 C 
ATOM     35  C4  NGK d 526      35.371  11.368  30.189  0.00  0.00     0.114 C 
ATOM     36  C5  NGK d 526      36.149  12.587  30.693  0.00  0.00     0.090 C 
ATOM     37  H   NGK d 526      34.753  15.349  30.355  0.00  0.00     0.212 HD
ATOM     38  H   NGK d 526      38.286  11.432  32.832  0.00  0.00     0.209 HD
ATOM     39  H   NGK d 526      31.007  12.832  25.238  0.00  0.00     0.040 H 
ATOM     40  H   NGK d 526      31.542  14.348  25.921  0.00  0.00     0.040 H 
ATOM     41  H   NGK d 526      30.488  13.301  26.839  0.00  0.00     0.040 H 
ATOM     42  H   NGK d 526      32.437  13.885  28.301  0.00  0.00     0.163 HD
ATOM     43  H   NGK d 526      33.362  12.211  30.377  0.00  0.00     0.091 H 
ATOM     44  H   NGK d 526      38.047  11.562  30.524  0.00  0.00     0.078 H 
ATOM     45  H   NGK d 526      38.186  13.125  31.238  0.00  0.00     0.078 H 
ATOM     46  H   NGK d 526      34.764  12.231  27.734  0.00  0.00     0.084 H 
ATOM     47  H   NGK d 526      35.177  14.602  28.178  0.00  0.00     0.132 H 
ATOM     48  H   NGK d 526      35.281  10.684  31.007  0.00  0.00     0.093 H 
ATOM     49  H   NGK d 526      35.635  12.985  31.542  0.00  0.00     0.090 H 
ENDROOT
TORSDOF 12
ENDMDL
MODEL 31
REMARK VINA RESULT:      -6.7      2.776      5.455
REMARK  0 active torsions:
REMARK  status: ('A' for Active; 'I' for Inactive)
REMARK       I    between atoms: C3_1  and  O3_15 
REMARK       I    between atoms: O1_3  and  C1_27 
REMARK       I    between atoms: S_6  and  O4_8 
REMARK       I    between atoms: O6_7  and  C6_23 
REMARK       I    between atoms: O4_8  and  C4_29 
REMARK       I    between atoms: O2_9  and  C2_24 
REMARK       I    between atoms: C8_10  and  C7_18 
REMARK       I    between atoms: O3_11  and  C3_20 
REMARK       I    between atoms: O3_11  and  C1_16 
REMARK       I    between atoms: C6_12  and  C5_22 
REMARK       I    between atoms: N_13  and  C2_26 
REMARK       I    between atoms: N_13  and  C7_18 
REMARK       I    between atoms: C6_23  and  C5_30 
ROOT
ATOM      1  C3  GCD d 527      38.084   9.711  29.422  0.00  0.00     0.084 C 
ATOM      2  O2  GCD d 527      38.268   8.757  31.652  0.00  0.00    -0.388 OA
ATOM      3  C6  GCD d 527      36.368  12.788  30.939  0.00  0.00     0.233 C 
ATOM      4  C4  GCD d 527      37.643  11.111  29.775  0.00  0.00    -0.034 C 
ATOM      5  O3  GCD d 527      37.681   9.418  28.079  0.00  0.00    -0.389 OA
ATOM      6  C1  GCD d 527      36.101   8.990  30.853  0.00  0.00     0.165 C 
ATOM      7  O6B GCD d 527      35.432  13.078  31.721  0.00  0.00    -0.642 OA
ATOM      8  O5  GCD d 527      36.066  10.294  31.458  0.00  0.00    -0.311 OA
ATOM      9  C5  GCD d 527      36.715  11.386  30.719  0.00  0.00     0.147 C 
ATOM     10  C2  GCD d 527      37.526   8.693  30.443  0.00  0.00     0.111 C 
ATOM     11  O6A GCD d 527      37.021  13.650  30.313  0.00  0.00    -0.642 OA
ATOM     12  H   GCD d 527      39.150   9.638  29.471  0.00  0.00     0.093 H 
ATOM     13  H   GCD d 527      39.202   8.575  31.468  0.00  0.00     0.210 HD
ATOM     14  H   GCD d 527      38.072  11.901  29.269  0.00  0.00     0.085 H 
ATOM     15  H   GCD d 527      36.715   9.479  28.011  0.00  0.00     0.210 HD
ATOM     16  H   GCD d 527      35.718   8.290  31.565  0.00  0.00     0.134 H 
ATOM     17  H   GCD d 527      37.587   7.742  29.954  0.00  0.00     0.095 H 
ATOM     18  O5  NGK d 526      31.267   8.551  29.029  0.00  0.00    -0.349 OA
ATOM     19  O1  NGK d 526      31.546   7.803  31.142  0.00  0.00    -0.369 OA
ATOM     20  O7  NGK d 526      35.509   5.814  28.856  0.00  0.00    -0.274 OA
ATOM     21  O2S NGK d 526      34.454   9.385  25.361  0.00  0.00    -0.572 OA
ATOM     22  S   NGK d 526      34.157  10.350  26.563  0.00  0.00     0.252 S 
ATOM     23  O6  NGK d 526      31.187  12.171  28.847  0.00  0.00    -0.398 OA
ATOM     24  O4  NGK d 526      33.519   9.424  27.750  0.00  0.00    -0.246 OA
ATOM     25  C8  NGK d 526      35.307   4.457  30.811  0.00  0.00    -0.003 C 
ATOM     26  O3  NGK d 526      35.304   8.936  29.647  0.00  0.00    -0.348 OA
ATOM     27  N   NGK d 526      33.964   6.407  30.403  0.00  0.00    -0.349 N 
ATOM     28  C7  NGK d 526      34.945   5.625  29.937  0.00  0.00     0.214 C 
ATOM     29  O1S NGK d 526      33.291  11.435  26.187  0.00  0.00    -0.572 OA
ATOM     30  C3  NGK d 526      33.933   8.868  29.967  0.00  0.00     0.094 C 
ATOM     31  C6  NGK d 526      30.991  10.875  28.307  0.00  0.00     0.043 C 
ATOM     32  O3S NGK d 526      35.433  10.766  27.129  0.00  0.00    -0.572 OA
ATOM     33  C2  NGK d 526      33.369   7.489  29.617  0.00  0.00     0.087 C 
ATOM     34  C1  NGK d 526      31.848   7.507  29.801  0.00  0.00     0.151 C 
ATOM     35  C4  NGK d 526      33.249   9.894  29.063  0.00  0.00     0.114 C 
ATOM     36  C5  NGK d 526      31.730   9.897  29.250  0.00  0.00     0.090 C 
ATOM     37  H   NGK d 526      30.583   7.815  31.261  0.00  0.00     0.212 HD
ATOM     38  H   NGK d 526      30.741  12.826  28.288  0.00  0.00     0.209 HD
ATOM     39  H   NGK d 526      36.097   3.899  30.351  0.00  0.00     0.040 H 
ATOM     40  H   NGK d 526      34.452   3.827  30.935  0.00  0.00     0.040 H 
ATOM     41  H   NGK d 526      35.631   4.812  31.766  0.00  0.00     0.040 H 
ATOM     42  H   NGK d 526      33.627   6.248  31.314  0.00  0.00     0.163 HD
ATOM     43  H   NGK d 526      33.777   9.050  31.011  0.00  0.00     0.091 H 
ATOM     44  H   NGK d 526      31.400  10.818  27.320  0.00  0.00     0.078 H 
ATOM     45  H   NGK d 526      29.951  10.637  28.235  0.00  0.00     0.078 H 
ATOM     46  H   NGK d 526      33.619   7.289  28.596  0.00  0.00     0.084 H 
ATOM     47  H   NGK d 526      31.469   6.551  29.502  0.00  0.00     0.132 H 
ATOM     48  H   NGK d 526      33.600  10.883  29.272  0.00  0.00     0.093 H 
ATOM     49  H   NGK d 526      31.514  10.238  30.241  0.00  0.00     0.090 H 
ENDROOT
TORSDOF 12
ENDMDL
MODEL 32
REMARK VINA RESULT:      -6.7      2.814      5.687
REMARK  0 active torsions:
REMARK  status: ('A' for Active; 'I' for Inactive)
REMARK       I    between atoms: C3_1  and  O3_15 
REMARK       I    between atoms: O1_3  and  C1_27 
REMARK       I    between atoms: S_6  and  O4_8 
REMARK       I    between atoms: O6_7  and  C6_23 
REMARK       I    between atoms: O4_8  and  C4_29 
REMARK       I    between atoms: O2_9  and  C2_24 
REMARK       I    between atoms: C8_10  and  C7_18 
REMARK       I    between atoms: O3_11  and  C3_20 
REMARK       I    between atoms: O3_11  and  C1_16 
REMARK       I    between atoms: C6_12  and  C5_22 
REMARK       I    between atoms: N_13  and  C2_26 
REMARK       I    between atoms: N_13  and  C7_18 
REMARK       I    between atoms: C6_23  and  C5_30 
ROOT
ATOM      1  C3  GCD d 527      36.056   8.590  27.865  0.00  0.00     0.084 C 
ATOM      2  O2  GCD d 527      36.364   7.128  29.785  0.00  0.00    -0.388 OA
ATOM      3  C6  GCD d 527      37.906  11.370  29.754  0.00  0.00     0.233 C 
ATOM      4  C4  GCD d 527      36.956   9.735  28.265  0.00  0.00    -0.034 C 
ATOM      5  O3  GCD d 527      35.080   9.066  26.931  0.00  0.00    -0.389 OA
ATOM      6  C1  GCD d 527      34.984   8.959  30.149  0.00  0.00     0.165 C 
ATOM      7  O6B GCD d 527      37.896  11.945  30.868  0.00  0.00    -0.642 OA
ATOM      8  O5  GCD d 527      36.146   9.693  30.573  0.00  0.00    -0.311 OA
ATOM      9  C5  GCD d 527      37.005  10.245  29.516  0.00  0.00     0.147 C 
ATOM     10  C2  GCD d 527      35.414   7.943  29.114  0.00  0.00     0.111 C 
ATOM     11  O6A GCD d 527      38.647  11.726  28.813  0.00  0.00    -0.642 OA
ATOM     12  H   GCD d 527      36.628   7.823  27.385  0.00  0.00     0.093 H 
ATOM     13  H   GCD d 527      36.689   6.445  29.179  0.00  0.00     0.210 HD
ATOM     14  H   GCD d 527      37.566  10.151  27.545  0.00  0.00     0.085 H 
ATOM     15  H   GCD d 527      34.549   9.764  27.346  0.00  0.00     0.210 HD
ATOM     16  H   GCD d 527      34.548   8.510  31.016  0.00  0.00     0.134 H 
ATOM     17  H   GCD d 527      34.569   7.399  28.746  0.00  0.00     0.095 H 
ATOM     18  O5  NGK d 526      31.199  12.396  31.011  0.00  0.00    -0.349 OA
ATOM     19  O1  NGK d 526      31.662  11.049  32.763  0.00  0.00    -0.369 OA
ATOM     20  O7  NGK d 526      31.563   7.776  29.000  0.00  0.00    -0.274 OA
ATOM     21  O2S NGK d 526      32.141  12.000  26.187  0.00  0.00    -0.572 OA
ATOM     22  S   NGK d 526      33.148  12.490  27.287  0.00  0.00     0.252 S 
ATOM     23  O6  NGK d 526      33.689  14.994  30.572  0.00  0.00    -0.398 OA
ATOM     24  O4  NGK d 526      32.594  11.908  28.711  0.00  0.00    -0.246 OA
ATOM     25  C8  NGK d 526      31.252   6.375  30.908  0.00  0.00    -0.003 C 
ATOM     26  O3  NGK d 526      34.012   9.816  29.508  0.00  0.00    -0.348 OA
ATOM     27  N   NGK d 526      31.732   8.725  31.050  0.00  0.00    -0.349 N 
ATOM     28  C7  NGK d 526      31.539   7.685  30.230  0.00  0.00     0.214 C 
ATOM     29  O1S NGK d 526      33.288  13.921  27.296  0.00  0.00    -0.572 OA
ATOM     30  C3  NGK d 526      33.314  10.573  30.470  0.00  0.00     0.094 C 
ATOM     31  C6  NGK d 526      32.428  14.398  30.317  0.00  0.00     0.043 C 
ATOM     32  O3S NGK d 526      34.397  11.763  27.107  0.00  0.00    -0.572 OA
ATOM     33  C2  NGK d 526      31.860  10.102  30.569  0.00  0.00     0.087 C 
ATOM     34  C1  NGK d 526      31.084  11.059  31.481  0.00  0.00     0.151 C 
ATOM     35  C4  NGK d 526      33.304  12.006  29.937  0.00  0.00     0.114 C 
ATOM     36  C5  NGK d 526      32.519  12.950  30.852  0.00  0.00     0.090 C 
ATOM     37  H   NGK d 526      31.173  11.654  33.343  0.00  0.00     0.212 HD
ATOM     38  H   NGK d 526      33.683  15.910  30.253  0.00  0.00     0.209 HD
ATOM     39  H   NGK d 526      31.114   5.614  30.169  0.00  0.00     0.040 H 
ATOM     40  H   NGK d 526      30.363   6.466  31.496  0.00  0.00     0.040 H 
ATOM     41  H   NGK d 526      32.073   6.114  31.541  0.00  0.00     0.040 H 
ATOM     42  H   NGK d 526      31.791   8.557  32.017  0.00  0.00     0.163 HD
ATOM     43  H   NGK d 526      33.772  10.480  31.433  0.00  0.00     0.091 H 
ATOM     44  H   NGK d 526      32.225  14.392  29.267  0.00  0.00     0.078 H 
ATOM     45  H   NGK d 526      31.638  14.940  30.793  0.00  0.00     0.078 H 
ATOM     46  H   NGK d 526      31.450  10.114  29.581  0.00  0.00     0.084 H 
ATOM     47  H   NGK d 526      30.062  10.742  31.496  0.00  0.00     0.132 H 
ATOM     48  H   NGK d 526      34.298  12.391  29.856  0.00  0.00     0.093 H 
ATOM     49  H   NGK d 526      33.038  13.022  31.785  0.00  0.00     0.090 H 
ENDROOT
TORSDOF 12
ENDMDL
MODEL 33
REMARK VINA RESULT:      -6.7      2.731      5.141
REMARK  0 active torsions:
REMARK  status: ('A' for Active; 'I' for Inactive)
REMARK       I    between atoms: C3_1  and  O3_15 
REMARK       I    between atoms: O1_3  and  C1_27 
REMARK       I    between atoms: S_6  and  O4_8 
REMARK       I    between atoms: O6_7  and  C6_23 
REMARK       I    between atoms: O4_8  and  C4_29 
REMARK       I    between atoms: O2_9  and  C2_24 
REMARK       I    between atoms: C8_10  and  C7_18 
REMARK       I    between atoms: O3_11  and  C3_20 
REMARK       I    between atoms: O3_11  and  C1_16 
REMARK       I    between atoms: C6_12  and  C5_22 
REMARK       I    between atoms: N_13  and  C2_26 
REMARK       I    between atoms: N_13  and  C7_18 
REMARK       I    between atoms: C6_23  and  C5_30 
ROOT
ATOM      1  C3  GCD d 527      34.011   7.505  30.683  0.00  0.00     0.084 C 
ATOM      2  O2  GCD d 527      31.935   7.476  31.952  0.00  0.00    -0.388 OA
ATOM      3  C6  GCD d 527      35.630   9.563  33.487  0.00  0.00     0.233 C 
ATOM      4  C4  GCD d 527      34.944   8.072  31.728  0.00  0.00    -0.034 C 
ATOM      5  O3  GCD d 527      34.556   7.756  29.383  0.00  0.00    -0.389 OA
ATOM      6  C1  GCD d 527      32.595   9.566  31.187  0.00  0.00     0.165 C 
ATOM      7  O6B GCD d 527      35.412  10.588  34.176  0.00  0.00    -0.642 OA
ATOM      8  O5  GCD d 527      33.302   9.747  32.426  0.00  0.00    -0.311 OA
ATOM      9  C5  GCD d 527      34.619   9.103  32.538  0.00  0.00     0.147 C 
ATOM     10  C2  GCD d 527      32.590   8.091  30.851  0.00  0.00     0.111 C 
ATOM     11  O6A GCD d 527      36.694   8.912  33.558  0.00  0.00    -0.642 OA
ATOM     12  H   GCD d 527      33.920   6.447  30.807  0.00  0.00     0.093 H 
ATOM     13  H   GCD d 527      31.892   6.518  31.808  0.00  0.00     0.210 HD
ATOM     14  H   GCD d 527      35.879   7.649  31.828  0.00  0.00     0.085 H 
ATOM     15  H   GCD d 527      34.648   8.712  29.250  0.00  0.00     0.210 HD
ATOM     16  H   GCD d 527      31.612   9.969  31.311  0.00  0.00     0.134 H 
ATOM     17  H   GCD d 527      32.102   7.919  29.914  0.00  0.00     0.095 H 
ATOM     18  O5  NGK d 526      33.313  14.160  28.892  0.00  0.00    -0.349 OA
ATOM     19  O1  NGK d 526      31.473  14.038  30.195  0.00  0.00    -0.369 OA
ATOM     20  O7  NGK d 526      31.180   9.747  27.666  0.00  0.00    -0.274 OA
ATOM     21  O2S NGK d 526      36.122  10.694  26.792  0.00  0.00    -0.572 OA
ATOM     22  S   NGK d 526      36.206  11.170  28.285  0.00  0.00     0.252 S 
ATOM     23  O6  NGK d 526      36.361  14.463  30.832  0.00  0.00    -0.398 OA
ATOM     24  O4  NGK d 526      34.763  11.857  28.631  0.00  0.00    -0.246 OA
ATOM     25  C8  NGK d 526      28.939  10.047  28.433  0.00  0.00    -0.003 C 
ATOM     26  O3  NGK d 526      33.256  10.236  30.089  0.00  0.00    -0.348 OA
ATOM     27  N   NGK d 526      30.764  11.472  29.075  0.00  0.00    -0.349 N 
ATOM     28  C7  NGK d 526      30.398  10.399  28.363  0.00  0.00     0.214 C 
ATOM     29  O1S NGK d 526      37.308  12.066  28.508  0.00  0.00    -0.572 OA
ATOM     30  C3  NGK d 526      33.018  11.624  30.146  0.00  0.00     0.094 C 
ATOM     31  C6  NGK d 526      35.623  14.519  29.622  0.00  0.00     0.043 C 
ATOM     32  O3S NGK d 526      36.211   9.986  29.133  0.00  0.00    -0.572 OA
ATOM     33  C2  NGK d 526      32.103  12.058  28.998  0.00  0.00     0.087 C 
ATOM     34  C1  NGK d 526      32.014  13.588  28.977  0.00  0.00     0.151 C 
ATOM     35  C4  NGK d 526      34.380  12.284  29.930  0.00  0.00     0.114 C 
ATOM     36  C5  NGK d 526      34.277  13.811  29.904  0.00  0.00     0.090 C 
ATOM     37  H   NGK d 526      31.416  15.006  30.185  0.00  0.00     0.212 HD
ATOM     38  H   NGK d 526      37.219  14.896  30.708  0.00  0.00     0.209 HD
ATOM     39  H   NGK d 526      28.752   9.181  27.832  0.00  0.00     0.040 H 
ATOM     40  H   NGK d 526      28.356  10.866  28.068  0.00  0.00     0.040 H 
ATOM     41  H   NGK d 526      28.670   9.842  29.448  0.00  0.00     0.040 H 
ATOM     42  H   NGK d 526      30.104  11.883  29.678  0.00  0.00     0.163 HD
ATOM     43  H   NGK d 526      32.557  11.893  31.074  0.00  0.00     0.091 H 
ATOM     44  H   NGK d 526      36.151  14.013  28.842  0.00  0.00     0.078 H 
ATOM     45  H   NGK d 526      35.473  15.529  29.304  0.00  0.00     0.078 H 
ATOM     46  H   NGK d 526      32.535  11.697  28.088  0.00  0.00     0.084 H 
ATOM     47  H   NGK d 526      31.412  13.871  28.138  0.00  0.00     0.132 H 
ATOM     48  H   NGK d 526      35.061  12.022  30.713  0.00  0.00     0.093 H 
ATOM     49  H   NGK d 526      33.977  14.145  30.875  0.00  0.00     0.090 H 
ENDROOT
TORSDOF 12
ENDMDL
MODEL 34
REMARK VINA RESULT:      -6.7      2.105      2.405
REMARK  0 active torsions:
REMARK  status: ('A' for Active; 'I' for Inactive)
REMARK       I    between atoms: C3_1  and  O3_15 
REMARK       I    between atoms: O1_3  and  C1_27 
REMARK       I    between atoms: S_6  and  O4_8 
REMARK       I    between atoms: O6_7  and  C6_23 
REMARK       I    between atoms: O4_8  and  C4_29 
REMARK       I    between atoms: O2_9  and  C2_24 
REMARK       I    between atoms: C8_10  and  C7_18 
REMARK       I    between atoms: O3_11  and  C3_20 
REMARK       I    between atoms: O3_11  and  C1_16 
REMARK       I    between atoms: C6_12  and  C5_22 
REMARK       I    between atoms: N_13  and  C2_26 
REMARK       I    between atoms: N_13  and  C7_18 
REMARK       I    between atoms: C6_23  and  C5_30 
ROOT
ATOM      1  C3  GCD d 527      32.713  12.950  32.311  0.00  0.00     0.084 C 
ATOM      2  O2  GCD d 527      31.412  14.218  30.694  0.00  0.00    -0.388 OA
ATOM      3  C6  GCD d 527      35.924  14.231  30.648  0.00  0.00     0.233 C 
ATOM      4  C4  GCD d 527      34.090  13.501  32.024  0.00  0.00    -0.034 C 
ATOM      5  O3  GCD d 527      32.843  11.660  32.919  0.00  0.00    -0.389 OA
ATOM      6  C1  GCD d 527      32.655  12.469  29.807  0.00  0.00     0.165 C 
ATOM      7  O6B GCD d 527      36.442  14.334  29.511  0.00  0.00    -0.642 OA
ATOM      8  O5  GCD d 527      33.733  13.398  29.605  0.00  0.00    -0.311 OA
ATOM      9  C5  GCD d 527      34.563  13.715  30.776  0.00  0.00     0.147 C 
ATOM     10  C2  GCD d 527      31.865  12.911  31.019  0.00  0.00     0.111 C 
ATOM     11  O6A GCD d 527      36.528  14.535  31.699  0.00  0.00    -0.642 OA
ATOM     12  H   GCD d 527      32.197  13.589  32.996  0.00  0.00     0.093 H 
ATOM     13  H   GCD d 527      30.891  14.572  31.431  0.00  0.00     0.210 HD
ATOM     14  H   GCD d 527      34.702  13.727  32.823  0.00  0.00     0.085 H 
ATOM     15  H   GCD d 527      33.311  11.063  32.314  0.00  0.00     0.210 HD
ATOM     16  H   GCD d 527      32.069  12.451  28.912  0.00  0.00     0.134 H 
ATOM     17  H   GCD d 527      31.071  12.223  31.224  0.00  0.00     0.095 H 
ATOM     18  O5  NGK d 526      34.577   8.150  27.677  0.00  0.00    -0.349 OA
ATOM     19  O1  NGK d 526      33.439   9.477  26.247  0.00  0.00    -0.369 OA
ATOM     20  O7  NGK d 526      30.395   9.442  30.199  0.00  0.00    -0.274 OA
ATOM     21  O2S NGK d 526      34.610   7.842  32.597  0.00  0.00    -0.572 OA
ATOM     22  S   NGK d 526      35.396   8.891  31.733  0.00  0.00     0.252 S 
ATOM     23  O6  NGK d 526      37.876   9.448  28.434  0.00  0.00    -0.398 OA
ATOM     24  O4  NGK d 526      34.635   8.958  30.288  0.00  0.00    -0.246 OA
ATOM     25  C8  NGK d 526      28.938  10.125  28.435  0.00  0.00    -0.003 C 
ATOM     26  O3  NGK d 526      33.139  11.137  30.094  0.00  0.00    -0.348 OA
ATOM     27  N   NGK d 526      31.308   9.836  28.164  0.00  0.00    -0.349 N 
ATOM     28  C7  NGK d 526      30.279   9.780  29.018  0.00  0.00     0.214 C 
ATOM     29  O1S NGK d 526      36.788   8.556  31.606  0.00  0.00    -0.572 OA
ATOM     30  C3  NGK d 526      33.595  10.516  28.914  0.00  0.00     0.094 C 
ATOM     31  C6  NGK d 526      36.889   8.430  28.433  0.00  0.00     0.043 C 
ATOM     32  O3S NGK d 526      35.142  10.211  32.293  0.00  0.00    -0.572 OA
ATOM     33  C2  NGK d 526      32.655   9.377  28.511  0.00  0.00     0.087 C 
ATOM     34  C1  NGK d 526      33.272   8.606  27.339  0.00  0.00     0.151 C 
ATOM     35  C4  NGK d 526      34.947   9.899  29.271  0.00  0.00     0.114 C 
ATOM     36  C5  NGK d 526      35.551   9.126  28.095  0.00  0.00     0.090 C 
ATOM     37  H   NGK d 526      33.830   8.992  25.504  0.00  0.00     0.212 HD
ATOM     38  H   NGK d 526      38.741   9.061  28.641  0.00  0.00     0.209 HD
ATOM     39  H   NGK d 526      28.189  10.050  29.194  0.00  0.00     0.040 H 
ATOM     40  H   NGK d 526      28.710   9.447  27.640  0.00  0.00     0.040 H 
ATOM     41  H   NGK d 526      28.962  11.125  28.055  0.00  0.00     0.040 H 
ATOM     42  H   NGK d 526      31.154  10.203  27.265  0.00  0.00     0.163 HD
ATOM     43  H   NGK d 526      33.647  11.220  28.109  0.00  0.00     0.091 H 
ATOM     44  H   NGK d 526      36.834   7.966  29.395  0.00  0.00     0.078 H 
ATOM     45  H   NGK d 526      37.121   7.664  27.722  0.00  0.00     0.078 H 
ATOM     46  H   NGK d 526      32.543   8.736  29.360  0.00  0.00     0.084 H 
ATOM     47  H   NGK d 526      32.625   7.786  27.107  0.00  0.00     0.132 H 
ATOM     48  H   NGK d 526      35.650  10.654  29.553  0.00  0.00     0.093 H 
ATOM     49  H   NGK d 526      35.779   9.823  27.317  0.00  0.00     0.090 H 
ENDROOT
TORSDOF 12
ENDMDL
MODEL 35
REMARK VINA RESULT:      -6.6      2.505      5.556
REMARK  0 active torsions:
REMARK  status: ('A' for Active; 'I' for Inactive)
REMARK       I    between atoms: C3_1  and  O3_15 
REMARK       I    between atoms: O1_3  and  C1_27 
REMARK       I    between atoms: S_6  and  O4_8 
REMARK       I    between atoms: O6_7  and  C6_23 
REMARK       I    between atoms: O4_8  and  C4_29 
REMARK       I    between atoms: O2_9  and  C2_24 
REMARK       I    between atoms: C8_10  and  C7_18 
REMARK       I    between atoms: O3_11  and  C3_20 
REMARK       I    between atoms: O3_11  and  C1_16 
REMARK       I    between atoms: C6_12  and  C5_22 
REMARK       I    between atoms: N_13  and  C2_26 
REMARK       I    between atoms: N_13  and  C7_18 
REMARK       I    between atoms: C6_23  and  C5_30 
ROOT
ATOM      1  C3  GCD d 527      34.624   8.223  31.351  0.00  0.00     0.084 C 
ATOM      2  O2  GCD d 527      36.643   9.327  32.138  0.00  0.00    -0.388 OA
ATOM      3  C6  GCD d 527      35.867   8.643  27.746  0.00  0.00     0.233 C 
ATOM      4  C4  GCD d 527      34.988   8.023  29.899  0.00  0.00    -0.034 C 
ATOM      5  O3  GCD d 527      33.198   8.213  31.481  0.00  0.00    -0.389 OA
ATOM      6  C1  GCD d 527      35.204  10.666  30.903  0.00  0.00     0.165 C 
ATOM      7  O6B GCD d 527      36.322   9.527  26.983  0.00  0.00    -0.642 OA
ATOM      8  O5  GCD d 527      35.927  10.276  29.723  0.00  0.00    -0.311 OA
ATOM      9  C5  GCD d 527      35.595   8.966  29.144  0.00  0.00     0.147 C 
ATOM     10  C2  GCD d 527      35.258   9.525  31.894  0.00  0.00     0.111 C 
ATOM     11  O6A GCD d 527      35.612   7.481  27.362  0.00  0.00    -0.642 OA
ATOM     12  H   GCD d 527      35.016   7.423  31.942  0.00  0.00     0.093 H 
ATOM     13  H   GCD d 527      36.760   8.603  32.773  0.00  0.00     0.210 HD
ATOM     14  H   GCD d 527      34.762   7.118  29.459  0.00  0.00     0.085 H 
ATOM     15  H   GCD d 527      32.820   8.933  30.951  0.00  0.00     0.210 HD
ATOM     16  H   GCD d 527      35.651  11.563  31.277  0.00  0.00     0.134 H 
ATOM     17  H   GCD d 527      34.699   9.763  32.775  0.00  0.00     0.095 H 
ATOM     18  O5  NGK d 526      31.831  14.102  28.979  0.00  0.00    -0.349 OA
ATOM     19  O1  NGK d 526      33.799  14.987  29.643  0.00  0.00    -0.369 OA
ATOM     20  O7  NGK d 526      32.730  11.973  33.471  0.00  0.00    -0.274 OA
ATOM     21  O2S NGK d 526      29.579   9.851  30.058  0.00  0.00    -0.572 OA
ATOM     22  S   NGK d 526      30.727  10.045  29.006  0.00  0.00     0.252 S 
ATOM     23  O6  NGK d 526      32.105  12.347  25.819  0.00  0.00    -0.398 OA
ATOM     24  O4  NGK d 526      31.502  11.424  29.420  0.00  0.00    -0.246 OA
ATOM     25  C8  NGK d 526      34.311  13.482  34.432  0.00  0.00    -0.003 C 
ATOM     26  O3  NGK d 526      33.806  10.903  30.623  0.00  0.00    -0.348 OA
ATOM     27  N   NGK d 526      33.735  13.468  32.099  0.00  0.00    -0.349 N 
ATOM     28  C7  NGK d 526      33.527  12.897  33.292  0.00  0.00     0.214 C 
ATOM     29  O1S NGK d 526      30.228  10.080  27.658  0.00  0.00    -0.572 OA
ATOM     30  C3  NGK d 526      33.638  12.146  29.980  0.00  0.00     0.094 C 
ATOM     31  C6  NGK d 526      31.366  12.941  26.874  0.00  0.00     0.043 C 
ATOM     32  O3S NGK d 526      31.736   9.023  29.249  0.00  0.00    -0.572 OA
ATOM     33  C2  NGK d 526      32.943  13.142  30.912  0.00  0.00     0.087 C 
ATOM     34  C1  NGK d 526      32.609  14.416  30.128  0.00  0.00     0.151 C 
ATOM     35  C4  NGK d 526      32.699  11.877  28.804  0.00  0.00     0.114 C 
ATOM     36  C5  NGK d 526      32.366  13.157  28.033  0.00  0.00     0.090 C 
ATOM     37  H   NGK d 526      33.591  15.794  29.147  0.00  0.00     0.212 HD
ATOM     38  H   NGK d 526      31.519  12.190  25.062  0.00  0.00     0.209 HD
ATOM     39  H   NGK d 526      34.073  12.958  35.334  0.00  0.00     0.040 H 
ATOM     40  H   NGK d 526      34.060  14.516  34.543  0.00  0.00     0.040 H 
ATOM     41  H   NGK d 526      35.357  13.389  34.230  0.00  0.00     0.040 H 
ATOM     42  H   NGK d 526      34.453  14.137  32.017  0.00  0.00     0.163 HD
ATOM     43  H   NGK d 526      34.583  12.552  29.685  0.00  0.00     0.091 H 
ATOM     44  H   NGK d 526      30.574  12.292  27.184  0.00  0.00     0.078 H 
ATOM     45  H   NGK d 526      30.922  13.863  26.566  0.00  0.00     0.078 H 
ATOM     46  H   NGK d 526      32.047  12.678  31.269  0.00  0.00     0.084 H 
ATOM     47  H   NGK d 526      32.080  15.076  30.783  0.00  0.00     0.132 H 
ATOM     48  H   NGK d 526      33.139  11.190  28.111  0.00  0.00     0.093 H 
ATOM     49  H   NGK d 526      33.263  13.515  27.573  0.00  0.00     0.090 H 
ENDROOT
TORSDOF 12
ENDMDL
MODEL 36
REMARK VINA RESULT:      -6.6      2.952      6.345
REMARK  0 active torsions:
REMARK  status: ('A' for Active; 'I' for Inactive)
REMARK       I    between atoms: C3_1  and  O3_15 
REMARK       I    between atoms: O1_3  and  C1_27 
REMARK       I    between atoms: S_6  and  O4_8 
REMARK       I    between atoms: O6_7  and  C6_23 
REMARK       I    between atoms: O4_8  and  C4_29 
REMARK       I    between atoms: O2_9  and  C2_24 
REMARK       I    between atoms: C8_10  and  C7_18 
REMARK       I    between atoms: O3_11  and  C3_20 
REMARK       I    between atoms: O3_11  and  C1_16 
REMARK       I    between atoms: C6_12  and  C5_22 
REMARK       I    between atoms: N_13  and  C2_26 
REMARK       I    between atoms: N_13  and  C7_18 
REMARK       I    between atoms: C6_23  and  C5_30 
ROOT
ATOM      1  C3  GCD d 527      33.936   9.987  26.675  0.00  0.00     0.084 C 
ATOM      2  O2  GCD d 527      36.049  11.144  27.016  0.00  0.00    -0.388 OA
ATOM      3  C6  GCD d 527      32.112  13.349  26.969  0.00  0.00     0.233 C 
ATOM      4  C4  GCD d 527      33.020  11.173  26.488  0.00  0.00    -0.034 C 
ATOM      5  O3  GCD d 527      33.163   8.861  27.107  0.00  0.00    -0.389 OA
ATOM      6  C1  GCD d 527      34.608  11.162  28.836  0.00  0.00     0.165 C 
ATOM      7  O6B GCD d 527      32.056  14.349  27.722  0.00  0.00    -0.642 OA
ATOM      8  O5  GCD d 527      34.062  12.394  28.334  0.00  0.00    -0.311 OA
ATOM      9  C5  GCD d 527      33.078  12.289  27.248  0.00  0.00     0.147 C 
ATOM     10  C2  GCD d 527      35.076  10.334  27.661  0.00  0.00     0.111 C 
ATOM     11  O6A GCD d 527      31.359  13.199  25.982  0.00  0.00    -0.642 OA
ATOM     12  H   GCD d 527      34.403   9.732  25.747  0.00  0.00     0.093 H 
ATOM     13  H   GCD d 527      36.400  10.674  26.244  0.00  0.00     0.210 HD
ATOM     14  H   GCD d 527      32.311  11.129  25.739  0.00  0.00     0.085 H 
ATOM     15  H   GCD d 527      32.729   9.071  27.949  0.00  0.00     0.210 HD
ATOM     16  H   GCD d 527      35.399  11.409  29.513  0.00  0.00     0.134 H 
ATOM     17  H   GCD d 527      35.458   9.390  27.993  0.00  0.00     0.095 H 
ATOM     18  O5  NGK d 526      32.037  10.621  33.307  0.00  0.00    -0.349 OA
ATOM     19  O1  NGK d 526      33.968  11.781  33.467  0.00  0.00    -0.369 OA
ATOM     20  O7  NGK d 526      35.371   7.912  30.648  0.00  0.00    -0.274 OA
ATOM     21  O2S NGK d 526      30.335   7.474  29.914  0.00  0.00    -0.572 OA
ATOM     22  S   NGK d 526      30.300   9.040  29.820  0.00  0.00     0.252 S 
ATOM     23  O6  NGK d 526      29.373  12.577  31.816  0.00  0.00    -0.398 OA
ATOM     24  O4  NGK d 526      31.450   9.589  30.844  0.00  0.00    -0.246 OA
ATOM     25  C8  NGK d 526      37.454   8.711  31.497  0.00  0.00    -0.003 C 
ATOM     26  O3  NGK d 526      33.611  10.374  29.526  0.00  0.00    -0.348 OA
ATOM     27  N   NGK d 526      35.357   9.829  31.854  0.00  0.00    -0.349 N 
ATOM     28  C7  NGK d 526      35.968   8.784  31.284  0.00  0.00     0.214 C 
ATOM     29  O1S NGK d 526      28.999   9.573  30.119  0.00  0.00    -0.572 OA
ATOM     30  C3  NGK d 526      33.361  10.910  30.806  0.00  0.00     0.094 C 
ATOM     31  C6  NGK d 526      29.871  11.455  32.526  0.00  0.00     0.043 C 
ATOM     32  O3S NGK d 526      30.822   9.422  28.515  0.00  0.00    -0.572 OA
ATOM     33  C2  NGK d 526      33.901   9.975  31.892  0.00  0.00     0.087 C 
ATOM     34  C1  NGK d 526      33.453  10.488  33.264  0.00  0.00     0.151 C 
ATOM     35  C4  NGK d 526      31.839  10.952  30.943  0.00  0.00     0.114 C 
ATOM     36  C5  NGK d 526      31.403  11.458  32.320  0.00  0.00     0.090 C 
ATOM     37  H   NGK d 526      33.686  12.108  34.336  0.00  0.00     0.212 HD
ATOM     38  H   NGK d 526      28.410  12.621  31.914  0.00  0.00     0.209 HD
ATOM     39  H   NGK d 526      37.843   7.845  31.004  0.00  0.00     0.040 H 
ATOM     40  H   NGK d 526      37.661   8.649  32.545  0.00  0.00     0.040 H 
ATOM     41  H   NGK d 526      37.915   9.588  31.093  0.00  0.00     0.040 H 
ATOM     42  H   NGK d 526      35.911  10.531  32.265  0.00  0.00     0.163 HD
ATOM     43  H   NGK d 526      33.825  11.868  30.914  0.00  0.00     0.091 H 
ATOM     44  H   NGK d 526      29.447  10.553  32.138  0.00  0.00     0.078 H 
ATOM     45  H   NGK d 526      29.617  11.507  33.564  0.00  0.00     0.078 H 
ATOM     46  H   NGK d 526      33.498   9.001  31.708  0.00  0.00     0.084 H 
ATOM     47  H   NGK d 526      33.797   9.795  34.003  0.00  0.00     0.132 H 
ATOM     48  H   NGK d 526      31.406  11.601  30.211  0.00  0.00     0.093 H 
ATOM     49  H   NGK d 526      31.702  12.481  32.412  0.00  0.00     0.090 H 
ENDROOT
TORSDOF 12
ENDMDL
MODEL 37
REMARK VINA RESULT:      -6.6      2.715      4.725
REMARK  0 active torsions:
REMARK  status: ('A' for Active; 'I' for Inactive)
REMARK       I    between atoms: C3_1  and  O3_15 
REMARK       I    between atoms: O1_3  and  C1_27 
REMARK       I    between atoms: S_6  and  O4_8 
REMARK       I    between atoms: O6_7  and  C6_23 
REMARK       I    between atoms: O4_8  and  C4_29 
REMARK       I    between atoms: O2_9  and  C2_24 
REMARK       I    between atoms: C8_10  and  C7_18 
REMARK       I    between atoms: O3_11  and  C3_20 
REMARK       I    between atoms: O3_11  and  C1_16 
REMARK       I    between atoms: C6_12  and  C5_22 
REMARK       I    between atoms: N_13  and  C2_26 
REMARK       I    between atoms: N_13  and  C7_18 
REMARK       I    between atoms: C6_23  and  C5_30 
ROOT
ATOM      1  C3  GCD d 527      36.523  10.400  29.283  0.00  0.00     0.084 C 
ATOM      2  O2  GCD d 527      36.167  10.980  26.947  0.00  0.00    -0.388 OA
ATOM      3  C6  GCD d 527      35.908   6.717  28.404  0.00  0.00     0.233 C 
ATOM      4  C4  GCD d 527      36.586   8.895  29.169  0.00  0.00    -0.034 C 
ATOM      5  O3  GCD d 527      36.153  10.752  30.621  0.00  0.00    -0.389 OA
ATOM      6  C1  GCD d 527      34.302  10.152  28.054  0.00  0.00     0.165 C 
ATOM      7  O6B GCD d 527      35.078   5.999  27.798  0.00  0.00    -0.642 OA
ATOM      8  O5  GCD d 527      34.688   8.835  27.625  0.00  0.00    -0.311 OA
ATOM      9  C5  GCD d 527      35.745   8.169  28.400  0.00  0.00     0.147 C 
ATOM     10  C2  GCD d 527      35.553  10.983  28.229  0.00  0.00     0.111 C 
ATOM     11  O6A GCD d 527      36.876   6.246  29.039  0.00  0.00    -0.642 OA
ATOM     12  H   GCD d 527      37.484  10.825  29.081  0.00  0.00     0.093 H 
ATOM     13  H   GCD d 527      36.985  11.500  26.979  0.00  0.00     0.210 HD
ATOM     14  H   GCD d 527      37.311   8.395  29.706  0.00  0.00     0.085 H 
ATOM     15  H   GCD d 527      35.283  10.376  30.826  0.00  0.00     0.210 HD
ATOM     16  H   GCD d 527      33.636  10.552  27.319  0.00  0.00     0.134 H 
ATOM     17  H   GCD d 527      35.309  11.963  28.583  0.00  0.00     0.095 H 
ATOM     18  O5  NGK d 526      29.801   9.198  30.445  0.00  0.00    -0.349 OA
ATOM     19  O1  NGK d 526      29.618   9.640  28.238  0.00  0.00    -0.369 OA
ATOM     20  O7  NGK d 526      32.775  13.214  29.704  0.00  0.00    -0.274 OA
ATOM     21  O2S NGK d 526      33.366  10.120  33.724  0.00  0.00    -0.572 OA
ATOM     22  S   NGK d 526      33.337   8.929  32.702  0.00  0.00     0.252 S 
ATOM     23  O6  NGK d 526      31.043   5.852  31.083  0.00  0.00    -0.398 OA
ATOM     24  O4  NGK d 526      32.314   9.373  31.507  0.00  0.00    -0.246 OA
ATOM     25  C8  NGK d 526      31.939  14.080  27.642  0.00  0.00    -0.003 C 
ATOM     26  O3  NGK d 526      33.641  10.126  29.340  0.00  0.00    -0.348 OA
ATOM     27  N   NGK d 526      31.424  11.882  28.465  0.00  0.00    -0.349 N 
ATOM     28  C7  NGK d 526      32.094  13.018  28.694  0.00  0.00     0.214 C 
ATOM     29  O1S NGK d 526      32.953   7.691  33.323  0.00  0.00    -0.572 OA
ATOM     30  C3  NGK d 526      32.316   9.666  29.202  0.00  0.00     0.094 C 
ATOM     31  C6  NGK d 526      30.439   7.072  31.480  0.00  0.00     0.043 C 
ATOM     32  O3S NGK d 526      34.626   8.889  32.025  0.00  0.00    -0.572 OA
ATOM     33  C2  NGK d 526      31.325  10.806  29.453  0.00  0.00     0.087 C 
ATOM     34  C1  NGK d 526      29.902  10.237  29.479  0.00  0.00     0.151 C 
ATOM     35  C4  NGK d 526      32.124   8.630  30.311  0.00  0.00     0.114 C 
ATOM     36  C5  NGK d 526      30.697   8.076  30.332  0.00  0.00     0.090 C 
ATOM     37  H   NGK d 526      28.717   9.279  28.252  0.00  0.00     0.212 HD
ATOM     38  H   NGK d 526      30.909   5.185  31.774  0.00  0.00     0.209 HD
ATOM     39  H   NGK d 526      32.510  14.942  27.918  0.00  0.00     0.040 H 
ATOM     40  H   NGK d 526      30.907  14.349  27.556  0.00  0.00     0.040 H 
ATOM     41  H   NGK d 526      32.289  13.706  26.703  0.00  0.00     0.040 H 
ATOM     42  H   NGK d 526      30.979  11.765  27.595  0.00  0.00     0.163 HD
ATOM     43  H   NGK d 526      32.150   9.274  28.220  0.00  0.00     0.091 H 
ATOM     44  H   NGK d 526      30.881   7.427  32.388  0.00  0.00     0.078 H 
ATOM     45  H   NGK d 526      29.393   6.948  31.661  0.00  0.00     0.078 H 
ATOM     46  H   NGK d 526      31.570  11.244  30.398  0.00  0.00     0.084 H 
ATOM     47  H   NGK d 526      29.231  11.040  29.705  0.00  0.00     0.132 H 
ATOM     48  H   NGK d 526      32.788   7.802  30.180  0.00  0.00     0.093 H 
ATOM     49  H   NGK d 526      30.537   7.525  29.430  0.00  0.00     0.090 H 
ENDROOT
TORSDOF 12
ENDMDL
MODEL 38
REMARK VINA RESULT:      -6.6      3.124      6.016
REMARK  0 active torsions:
REMARK  status: ('A' for Active; 'I' for Inactive)
REMARK       I    between atoms: C3_1  and  O3_15 
REMARK       I    between atoms: O1_3  and  C1_27 
REMARK       I    between atoms: S_6  and  O4_8 
REMARK       I    between atoms: O6_7  and  C6_23 
REMARK       I    between atoms: O4_8  and  C4_29 
REMARK       I    between atoms: O2_9  and  C2_24 
REMARK       I    between atoms: C8_10  and  C7_18 
REMARK       I    between atoms: O3_11  and  C3_20 
REMARK       I    between atoms: O3_11  and  C1_16 
REMARK       I    between atoms: C6_12  and  C5_22 
REMARK       I    between atoms: N_13  and  C2_26 
REMARK       I    between atoms: N_13  and  C7_18 
REMARK       I    between atoms: C6_23  and  C5_30 
ROOT
ATOM      1  C3  GCD d 527      38.444   7.328  27.798  0.00  0.00     0.084 C 
ATOM      2  O2  GCD d 527      37.352   7.028  25.645  0.00  0.00    -0.388 OA
ATOM      3  C6  GCD d 527      37.446   3.745  28.739  0.00  0.00     0.233 C 
ATOM      4  C4  GCD d 527      38.414   5.904  28.303  0.00  0.00    -0.034 C 
ATOM      5  O3  GCD d 527      38.553   8.218  28.915  0.00  0.00    -0.389 OA
ATOM      6  C1  GCD d 527      35.934   7.006  27.483  0.00  0.00     0.165 C 
ATOM      7  O6B GCD d 527      36.437   3.001  28.753  0.00  0.00    -0.642 OA
ATOM      8  O5  GCD d 527      36.111   5.580  27.545  0.00  0.00    -0.311 OA
ATOM      9  C5  GCD d 527      37.341   5.092  28.183  0.00  0.00     0.147 C 
ATOM     10  C2  GCD d 527      37.200   7.620  26.928  0.00  0.00     0.111 C 
ATOM     11  O6A GCD d 527      38.554   3.396  29.202  0.00  0.00    -0.642 OA
ATOM     12  H   GCD d 527      39.297   7.478  27.170  0.00  0.00     0.093 H 
ATOM     13  H   GCD d 527      38.152   7.377  25.221  0.00  0.00     0.210 HD
ATOM     14  H   GCD d 527      39.259   5.532  28.764  0.00  0.00     0.085 H 
ATOM     15  H   GCD d 527      37.788   8.098  29.499  0.00  0.00     0.210 HD
ATOM     16  H   GCD d 527      35.076   7.202  26.876  0.00  0.00     0.134 H 
ATOM     17  H   GCD d 527      37.121   8.687  26.899  0.00  0.00     0.095 H 
ATOM     18  O5  NGK d 526      32.454   7.797  31.244  0.00  0.00    -0.349 OA
ATOM     19  O1  NGK d 526      31.563   7.392  29.209  0.00  0.00    -0.369 OA
ATOM     20  O7  NGK d 526      35.148  10.674  28.084  0.00  0.00    -0.274 OA
ATOM     21  O2S NGK d 526      36.935   9.286  32.662  0.00  0.00    -0.572 OA
ATOM     22  S   NGK d 526      36.528   7.819  32.281  0.00  0.00     0.252 S 
ATOM     23  O6  NGK d 526      33.722   4.787  32.818  0.00  0.00    -0.398 OA
ATOM     24  O4  NGK d 526      35.181   7.939  31.361  0.00  0.00    -0.246 OA
ATOM     25  C8  NGK d 526      33.704  10.819  26.187  0.00  0.00    -0.003 C 
ATOM     26  O3  NGK d 526      35.738   7.581  28.795  0.00  0.00    -0.348 OA
ATOM     27  N   NGK d 526      33.418   9.217  27.955  0.00  0.00    -0.349 N 
ATOM     28  C7  NGK d 526      34.164  10.226  27.489  0.00  0.00     0.214 C 
ATOM     29  O1S NGK d 526      36.330   6.991  33.439  0.00  0.00    -0.572 OA
ATOM     30  C3  NGK d 526      34.427   7.331  29.250  0.00  0.00     0.094 C 
ATOM     31  C6  NGK d 526      33.327   6.149  32.832  0.00  0.00     0.043 C 
ATOM     32  O3S NGK d 526      37.516   7.310  31.339  0.00  0.00    -0.572 OA
ATOM     33  C2  NGK d 526      33.615   8.629  29.282  0.00  0.00     0.087 C 
ATOM     34  C1  NGK d 526      32.264   8.359  29.951  0.00  0.00     0.151 C 
ATOM     35  C4  NGK d 526      34.579   6.842  30.690  0.00  0.00     0.114 C 
ATOM     36  C5  NGK d 526      33.223   6.584  31.351  0.00  0.00     0.090 C 
ATOM     37  H   NGK d 526      30.706   7.220  29.631  0.00  0.00     0.212 HD
ATOM     38  H   NGK d 526      33.802   4.465  33.729  0.00  0.00     0.209 HD
ATOM     39  H   NGK d 526      34.364  11.612  25.904  0.00  0.00     0.040 H 
ATOM     40  H   NGK d 526      32.713  11.203  26.302  0.00  0.00     0.040 H 
ATOM     41  H   NGK d 526      33.709  10.063  25.430  0.00  0.00     0.040 H 
ATOM     42  H   NGK d 526      32.705   8.855  27.382  0.00  0.00     0.163 HD
ATOM     43  H   NGK d 526      33.931   6.630  28.612  0.00  0.00     0.091 H 
ATOM     44  H   NGK d 526      34.057   6.743  33.341  0.00  0.00     0.078 H 
ATOM     45  H   NGK d 526      32.396   6.279  33.342  0.00  0.00     0.078 H 
ATOM     46  H   NGK d 526      34.175   9.345  29.846  0.00  0.00     0.084 H 
ATOM     47  H   NGK d 526      31.734   9.288  30.009  0.00  0.00     0.132 H 
ATOM     48  H   NGK d 526      35.133   5.928  30.728  0.00  0.00     0.093 H 
ATOM     49  H   NGK d 526      32.753   5.766  30.846  0.00  0.00     0.090 H 
ENDROOT
TORSDOF 12
ENDMDL
MODEL 39
REMARK VINA RESULT:      -6.6      2.479      5.475
REMARK  0 active torsions:
REMARK  status: ('A' for Active; 'I' for Inactive)
REMARK       I    between atoms: C3_1  and  O3_15 
REMARK       I    between atoms: O1_3  and  C1_27 
REMARK       I    between atoms: S_6  and  O4_8 
REMARK       I    between atoms: O6_7  and  C6_23 
REMARK       I    between atoms: O4_8  and  C4_29 
REMARK       I    between atoms: O2_9  and  C2_24 
REMARK       I    between atoms: C8_10  and  C7_18 
REMARK       I    between atoms: O3_11  and  C3_20 
REMARK       I    between atoms: O3_11  and  C1_16 
REMARK       I    between atoms: C6_12  and  C5_22 
REMARK       I    between atoms: N_13  and  C2_26 
REMARK       I    between atoms: N_13  and  C7_18 
REMARK       I    between atoms: C6_23  and  C5_30 
ROOT
ATOM      1  C3  GCD d 527      32.245  12.568  27.346  0.00  0.00     0.084 C 
ATOM      2  O2  GCD d 527      31.757  14.221  29.063  0.00  0.00    -0.388 OA
ATOM      3  C6  GCD d 527      29.851  10.130  29.090  0.00  0.00     0.233 C 
ATOM      4  C4  GCD d 527      31.188  11.540  27.669  0.00  0.00    -0.034 C 
ATOM      5  O3  GCD d 527      33.316  11.932  26.638  0.00  0.00    -0.389 OA
ATOM      6  C1  GCD d 527      32.877  12.328  29.805  0.00  0.00     0.165 C 
ATOM      7  O6B GCD d 527      29.618   9.662  30.229  0.00  0.00    -0.642 OA
ATOM      8  O5  GCD d 527      31.597  11.731  30.074  0.00  0.00    -0.311 OA
ATOM      9  C5  GCD d 527      30.881  11.153  28.927  0.00  0.00     0.147 C 
ATOM     10  C2  GCD d 527      32.726  13.274  28.635  0.00  0.00     0.111 C 
ATOM     11  O6A GCD d 527      29.249   9.748  28.062  0.00  0.00    -0.642 OA
ATOM     12  H   GCD d 527      31.837  13.330  26.715  0.00  0.00     0.093 H 
ATOM     13  H   GCD d 527      31.604  14.869  28.358  0.00  0.00     0.210 HD
ATOM     14  H   GCD d 527      30.671  11.108  26.887  0.00  0.00     0.085 H 
ATOM     15  H   GCD d 527      33.701  11.236  27.193  0.00  0.00     0.210 HD
ATOM     16  H   GCD d 527      33.202  12.819  30.698  0.00  0.00     0.134 H 
ATOM     17  H   GCD d 527      33.668  13.714  28.380  0.00  0.00     0.095 H 
ATOM     18  O5  NGK d 526      36.123   8.697  31.583  0.00  0.00    -0.349 OA
ATOM     19  O1  NGK d 526      35.500  10.232  33.117  0.00  0.00    -0.369 OA
ATOM     20  O7  NGK d 526      36.539  13.125  29.188  0.00  0.00    -0.274 OA
ATOM     21  O2S NGK d 526      36.049   8.718  26.653  0.00  0.00    -0.572 OA
ATOM     22  S   NGK d 526      34.830   8.413  27.593  0.00  0.00     0.252 S 
ATOM     23  O6  NGK d 526      33.510   6.274  30.915  0.00  0.00    -0.398 OA
ATOM     24  O4  NGK d 526      35.188   9.079  29.042  0.00  0.00    -0.246 OA
ATOM     25  C8  NGK d 526      36.655  14.667  31.006  0.00  0.00    -0.003 C 
ATOM     26  O3  NGK d 526      33.859  11.341  29.413  0.00  0.00    -0.348 OA
ATOM     27  N   NGK d 526      35.938  12.386  31.243  0.00  0.00    -0.349 N 
ATOM     28  C7  NGK d 526      36.364  13.328  30.392  0.00  0.00     0.214 C 
ATOM     29  O1S NGK d 526      34.556   7.005  27.687  0.00  0.00    -0.572 OA
ATOM     30  C3  NGK d 526      34.311  10.624  30.539  0.00  0.00     0.094 C 
ATOM     31  C6  NGK d 526      34.846   6.743  30.841  0.00  0.00     0.043 C 
ATOM     32  O3S NGK d 526      33.703   9.217  27.139  0.00  0.00    -0.572 OA
ATOM     33  C2  NGK d 526      35.765  10.985  30.856  0.00  0.00     0.087 C 
ATOM     34  C1  NGK d 526      36.282  10.059  31.961  0.00  0.00     0.151 C 
ATOM     35  C4  NGK d 526      34.276   9.151  30.129  0.00  0.00     0.114 C 
ATOM     36  C5  NGK d 526      34.803   8.237  31.237  0.00  0.00     0.090 C 
ATOM     37  H   NGK d 526      35.825   9.647  33.818  0.00  0.00     0.212 HD
ATOM     38  H   NGK d 526      33.483   5.335  30.673  0.00  0.00     0.209 HD
ATOM     39  H   NGK d 526      36.986  15.344  30.247  0.00  0.00     0.040 H 
ATOM     40  H   NGK d 526      37.419  14.561  31.747  0.00  0.00     0.040 H 
ATOM     41  H   NGK d 526      35.766  15.051  31.463  0.00  0.00     0.040 H 
ATOM     42  H   NGK d 526      35.734  12.647  32.169  0.00  0.00     0.163 HD
ATOM     43  H   NGK d 526      33.707  10.841  31.395  0.00  0.00     0.091 H 
ATOM     44  H   NGK d 526      35.223   6.635  29.845  0.00  0.00     0.078 H 
ATOM     45  H   NGK d 526      35.491   6.187  31.488  0.00  0.00     0.078 H 
ATOM     46  H   NGK d 526      36.332  10.850  29.959  0.00  0.00     0.084 H 
ATOM     47  H   NGK d 526      37.313  10.293  32.131  0.00  0.00     0.132 H 
ATOM     48  H   NGK d 526      33.277   8.840  29.903  0.00  0.00     0.093 H 
ATOM     49  H   NGK d 526      34.130   8.292  32.067  0.00  0.00     0.090 H 
ENDROOT
TORSDOF 12
ENDMDL
MODEL 40
REMARK VINA RESULT:      -6.5      2.646      5.723
REMARK  0 active torsions:
REMARK  status: ('A' for Active; 'I' for Inactive)
REMARK       I    between atoms: C3_1  and  O3_15 
REMARK       I    between atoms: O1_3  and  C1_27 
REMARK       I    between atoms: S_6  and  O4_8 
REMARK       I    between atoms: O6_7  and  C6_23 
REMARK       I    between atoms: O4_8  and  C4_29 
REMARK       I    between atoms: O2_9  and  C2_24 
REMARK       I    between atoms: C8_10  and  C7_18 
REMARK       I    between atoms: O3_11  and  C3_20 
REMARK       I    between atoms: O3_11  and  C1_16 
REMARK       I    between atoms: C6_12  and  C5_22 
REMARK       I    between atoms: N_13  and  C2_26 
REMARK       I    between atoms: N_13  and  C7_18 
REMARK       I    between atoms: C6_23  and  C5_30 
ROOT
ATOM      1  C3  GCD d 527      34.920  11.388  27.202  0.00  0.00     0.084 C 
ATOM      2  O2  GCD d 527      34.427  12.978  28.976  0.00  0.00    -0.388 OA
ATOM      3  C6  GCD d 527      32.048   9.178  28.460  0.00  0.00     0.233 C 
ATOM      4  C4  GCD d 527      33.713  10.488  27.319  0.00  0.00    -0.034 C 
ATOM      5  O3  GCD d 527      35.985  10.664  26.575  0.00  0.00    -0.389 OA
ATOM      6  C1  GCD d 527      35.207  10.912  29.691  0.00  0.00     0.165 C 
ATOM      7  O6B GCD d 527      31.619   8.673  29.524  0.00  0.00    -0.642 OA
ATOM      8  O5  GCD d 527      33.840  10.471  29.762  0.00  0.00    -0.311 OA
ATOM      9  C5  GCD d 527      33.207  10.066  28.499  0.00  0.00     0.147 C 
ATOM     10  C2  GCD d 527      35.319  11.942  28.589  0.00  0.00     0.111 C 
ATOM     11  O6A GCD d 527      31.536   8.944  27.344  0.00  0.00    -0.642 OA
ATOM     12  H   GCD d 527      34.690  12.235  26.591  0.00  0.00     0.093 H 
ATOM     13  H   GCD d 527      34.444  13.684  28.311  0.00  0.00     0.210 HD
ATOM     14  H   GCD d 527      33.249  10.178  26.451  0.00  0.00     0.085 H 
ATOM     15  H   GCD d 527      36.210   9.889  27.114  0.00  0.00     0.210 HD
ATOM     16  H   GCD d 527      35.475  11.298  30.651  0.00  0.00     0.134 H 
ATOM     17  H   GCD d 527      36.332  12.270  28.481  0.00  0.00     0.095 H 
ATOM     18  O5  NGK d 526      37.739   6.782  31.540  0.00  0.00    -0.349 OA
ATOM     19  O1  NGK d 526      37.121   8.285  33.108  0.00  0.00    -0.369 OA
ATOM     20  O7  NGK d 526      38.987  11.261  29.565  0.00  0.00    -0.274 OA
ATOM     21  O2S NGK d 526      38.282   7.126  26.652  0.00  0.00    -0.572 OA
ATOM     22  S   NGK d 526      36.927   6.924  27.418  0.00  0.00     0.252 S 
ATOM     23  O6  NGK d 526      34.953   4.769  30.386  0.00  0.00    -0.398 OA
ATOM     24  O4  NGK d 526      37.181   7.443  28.947  0.00  0.00    -0.246 OA
ATOM     25  C8  NGK d 526      39.062  12.657  31.501  0.00  0.00    -0.003 C 
ATOM     26  O3  NGK d 526      36.102   9.832  29.338  0.00  0.00    -0.348 OA
ATOM     27  N   NGK d 526      38.049  10.478  31.473  0.00  0.00    -0.349 N 
ATOM     28  C7  NGK d 526      38.689  11.408  30.753  0.00  0.00     0.214 C 
ATOM     29  O1S NGK d 526      36.474   5.560  27.369  0.00  0.00    -0.572 OA
ATOM     30  C3  NGK d 526      36.319   8.992  30.449  0.00  0.00     0.094 C 
ATOM     31  C6  NGK d 526      36.335   5.063  30.504  0.00  0.00     0.043 C 
ATOM     32  O3S NGK d 526      35.972   7.895  26.902  0.00  0.00    -0.572 OA
ATOM     33  C2  NGK d 526      37.755   9.139  30.959  0.00  0.00     0.087 C 
ATOM     34  C1  NGK d 526      38.014   8.085  32.041  0.00  0.00     0.151 C 
ATOM     35  C4  NGK d 526      36.156   7.566  29.923  0.00  0.00     0.114 C 
ATOM     36  C5  NGK d 526      36.425   6.522  31.010  0.00  0.00     0.090 C 
ATOM     37  H   NGK d 526      37.283   7.619  33.794  0.00  0.00     0.212 HD
ATOM     38  H   NGK d 526      34.842   3.859  30.070  0.00  0.00     0.209 HD
ATOM     39  H   NGK d 526      39.565  13.331  30.840  0.00  0.00     0.040 H 
ATOM     40  H   NGK d 526      39.710  12.404  32.315  0.00  0.00     0.040 H 
ATOM     41  H   NGK d 526      38.178  13.123  31.881  0.00  0.00     0.040 H 
ATOM     42  H   NGK d 526      37.764  10.704  32.387  0.00  0.00     0.163 HD
ATOM     43  H   NGK d 526      35.644   9.231  31.245  0.00  0.00     0.091 H 
ATOM     44  H   NGK d 526      36.817   4.970  29.554  0.00  0.00     0.078 H 
ATOM     45  H   NGK d 526      36.821   4.387  31.176  0.00  0.00     0.078 H 
ATOM     46  H   NGK d 526      38.410   8.988  30.126  0.00  0.00     0.084 H 
ATOM     47  H   NGK d 526      39.037   8.171  32.346  0.00  0.00     0.132 H 
ATOM     48  H   NGK d 526      35.163   7.402  29.560  0.00  0.00     0.093 H 
ATOM     49  H   NGK d 526      35.666   6.612  31.758  0.00  0.00     0.090 H 
ENDROOT
TORSDOF 12
ENDMDL
MODEL 41
REMARK VINA RESULT:      -6.5      2.754      5.363
REMARK  0 active torsions:
REMARK  status: ('A' for Active; 'I' for Inactive)
REMARK       I    between atoms: C3_1  and  O3_15 
REMARK       I    between atoms: O1_3  and  C1_27 
REMARK       I    between atoms: S_6  and  O4_8 
REMARK       I    between atoms: O6_7  and  C6_23 
REMARK       I    between atoms: O4_8  and  C4_29 
REMARK       I    between atoms: O2_9  and  C2_24 
REMARK       I    between atoms: C8_10  and  C7_18 
REMARK       I    between atoms: O3_11  and  C3_20 
REMARK       I    between atoms: O3_11  and  C1_16 
REMARK       I    between atoms: C6_12  and  C5_22 
REMARK       I    between atoms: N_13  and  C2_26 
REMARK       I    between atoms: N_13  and  C7_18 
REMARK       I    between atoms: C6_23  and  C5_30 
ROOT
ATOM      1  C3  GCD d 527      31.384  13.105  31.460  0.00  0.00     0.084 C 
ATOM      2  O2  GCD d 527      32.496  12.662  33.577  0.00  0.00    -0.388 OA
ATOM      3  C6  GCD d 527      30.976   9.325  30.946  0.00  0.00     0.233 C 
ATOM      4  C4  GCD d 527      30.868  11.721  31.144  0.00  0.00    -0.034 C 
ATOM      5  O3  GCD d 527      31.491  13.853  30.243  0.00  0.00    -0.389 OA
ATOM      6  C1  GCD d 527      33.641  11.941  31.690  0.00  0.00     0.165 C 
ATOM      7  O6B GCD d 527      31.655   8.272  30.980  0.00  0.00    -0.642 OA
ATOM      8  O5  GCD d 527      32.973  10.675  31.823  0.00  0.00    -0.311 OA
ATOM      9  C5  GCD d 527      31.596  10.596  31.315  0.00  0.00     0.147 C 
ATOM     10  C2  GCD d 527      32.726  13.022  32.222  0.00  0.00     0.111 C 
ATOM     11  O6A GCD d 527      29.778   9.350  30.588  0.00  0.00    -0.642 OA
ATOM     12  H   GCD d 527      30.699  13.615  32.104  0.00  0.00     0.093 H 
ATOM     13  H   GCD d 527      31.912  13.315  33.991  0.00  0.00     0.210 HD
ATOM     14  H   GCD d 527      29.908  11.630  30.778  0.00  0.00     0.085 H 
ATOM     15  H   GCD d 527      32.108  13.407  29.643  0.00  0.00     0.210 HD
ATOM     16  H   GCD d 527      34.566  11.879  32.224  0.00  0.00     0.134 H 
ATOM     17  H   GCD d 527      33.176  13.987  32.107  0.00  0.00     0.095 H 
ATOM     18  O5  NGK d 526      36.815  11.036  27.691  0.00  0.00    -0.349 OA
ATOM     19  O1  NGK d 526      37.693  10.554  29.715  0.00  0.00    -0.369 OA
ATOM     20  O7  NGK d 526      35.600  15.000  30.578  0.00  0.00    -0.274 OA
ATOM     21  O2S NGK d 526      33.026  13.874  26.313  0.00  0.00    -0.572 OA
ATOM     22  S   NGK d 526      32.928  12.407  26.863  0.00  0.00     0.252 S 
ATOM     23  O6  NGK d 526      34.436   8.533  26.588  0.00  0.00    -0.398 OA
ATOM     24  O4  NGK d 526      34.311  12.133  27.691  0.00  0.00    -0.246 OA
ATOM     25  C8  NGK d 526      37.172  14.816  32.366  0.00  0.00    -0.003 C 
ATOM     26  O3  NGK d 526      33.904  12.268  30.306  0.00  0.00    -0.348 OA
ATOM     27  N   NGK d 526      36.716  13.042  30.810  0.00  0.00    -0.349 N 
ATOM     28  C7  NGK d 526      36.416  14.294  31.177  0.00  0.00     0.214 C 
ATOM     29  O1S NGK d 526      32.717  11.447  25.813  0.00  0.00    -0.572 OA
ATOM     30  C3  NGK d 526      34.996  11.519  29.824  0.00  0.00     0.094 C 
ATOM     31  C6  NGK d 526      35.279   9.654  26.377  0.00  0.00     0.043 C 
ATOM     32  O3S NGK d 526      31.916  12.387  27.910  0.00  0.00    -0.572 OA
ATOM     33  C2  NGK d 526      36.204  12.429  29.583  0.00  0.00     0.087 C 
ATOM     34  C1  NGK d 526      37.308  11.625  28.889  0.00  0.00     0.151 C 
ATOM     35  C4  NGK d 526      34.551  10.969  28.469  0.00  0.00     0.114 C 
ATOM     36  C5  NGK d 526      35.664  10.174  27.781  0.00  0.00     0.090 C 
ATOM     37  H   NGK d 526      38.392  10.043  29.278  0.00  0.00     0.212 HD
ATOM     38  H   NGK d 526      34.164   8.168  25.732  0.00  0.00     0.209 HD
ATOM     39  H   NGK d 526      36.860  15.817  32.576  0.00  0.00     0.040 H 
ATOM     40  H   NGK d 526      38.221  14.805  32.154  0.00  0.00     0.040 H 
ATOM     41  H   NGK d 526      36.973  14.196  33.215  0.00  0.00     0.040 H 
ATOM     42  H   NGK d 526      37.307  12.511  31.391  0.00  0.00     0.163 HD
ATOM     43  H   NGK d 526      35.273  10.757  30.523  0.00  0.00     0.091 H 
ATOM     44  H   NGK d 526      34.759  10.413  25.831  0.00  0.00     0.078 H 
ATOM     45  H   NGK d 526      36.145   9.388  25.809  0.00  0.00     0.078 H 
ATOM     46  H   NGK d 526      35.880  13.235  28.959  0.00  0.00     0.084 H 
ATOM     47  H   NGK d 526      38.121  12.291  28.685  0.00  0.00     0.132 H 
ATOM     48  H   NGK d 526      33.711  10.315  28.578  0.00  0.00     0.093 H 
ATOM     49  H   NGK d 526      35.864   9.300  28.365  0.00  0.00     0.090 H 
ENDROOT
TORSDOF 12
ENDMDL
MODEL 42
REMARK VINA RESULT:      -6.5      3.158      4.819
REMARK  0 active torsions:
REMARK  status: ('A' for Active; 'I' for Inactive)
REMARK       I    between atoms: C3_1  and  O3_15 
REMARK       I    between atoms: O1_3  and  C1_27 
REMARK       I    between atoms: S_6  and  O4_8 
REMARK       I    between atoms: O6_7  and  C6_23 
REMARK       I    between atoms: O4_8  and  C4_29 
REMARK       I    between atoms: O2_9  and  C2_24 
REMARK       I    between atoms: C8_10  and  C7_18 
REMARK       I    between atoms: O3_11  and  C3_20 
REMARK       I    between atoms: O3_11  and  C1_16 
REMARK       I    between atoms: C6_12  and  C5_22 
REMARK       I    between atoms: N_13  and  C2_26 
REMARK       I    between atoms: N_13  and  C7_18 
REMARK       I    between atoms: C6_23  and  C5_30 
ROOT
ATOM      1  C3  GCD d 527      32.867  13.507  30.955  0.00  0.00     0.084 C 
ATOM      2  O2  GCD d 527      30.435  13.512  31.003  0.00  0.00    -0.388 OA
ATOM      3  C6  GCD d 527      32.735  12.998  27.155  0.00  0.00     0.233 C 
ATOM      4  C4  GCD d 527      33.096  13.573  29.464  0.00  0.00    -0.034 C 
ATOM      5  O3  GCD d 527      34.025  12.943  31.582  0.00  0.00    -0.389 OA
ATOM      6  C1  GCD d 527      31.406  11.495  30.391  0.00  0.00     0.165 C 
ATOM      7  O6B GCD d 527      32.184  12.263  26.303  0.00  0.00    -0.642 OA
ATOM      8  O5  GCD d 527      31.339  11.929  29.022  0.00  0.00    -0.311 OA
ATOM      9  C5  GCD d 527      32.389  12.851  28.567  0.00  0.00     0.147 C 
ATOM     10  C2  GCD d 527      31.578  12.713  31.271  0.00  0.00     0.111 C 
ATOM     11  O6A GCD d 527      33.595  13.856  26.858  0.00  0.00    -0.642 OA
ATOM     12  H   GCD d 527      32.723  14.491  31.350  0.00  0.00     0.093 H 
ATOM     13  H   GCD d 527      30.474  14.321  31.537  0.00  0.00     0.210 HD
ATOM     14  H   GCD d 527      33.832  14.204  29.110  0.00  0.00     0.085 H 
ATOM     15  H   GCD d 527      34.175  12.048  31.238  0.00  0.00     0.210 HD
ATOM     16  H   GCD d 527      30.510  10.951  30.604  0.00  0.00     0.134 H 
ATOM     17  H   GCD d 527      31.669  12.427  32.298  0.00  0.00     0.095 H 
ATOM     18  O5  NGK d 526      33.249   6.676  29.871  0.00  0.00    -0.349 OA
ATOM     19  O1  NGK d 526      30.997   6.832  29.817  0.00  0.00    -0.369 OA
ATOM     20  O7  NGK d 526      32.097   9.764  33.700  0.00  0.00    -0.274 OA
ATOM     21  O2S NGK d 526      36.740   9.713  31.573  0.00  0.00    -0.572 OA
ATOM     22  S   NGK d 526      36.012   9.829  30.188  0.00  0.00     0.252 S 
ATOM     23  O6  NGK d 526      34.783   7.778  26.777  0.00  0.00    -0.398 OA
ATOM     24  O4  NGK d 526      34.609   9.001  30.335  0.00  0.00    -0.246 OA
ATOM     25  C8  NGK d 526      29.794   9.256  34.076  0.00  0.00    -0.003 C 
ATOM     26  O3  NGK d 526      32.553  10.647  30.630  0.00  0.00    -0.348 OA
ATOM     27  N   NGK d 526      30.993   8.604  32.098  0.00  0.00    -0.349 N 
ATOM     28  C7  NGK d 526      31.065   9.241  33.273  0.00  0.00     0.214 C 
ATOM     29  O1S NGK d 526      36.824   9.344  29.105  0.00  0.00    -0.572 OA
ATOM     30  C3  NGK d 526      32.323   9.354  30.119  0.00  0.00     0.094 C 
ATOM     31  C6  NGK d 526      34.808   7.132  28.039  0.00  0.00     0.043 C 
ATOM     32  O3S NGK d 526      35.559  11.204  30.033  0.00  0.00    -0.572 OA
ATOM     33  C2  NGK d 526      32.167   8.347  31.261  0.00  0.00     0.087 C 
ATOM     34  C1  NGK d 526      32.105   6.931  30.677  0.00  0.00     0.151 C 
ATOM     35  C4  NGK d 526      33.590   8.987  29.345  0.00  0.00     0.114 C 
ATOM     36  C5  NGK d 526      33.520   7.569  28.774  0.00  0.00     0.090 C 
ATOM     37  H   NGK d 526      30.955   5.937  29.446  0.00  0.00     0.212 HD
ATOM     38  H   NGK d 526      35.575   7.535  26.273  0.00  0.00     0.209 HD
ATOM     39  H   NGK d 526      29.957   9.787  34.990  0.00  0.00     0.040 H 
ATOM     40  H   NGK d 526      29.499   8.251  34.294  0.00  0.00     0.040 H 
ATOM     41  H   NGK d 526      29.024   9.741  33.514  0.00  0.00     0.040 H 
ATOM     42  H   NGK d 526      30.114   8.294  31.783  0.00  0.00     0.163 HD
ATOM     43  H   NGK d 526      31.437   9.335  29.518  0.00  0.00     0.091 H 
ATOM     44  H   NGK d 526      35.672   7.434  28.593  0.00  0.00     0.078 H 
ATOM     45  H   NGK d 526      34.854   6.069  27.931  0.00  0.00     0.078 H 
ATOM     46  H   NGK d 526      33.018   8.450  31.900  0.00  0.00     0.084 H 
ATOM     47  H   NGK d 526      32.047   6.241  31.494  0.00  0.00     0.132 H 
ATOM     48  H   NGK d 526      33.745   9.656  28.525  0.00  0.00     0.093 H 
ATOM     49  H   NGK d 526      32.747   7.542  28.035  0.00  0.00     0.090 H 
ENDROOT
TORSDOF 12
ENDMDL
MODEL 43
REMARK VINA RESULT:      -6.5      2.717      5.672
REMARK  0 active torsions:
REMARK  status: ('A' for Active; 'I' for Inactive)
REMARK       I    between atoms: C3_1  and  O3_15 
REMARK       I    between atoms: O1_3  and  C1_27 
REMARK       I    between atoms: S_6  and  O4_8 
REMARK       I    between atoms: O6_7  and  C6_23 
REMARK       I    between atoms: O4_8  and  C4_29 
REMARK       I    between atoms: O2_9  and  C2_24 
REMARK       I    between atoms: C8_10  and  C7_18 
REMARK       I    between atoms: O3_11  and  C3_20 
REMARK       I    between atoms: O3_11  and  C1_16 
REMARK       I    between atoms: C6_12  and  C5_22 
REMARK       I    between atoms: N_13  and  C2_26 
REMARK       I    between atoms: N_13  and  C7_18 
REMARK       I    between atoms: C6_23  and  C5_30 
ROOT
ATOM      1  C3  GCD d 527      36.226  10.494  29.333  0.00  0.00     0.084 C 
ATOM      2  O2  GCD d 527      36.659  12.888  29.301  0.00  0.00    -0.388 OA
ATOM      3  C6  GCD d 527      34.010  10.910  26.229  0.00  0.00     0.233 C 
ATOM      4  C4  GCD d 527      35.540  10.338  27.997  0.00  0.00    -0.034 C 
ATOM      5  O3  GCD d 527      35.841   9.410  30.186  0.00  0.00    -0.389 OA
ATOM      6  C1  GCD d 527      34.462  12.288  29.750  0.00  0.00     0.165 C 
ATOM      7  O6B GCD d 527      33.063  11.616  25.812  0.00  0.00    -0.642 OA
ATOM      8  O5  GCD d 527      34.202  12.358  28.337  0.00  0.00    -0.311 OA
ATOM      9  C5  GCD d 527      34.608  11.199  27.530  0.00  0.00     0.147 C 
ATOM     10  C2  GCD d 527      35.903  11.875  29.950  0.00  0.00     0.111 C 
ATOM     11  O6A GCD d 527      34.468   9.940  25.585  0.00  0.00    -0.642 OA
ATOM     12  H   GCD d 527      37.288  10.457  29.208  0.00  0.00     0.093 H 
ATOM     13  H   GCD d 527      37.604  12.691  29.387  0.00  0.00     0.210 HD
ATOM     14  H   GCD d 527      35.796   9.530  27.408  0.00  0.00     0.085 H 
ATOM     15  H   GCD d 527      34.880   9.424  30.313  0.00  0.00     0.210 HD
ATOM     16  H   GCD d 527      34.242  13.247  30.170  0.00  0.00     0.134 H 
ATOM     17  H   GCD d 527      36.127  11.777  30.992  0.00  0.00     0.095 H 
ATOM     18  O5  NGK d 526      29.740  11.273  31.637  0.00  0.00    -0.349 OA
ATOM     19  O1  NGK d 526      30.225  13.470  31.449  0.00  0.00    -0.369 OA
ATOM     20  O7  NGK d 526      34.415  11.707  33.503  0.00  0.00    -0.274 OA
ATOM     21  O2S NGK d 526      32.591   7.253  31.794  0.00  0.00    -0.572 OA
ATOM     22  S   NGK d 526      32.157   8.027  30.499  0.00  0.00     0.252 S 
ATOM     23  O6  NGK d 526      28.974   9.750  28.437  0.00  0.00    -0.398 OA
ATOM     24  O4  NGK d 526      31.745   9.534  30.980  0.00  0.00    -0.246 OA
ATOM     25  C8  NGK d 526      34.537  14.037  34.006  0.00  0.00    -0.003 C 
ATOM     26  O3  NGK d 526      33.651  11.280  30.397  0.00  0.00    -0.348 OA
ATOM     27  N   NGK d 526      32.837  13.067  32.613  0.00  0.00    -0.349 N 
ATOM     28  C7  NGK d 526      33.933  12.831  33.345  0.00  0.00     0.214 C 
ATOM     29  O1S NGK d 526      31.090   7.362  29.801  0.00  0.00    -0.572 OA
ATOM     30  C3  NGK d 526      32.328  11.742  30.555  0.00  0.00     0.094 C 
ATOM     31  C6  NGK d 526      29.008   9.761  29.855  0.00  0.00     0.043 C 
ATOM     32  O3S NGK d 526      33.349   8.260  29.695  0.00  0.00    -0.572 OA
ATOM     33  C2  NGK d 526      32.023  11.996  32.033  0.00  0.00     0.087 C 
ATOM     34  C1  NGK d 526      30.533  12.316  32.191  0.00  0.00     0.151 C 
ATOM     35  C4  NGK d 526      31.434  10.594  30.086  0.00  0.00     0.114 C 
ATOM     36  C5  NGK d 526      29.948  10.921  30.256  0.00  0.00     0.090 C 
ATOM     37  H   NGK d 526      29.282  13.675  31.547  0.00  0.00     0.212 HD
ATOM     38  H   NGK d 526      28.393   9.035  28.133  0.00  0.00     0.209 HD
ATOM     39  H   NGK d 526      35.402  13.743  34.563  0.00  0.00     0.040 H 
ATOM     40  H   NGK d 526      33.820  14.478  34.667  0.00  0.00     0.040 H 
ATOM     41  H   NGK d 526      34.819  14.750  33.260  0.00  0.00     0.040 H 
ATOM     42  H   NGK d 526      32.567  14.000  32.457  0.00  0.00     0.163 HD
ATOM     43  H   NGK d 526      32.175  12.650  30.010  0.00  0.00     0.091 H 
ATOM     44  H   NGK d 526      29.388   8.831  30.225  0.00  0.00     0.078 H 
ATOM     45  H   NGK d 526      28.029   9.892  30.267  0.00  0.00     0.078 H 
ATOM     46  H   NGK d 526      32.273  11.106  32.572  0.00  0.00     0.084 H 
ATOM     47  H   NGK d 526      30.332  12.440  33.235  0.00  0.00     0.132 H 
ATOM     48  H   NGK d 526      31.599  10.377  29.052  0.00  0.00     0.093 H 
ATOM     49  H   NGK d 526      29.704  11.727  29.597  0.00  0.00     0.090 H 
ENDROOT
TORSDOF 12
ENDMDL
MODEL 44
REMARK VINA RESULT:      -6.4      2.423      5.274
REMARK  0 active torsions:
REMARK  status: ('A' for Active; 'I' for Inactive)
REMARK       I    between atoms: C3_1  and  O3_15 
REMARK       I    between atoms: O1_3  and  C1_27 
REMARK       I    between atoms: S_6  and  O4_8 
REMARK       I    between atoms: O6_7  and  C6_23 
REMARK       I    between atoms: O4_8  and  C4_29 
REMARK       I    between atoms: O2_9  and  C2_24 
REMARK       I    between atoms: C8_10  and  C7_18 
REMARK       I    between atoms: O3_11  and  C3_20 
REMARK       I    between atoms: O3_11  and  C1_16 
REMARK       I    between atoms: C6_12  and  C5_22 
REMARK       I    between atoms: N_13  and  C2_26 
REMARK       I    between atoms: N_13  and  C7_18 
REMARK       I    between atoms: C6_23  and  C5_30 
ROOT
ATOM      1  C3  GCD d 527      37.696  11.632  29.818  0.00  0.00     0.084 C 
ATOM      2  O2  GCD d 527      38.169  10.516  31.927  0.00  0.00    -0.388 OA
ATOM      3  C6  GCD d 527      34.838  13.534  31.530  0.00  0.00     0.233 C 
ATOM      4  C4  GCD d 527      36.717  12.680  30.294  0.00  0.00    -0.034 C 
ATOM      5  O3  GCD d 527      37.491  11.401  28.419  0.00  0.00    -0.389 OA
ATOM      6  C1  GCD d 527      36.119   9.992  30.971  0.00  0.00     0.165 C 
ATOM      7  O6B GCD d 527      33.838  13.318  32.254  0.00  0.00    -0.642 OA
ATOM      8  O5  GCD d 527      35.543  11.076  31.721  0.00  0.00    -0.311 OA
ATOM      9  C5  GCD d 527      35.725  12.429  31.177  0.00  0.00     0.147 C 
ATOM     10  C2  GCD d 527      37.557  10.340  30.657  0.00  0.00     0.111 C 
ATOM     11  O6A GCD d 527      35.111  14.664  31.070  0.00  0.00    -0.642 OA
ATOM     12  H   GCD d 527      38.699  11.977  29.953  0.00  0.00     0.093 H 
ATOM     13  H   GCD d 527      39.104  10.743  31.807  0.00  0.00     0.210 HD
ATOM     14  H   GCD d 527      36.812  13.639  29.926  0.00  0.00     0.085 H 
ATOM     15  H   GCD d 527      36.584  11.087  28.273  0.00  0.00     0.210 HD
ATOM     16  H   GCD d 527      36.025   9.103  31.558  0.00  0.00     0.134 H 
ATOM     17  H   GCD d 527      38.011   9.572  30.066  0.00  0.00     0.095 H 
ATOM     18  O5  NGK d 526      31.933   7.960  28.684  0.00  0.00    -0.349 OA
ATOM     19  O1  NGK d 526      32.415   7.085  30.709  0.00  0.00    -0.369 OA
ATOM     20  O7  NGK d 526      36.920   7.163  28.567  0.00  0.00    -0.274 OA
ATOM     21  O2S NGK d 526      34.644  10.497  25.440  0.00  0.00    -0.572 OA
ATOM     22  S   NGK d 526      33.943  11.084  26.716  0.00  0.00     0.252 S 
ATOM     23  O6  NGK d 526      30.415  11.243  28.925  0.00  0.00    -0.398 OA
ATOM     24  O4  NGK d 526      33.689   9.821  27.723  0.00  0.00    -0.246 OA
ATOM     25  C8  NGK d 526      37.212   5.569  30.321  0.00  0.00    -0.003 C 
ATOM     26  O3  NGK d 526      35.454   9.804  29.701  0.00  0.00    -0.348 OA
ATOM     27  N   NGK d 526      35.215   6.872  30.029  0.00  0.00    -0.349 N 
ATOM     28  C7  NGK d 526      36.443   6.614  29.563  0.00  0.00     0.214 C 
ATOM     29  O1S NGK d 526      32.729  11.783  26.395  0.00  0.00    -0.572 OA
ATOM     30  C3  NGK d 526      34.214   9.159  29.887  0.00  0.00     0.094 C 
ATOM     31  C6  NGK d 526      30.774  10.067  28.220  0.00  0.00     0.043 C 
ATOM     32  O3S NGK d 526      34.925  11.881  27.439  0.00  0.00    -0.572 OA
ATOM     33  C2  NGK d 526      34.263   7.735  29.326  0.00  0.00     0.087 C 
ATOM     34  C1  NGK d 526      32.857   7.127  29.374  0.00  0.00     0.151 C 
ATOM     35  C4  NGK d 526      33.208   9.953  29.053  0.00  0.00     0.114 C 
ATOM     36  C5  NGK d 526      31.810   9.332  29.102  0.00  0.00     0.090 C 
ATOM     37  H   NGK d 526      31.526   6.701  30.742  0.00  0.00     0.212 HD
ATOM     38  H   NGK d 526      29.763  11.743  28.410  0.00  0.00     0.209 HD
ATOM     39  H   NGK d 526      38.174   5.438  29.871  0.00  0.00     0.040 H 
ATOM     40  H   NGK d 526      36.677   4.643  30.293  0.00  0.00     0.040 H 
ATOM     41  H   NGK d 526      37.333   5.881  31.336  0.00  0.00     0.040 H 
ATOM     42  H   NGK d 526      34.939   6.464  30.881  0.00  0.00     0.163 HD
ATOM     43  H   NGK d 526      33.963   9.112  30.926  0.00  0.00     0.091 H 
ATOM     44  H   NGK d 526      31.206  10.318  27.274  0.00  0.00     0.078 H 
ATOM     45  H   NGK d 526      29.920   9.452  28.028  0.00  0.00     0.078 H 
ATOM     46  H   NGK d 526      34.608   7.799  28.315  0.00  0.00     0.084 H 
ATOM     47  H   NGK d 526      32.904   6.154  28.932  0.00  0.00     0.132 H 
ATOM     48  H   NGK d 526      33.126  10.959  29.408  0.00  0.00     0.093 H 
ATOM     49  H   NGK d 526      31.441   9.414  30.103  0.00  0.00     0.090 H 
ENDROOT
TORSDOF 12
ENDMDL
MODEL 45
REMARK VINA RESULT:      -6.4      2.955      6.174
REMARK  0 active torsions:
REMARK  status: ('A' for Active; 'I' for Inactive)
REMARK       I    between atoms: C3_1  and  O3_15 
REMARK       I    between atoms: O1_3  and  C1_27 
REMARK       I    between atoms: S_6  and  O4_8 
REMARK       I    between atoms: O6_7  and  C6_23 
REMARK       I    between atoms: O4_8  and  C4_29 
REMARK       I    between atoms: O2_9  and  C2_24 
REMARK       I    between atoms: C8_10  and  C7_18 
REMARK       I    between atoms: O3_11  and  C3_20 
REMARK       I    between atoms: O3_11  and  C1_16 
REMARK       I    between atoms: C6_12  and  C5_22 
REMARK       I    between atoms: N_13  and  C2_26 
REMARK       I    between atoms: N_13  and  C7_18 
REMARK       I    between atoms: C6_23  and  C5_30 
ROOT
ATOM      1  C3  GCD d 527      33.666   9.439  26.561  0.00  0.00     0.084 C 
ATOM      2  O2  GCD d 527      36.093   9.371  26.710  0.00  0.00    -0.388 OA
ATOM      3  C6  GCD d 527      33.757  13.106  27.687  0.00  0.00     0.233 C 
ATOM      4  C4  GCD d 527      33.439  10.924  26.722  0.00  0.00    -0.034 C 
ATOM      5  O3  GCD d 527      32.474   8.740  26.937  0.00  0.00    -0.389 OA
ATOM      6  C1  GCD d 527      34.988   9.657  28.731  0.00  0.00     0.165 C 
ATOM      7  O6B GCD d 527      34.255  13.823  28.587  0.00  0.00    -0.642 OA
ATOM      8  O5  GCD d 527      35.082  11.077  28.530  0.00  0.00    -0.311 OA
ATOM      9  C5  GCD d 527      34.094  11.686  27.626  0.00  0.00     0.147 C 
ATOM     10  C2  GCD d 527      34.899   8.988  27.378  0.00  0.00     0.111 C 
ATOM     11  O6A GCD d 527      32.956  13.546  26.834  0.00  0.00    -0.642 OA
ATOM     12  H   GCD d 527      33.877   9.208  25.538  0.00  0.00     0.093 H 
ATOM     13  H   GCD d 527      36.110   8.975  25.825  0.00  0.00     0.210 HD
ATOM     14  H   GCD d 527      32.747  11.382  26.110  0.00  0.00     0.085 H 
ATOM     15  H   GCD d 527      32.263   8.936  27.864  0.00  0.00     0.210 HD
ATOM     16  H   GCD d 527      35.846   9.350  29.292  0.00  0.00     0.134 H 
ATOM     17  H   GCD d 527      34.792   7.928  27.486  0.00  0.00     0.095 H 
ATOM     18  O5  NGK d 526      32.824   9.405  33.436  0.00  0.00    -0.349 OA
ATOM     19  O1  NGK d 526      35.081   9.463  33.442  0.00  0.00    -0.369 OA
ATOM     20  O7  NGK d 526      34.187   6.117  29.852  0.00  0.00    -0.274 OA
ATOM     21  O2S NGK d 526      29.548   8.250  29.937  0.00  0.00    -0.572 OA
ATOM     22  S   NGK d 526      30.280   9.629  30.097  0.00  0.00     0.252 S 
ATOM     23  O6  NGK d 526      31.362  12.651  32.752  0.00  0.00    -0.398 OA
ATOM     24  O4  NGK d 526      31.624   9.337  30.981  0.00  0.00    -0.246 OA
ATOM     25  C8  NGK d 526      36.452   5.643  30.444  0.00  0.00    -0.003 C 
ATOM     26  O3  NGK d 526      33.787   9.294  29.450  0.00  0.00    -0.348 OA
ATOM     27  N   NGK d 526      35.208   7.500  31.328  0.00  0.00    -0.349 N 
ATOM     28  C7  NGK d 526      35.182   6.445  30.504  0.00  0.00     0.214 C 
ATOM     29  O1S NGK d 526      29.435  10.626  30.696  0.00  0.00    -0.572 OA
ATOM     30  C3  NGK d 526      33.928   9.587  30.821  0.00  0.00     0.094 C 
ATOM     31  C6  NGK d 526      31.295  11.301  33.181  0.00  0.00     0.043 C 
ATOM     32  O3S NGK d 526      30.823  10.001  28.798  0.00  0.00    -0.572 OA
ATOM     33  C2  NGK d 526      34.019   8.295  31.638  0.00  0.00     0.087 C 
ATOM     34  C1  NGK d 526      33.984   8.641  33.131  0.00  0.00     0.151 C 
ATOM     35  C4  NGK d 526      32.638  10.302  31.224  0.00  0.00     0.114 C 
ATOM     36  C5  NGK d 526      32.611  10.635  32.718  0.00  0.00     0.090 C 
ATOM     37  H   NGK d 526      35.062   9.684  34.386  0.00  0.00     0.212 HD
ATOM     38  H   NGK d 526      30.554  13.116  33.020  0.00  0.00     0.209 HD
ATOM     39  H   NGK d 526      36.327   4.828  29.762  0.00  0.00     0.040 H 
ATOM     40  H   NGK d 526      36.679   5.262  31.418  0.00  0.00     0.040 H 
ATOM     41  H   NGK d 526      37.252   6.269  30.110  0.00  0.00     0.040 H 
ATOM     42  H   NGK d 526      36.064   7.752  31.742  0.00  0.00     0.163 HD
ATOM     43  H   NGK d 526      34.809  10.168  30.997  0.00  0.00     0.091 H 
ATOM     44  H   NGK d 526      30.455  10.811  32.736  0.00  0.00     0.078 H 
ATOM     45  H   NGK d 526      31.178  11.236  34.242  0.00  0.00     0.078 H 
ATOM     46  H   NGK d 526      33.177   7.689  31.376  0.00  0.00     0.084 H 
ATOM     47  H   NGK d 526      33.997   7.723  33.681  0.00  0.00     0.132 H 
ATOM     48  H   NGK d 526      32.527  11.221  30.688  0.00  0.00     0.093 H 
ATOM     49  H   NGK d 526      33.380  11.352  32.916  0.00  0.00     0.090 H 
ENDROOT
TORSDOF 12
ENDMDL
MODEL 46
REMARK VINA RESULT:      -6.4      2.786      5.258
REMARK  0 active torsions:
REMARK  status: ('A' for Active; 'I' for Inactive)
REMARK       I    between atoms: C3_1  and  O3_15 
REMARK       I    between atoms: O1_3  and  C1_27 
REMARK       I    between atoms: S_6  and  O4_8 
REMARK       I    between atoms: O6_7  and  C6_23 
REMARK       I    between atoms: O4_8  and  C4_29 
REMARK       I    between atoms: O2_9  and  C2_24 
REMARK       I    between atoms: C8_10  and  C7_18 
REMARK       I    between atoms: O3_11  and  C3_20 
REMARK       I    between atoms: O3_11  and  C1_16 
REMARK       I    between atoms: C6_12  and  C5_22 
REMARK       I    between atoms: N_13  and  C2_26 
REMARK       I    between atoms: N_13  and  C7_18 
REMARK       I    between atoms: C6_23  and  C5_30 
ROOT
ATOM      1  C3  GCD d 527      37.618  10.521  30.316  0.00  0.00     0.084 C 
ATOM      2  O2  GCD d 527      37.307  10.182  32.705  0.00  0.00    -0.388 OA
ATOM      3  C6  GCD d 527      35.655  13.806  30.584  0.00  0.00     0.233 C 
ATOM      4  C4  GCD d 527      37.129  11.944  30.192  0.00  0.00    -0.034 C 
ATOM      5  O3  GCD d 527      37.508   9.875  29.043  0.00  0.00    -0.389 OA
ATOM      6  C1  GCD d 527      35.365  10.106  31.436  0.00  0.00     0.165 C 
ATOM      7  O6B GCD d 527      34.577  14.246  31.048  0.00  0.00    -0.642 OA
ATOM      8  O5  GCD d 527      35.218  11.519  31.659  0.00  0.00    -0.311 OA
ATOM      9  C5  GCD d 527      36.024  12.411  30.814  0.00  0.00     0.147 C 
ATOM     10  C2  GCD d 527      36.841   9.776  31.426  0.00  0.00     0.111 C 
ATOM     11  O6A GCD d 527      36.438  14.506  29.906  0.00  0.00    -0.642 OA
ATOM     12  H   GCD d 527      38.648  10.510  30.606  0.00  0.00     0.093 H 
ATOM     13  H   GCD d 527      38.257  10.000  32.776  0.00  0.00     0.210 HD
ATOM     14  H   GCD d 527      37.666  12.596  29.599  0.00  0.00     0.085 H 
ATOM     15  H   GCD d 527      36.580   9.874  28.760  0.00  0.00     0.210 HD
ATOM     16  H   GCD d 527      34.830   9.596  32.209  0.00  0.00     0.134 H 
ATOM     17  H   GCD d 527      36.994   8.735  31.226  0.00  0.00     0.095 H 
ATOM     18  O5  NGK d 526      31.029   9.000  28.817  0.00  0.00    -0.349 OA
ATOM     19  O1  NGK d 526      30.840   8.834  31.061  0.00  0.00    -0.369 OA
ATOM     20  O7  NGK d 526      35.175   6.500  30.258  0.00  0.00    -0.274 OA
ATOM     21  O2S NGK d 526      34.939   9.002  25.812  0.00  0.00    -0.572 OA
ATOM     22  S   NGK d 526      34.403  10.230  26.631  0.00  0.00     0.252 S 
ATOM     23  O6  NGK d 526      31.036  12.445  27.685  0.00  0.00    -0.398 OA
ATOM     24  O4  NGK d 526      33.514   9.613  27.857  0.00  0.00    -0.246 OA
ATOM     25  C8  NGK d 526      34.543   5.683  32.411  0.00  0.00    -0.003 C 
ATOM     26  O3  NGK d 526      34.845   9.708  30.147  0.00  0.00    -0.348 OA
ATOM     27  N   NGK d 526      33.342   7.402  31.237  0.00  0.00    -0.349 N 
ATOM     28  C7  NGK d 526      34.391   6.571  31.208  0.00  0.00     0.214 C 
ATOM     29  O1S NGK d 526      33.651  11.142  25.813  0.00  0.00    -0.572 OA
ATOM     30  C3  NGK d 526      33.436   9.665  30.178  0.00  0.00     0.094 C 
ATOM     31  C6  NGK d 526      30.944  11.045  27.472  0.00  0.00     0.043 C 
ATOM     32  O3S NGK d 526      35.533  10.834  27.324  0.00  0.00    -0.572 OA
ATOM     33  C2  NGK d 526      32.943   8.218  30.088  0.00  0.00     0.087 C 
ATOM     34  C1  NGK d 526      31.418   8.216  29.938  0.00  0.00     0.151 C 
ATOM     35  C4  NGK d 526      32.975  10.393  28.915  0.00  0.00     0.114 C 
ATOM     36  C5  NGK d 526      31.451  10.377  28.771  0.00  0.00     0.090 C 
ATOM     37  H   NGK d 526      29.874   8.833  30.968  0.00  0.00     0.212 HD
ATOM     38  H   NGK d 526      30.727  12.913  26.894  0.00  0.00     0.209 HD
ATOM     39  H   NGK d 526      35.405   5.062  32.289  0.00  0.00     0.040 H 
ATOM     40  H   NGK d 526      33.672   5.070  32.513  0.00  0.00     0.040 H 
ATOM     41  H   NGK d 526      34.659   6.287  33.286  0.00  0.00     0.040 H 
ATOM     42  H   NGK d 526      32.816   7.468  32.066  0.00  0.00     0.163 HD
ATOM     43  H   NGK d 526      33.062  10.101  31.081  0.00  0.00     0.091 H 
ATOM     44  H   NGK d 526      31.554  10.755  26.643  0.00  0.00     0.078 H 
ATOM     45  H   NGK d 526      29.940  10.751  27.249  0.00  0.00     0.078 H 
ATOM     46  H   NGK d 526      33.404   7.774  29.231  0.00  0.00     0.084 H 
ATOM     47  H   NGK d 526      31.101   7.200  29.826  0.00  0.00     0.132 H 
ATOM     48  H   NGK d 526      33.285  11.416  28.928  0.00  0.00     0.093 H 
ATOM     49  H   NGK d 526      31.032  10.951  29.570  0.00  0.00     0.090 H 
ENDROOT
TORSDOF 12
ENDMDL
MODEL 47
REMARK VINA RESULT:      -6.4      2.559      5.195
REMARK  0 active torsions:
REMARK  status: ('A' for Active; 'I' for Inactive)
REMARK       I    between atoms: C3_1  and  O3_15 
REMARK       I    between atoms: O1_3  and  C1_27 
REMARK       I    between atoms: S_6  and  O4_8 
REMARK       I    between atoms: O6_7  and  C6_23 
REMARK       I    between atoms: O4_8  and  C4_29 
REMARK       I    between atoms: O2_9  and  C2_24 
REMARK       I    between atoms: C8_10  and  C7_18 
REMARK       I    between atoms: O3_11  and  C3_20 
REMARK       I    between atoms: O3_11  and  C1_16 
REMARK       I    between atoms: C6_12  and  C5_22 
REMARK       I    between atoms: N_13  and  C2_26 
REMARK       I    between atoms: N_13  and  C7_18 
REMARK       I    between atoms: C6_23  and  C5_30 
ROOT
ATOM      1  C3  GCD d 527      34.623  14.247  29.401  0.00  0.00     0.084 C 
ATOM      2  O2  GCD d 527      32.785  14.736  30.918  0.00  0.00    -0.388 OA
ATOM      3  C6  GCD d 527      32.159  12.425  27.093  0.00  0.00     0.233 C 
ATOM      4  C4  GCD d 527      33.847  13.720  28.217  0.00  0.00    -0.034 C 
ATOM      5  O3  GCD d 527      35.961  13.739  29.348  0.00  0.00    -0.389 OA
ATOM      6  C1  GCD d 527      33.327  12.488  30.717  0.00  0.00     0.165 C 
ATOM      7  O6B GCD d 527      31.263  11.550  27.143  0.00  0.00    -0.642 OA
ATOM      8  O5  GCD d 527      32.368  12.398  29.649  0.00  0.00    -0.311 OA
ATOM      9  C5  GCD d 527      32.802  12.871  28.327  0.00  0.00     0.147 C 
ATOM     10  C2  GCD d 527      33.906  13.885  30.723  0.00  0.00     0.111 C 
ATOM     11  O6A GCD d 527      32.553  12.933  26.021  0.00  0.00    -0.642 OA
ATOM     12  H   GCD d 527      34.672  15.315  29.364  0.00  0.00     0.093 H 
ATOM     13  H   GCD d 527      33.079  15.660  30.934  0.00  0.00     0.210 HD
ATOM     14  H   GCD d 527      34.131  14.026  27.273  0.00  0.00     0.085 H 
ATOM     15  H   GCD d 527      35.940  12.770  29.380  0.00  0.00     0.210 HD
ATOM     16  H   GCD d 527      32.824  12.242  31.628  0.00  0.00     0.134 H 
ATOM     17  H   GCD d 527      34.653  13.982  31.484  0.00  0.00     0.095 H 
ATOM     18  O5  NGK d 526      34.855   7.554  31.170  0.00  0.00    -0.349 OA
ATOM     19  O1  NGK d 526      33.077   8.108  32.447  0.00  0.00    -0.369 OA
ATOM     20  O7  NGK d 526      36.115  11.983  33.248  0.00  0.00    -0.274 OA
ATOM     21  O2S NGK d 526      38.337  10.272  28.980  0.00  0.00    -0.572 OA
ATOM     22  S   NGK d 526      36.889  10.012  28.433  0.00  0.00     0.252 S 
ATOM     23  O6  NGK d 526      33.971   7.136  27.679  0.00  0.00    -0.398 OA
ATOM     24  O4  NGK d 526      35.980   9.581  29.722  0.00  0.00    -0.246 OA
ATOM     25  C8  NGK d 526      34.630  12.099  35.114  0.00  0.00    -0.003 C 
ATOM     26  O3  NGK d 526      34.438  11.583  30.519  0.00  0.00    -0.348 OA
ATOM     27  N   NGK d 526      34.358  10.554  33.294  0.00  0.00    -0.349 N 
ATOM     28  C7  NGK d 526      35.098  11.550  33.796  0.00  0.00     0.214 C 
ATOM     29  O1S NGK d 526      36.871   9.020  27.392  0.00  0.00    -0.572 OA
ATOM     30  C3  NGK d 526      34.055  10.262  30.830  0.00  0.00     0.094 C 
ATOM     31  C6  NGK d 526      34.850   7.003  28.784  0.00  0.00     0.043 C 
ATOM     32  O3S NGK d 526      36.317  11.296  28.051  0.00  0.00    -0.572 OA
ATOM     33  C2  NGK d 526      34.752   9.790  32.109  0.00  0.00     0.087 C 
ATOM     34  C1  NGK d 526      34.464   8.299  32.317  0.00  0.00     0.151 C 
ATOM     35  C4  NGK d 526      34.572   9.403  29.675  0.00  0.00     0.114 C 
ATOM     36  C5  NGK d 526      34.286   7.916  29.898  0.00  0.00     0.090 C 
ATOM     37  H   NGK d 526      32.892   7.165  32.579  0.00  0.00     0.212 HD
ATOM     38  H   NGK d 526      34.282   6.580  26.949  0.00  0.00     0.209 HD
ATOM     39  H   NGK d 526      35.286  12.885  35.426  0.00  0.00     0.040 H 
ATOM     40  H   NGK d 526      34.634  11.319  35.847  0.00  0.00     0.040 H 
ATOM     41  H   NGK d 526      33.638  12.484  35.008  0.00  0.00     0.040 H 
ATOM     42  H   NGK d 526      33.511  10.326  33.741  0.00  0.00     0.163 HD
ATOM     43  H   NGK d 526      32.996  10.195  30.969  0.00  0.00     0.091 H 
ATOM     44  H   NGK d 526      35.836   7.315  28.513  0.00  0.00     0.078 H 
ATOM     45  H   NGK d 526      34.914   5.986  29.110  0.00  0.00     0.078 H 
ATOM     46  H   NGK d 526      35.801   9.954  31.983  0.00  0.00     0.084 H 
ATOM     47  H   NGK d 526      35.000   7.979  33.186  0.00  0.00     0.132 H 
ATOM     48  H   NGK d 526      34.110   9.684  28.752  0.00  0.00     0.093 H 
ATOM     49  H   NGK d 526      33.226   7.770  29.877  0.00  0.00     0.090 H 
ENDROOT
TORSDOF 12
ENDMDL
MODEL 48
REMARK VINA RESULT:      -6.4      2.294      5.180
REMARK  0 active torsions:
REMARK  status: ('A' for Active; 'I' for Inactive)
REMARK       I    between atoms: C3_1  and  O3_15 
REMARK       I    between atoms: O1_3  and  C1_27 
REMARK       I    between atoms: S_6  and  O4_8 
REMARK       I    between atoms: O6_7  and  C6_23 
REMARK       I    between atoms: O4_8  and  C4_29 
REMARK       I    between atoms: O2_9  and  C2_24 
REMARK       I    between atoms: C8_10  and  C7_18 
REMARK       I    between atoms: O3_11  and  C3_20 
REMARK       I    between atoms: O3_11  and  C1_16 
REMARK       I    between atoms: C6_12  and  C5_22 
REMARK       I    between atoms: N_13  and  C2_26 
REMARK       I    between atoms: N_13  and  C7_18 
REMARK       I    between atoms: C6_23  and  C5_30 
ROOT
ATOM      1  C3  GCD d 527      31.491   9.763  29.764  0.00  0.00     0.084 C 
ATOM      2  O2  GCD d 527      31.552  10.275  27.386  0.00  0.00    -0.388 OA
ATOM      3  C6  GCD d 527      31.529  13.524  30.518  0.00  0.00     0.233 C 
ATOM      4  C4  GCD d 527      31.235  11.144  30.319  0.00  0.00    -0.034 C 
ATOM      5  O3  GCD d 527      32.099   8.956  30.778  0.00  0.00    -0.389 OA
ATOM      6  C1  GCD d 527      33.454  10.875  28.575  0.00  0.00     0.165 C 
ATOM      7  O6B GCD d 527      32.167  14.559  30.212  0.00  0.00    -0.642 OA
ATOM      8  O5  GCD d 527      32.855  12.163  28.795  0.00  0.00    -0.311 OA
ATOM      9  C5  GCD d 527      31.858  12.256  29.871  0.00  0.00     0.147 C 
ATOM     10  C2  GCD d 527      32.350   9.845  28.480  0.00  0.00     0.111 C 
ATOM     11  O6A GCD d 527      30.620  13.515  31.376  0.00  0.00    -0.642 OA
ATOM     12  H   GCD d 527      30.567   9.302  29.483  0.00  0.00     0.093 H 
ATOM     13  H   GCD d 527      30.815   9.657  27.261  0.00  0.00     0.210 HD
ATOM     14  H   GCD d 527      30.547  11.244  31.081  0.00  0.00     0.085 H 
ATOM     15  H   GCD d 527      32.940   9.356  31.049  0.00  0.00     0.210 HD
ATOM     16  H   GCD d 527      34.042  10.937  27.683  0.00  0.00     0.134 H 
ATOM     17  H   GCD d 527      32.759   8.864  28.352  0.00  0.00     0.095 H 
ATOM     18  O5  NGK d 526      38.124  11.505  30.738  0.00  0.00    -0.349 OA
ATOM     19  O1  NGK d 526      38.019  12.058  28.551  0.00  0.00    -0.369 OA
ATOM     20  O7  NGK d 526      35.563   7.715  28.593  0.00  0.00    -0.274 OA
ATOM     21  O2S NGK d 526      35.234   8.710  33.592  0.00  0.00    -0.572 OA
ATOM     22  S   NGK d 526      34.966  10.203  33.189  0.00  0.00     0.252 S 
ATOM     23  O6  NGK d 526      36.610  14.017  32.869  0.00  0.00    -0.398 OA
ATOM     24  O4  NGK d 526      35.840  10.478  31.835  0.00  0.00    -0.246 OA
ATOM     25  C8  NGK d 526      36.170   7.940  26.295  0.00  0.00    -0.003 C 
ATOM     26  O3  NGK d 526      34.296  10.477  29.681  0.00  0.00    -0.348 OA
ATOM     27  N   NGK d 526      36.543   9.651  27.941  0.00  0.00    -0.349 N 
ATOM     28  C7  NGK d 526      36.054   8.426  27.712  0.00  0.00     0.214 C 
ATOM     29  O1S NGK d 526      35.293  11.118  34.249  0.00  0.00    -0.572 OA
ATOM     30  C3  NGK d 526      35.521  11.172  29.641  0.00  0.00     0.094 C 
ATOM     31  C6  NGK d 526      37.406  12.865  32.644  0.00  0.00     0.043 C 
ATOM     32  O3S NGK d 526      33.594  10.299  32.712  0.00  0.00    -0.572 OA
ATOM     33  C2  NGK d 526      36.665  10.219  29.284  0.00  0.00     0.087 C 
ATOM     34  C1  NGK d 526      37.999  10.960  29.430  0.00  0.00     0.151 C 
ATOM     35  C4  NGK d 526      35.758  11.670  31.067  0.00  0.00     0.114 C 
ATOM     36  C5  NGK d 526      37.096  12.401  31.202  0.00  0.00     0.090 C 
ATOM     37  H   NGK d 526      38.862  12.528  28.641  0.00  0.00     0.212 HD
ATOM     38  H   NGK d 526      36.769  14.350  33.766  0.00  0.00     0.209 HD
ATOM     39  H   NGK d 526      35.753   6.958  26.219  0.00  0.00     0.040 H 
ATOM     40  H   NGK d 526      37.202   7.913  26.011  0.00  0.00     0.040 H 
ATOM     41  H   NGK d 526      35.640   8.605  25.646  0.00  0.00     0.040 H 
ATOM     42  H   NGK d 526      36.834  10.193  27.173  0.00  0.00     0.163 HD
ATOM     43  H   NGK d 526      35.488  11.958  28.916  0.00  0.00     0.091 H 
ATOM     44  H   NGK d 526      37.153  12.096  33.343  0.00  0.00     0.078 H 
ATOM     45  H   NGK d 526      38.447  13.081  32.768  0.00  0.00     0.078 H 
ATOM     46  H   NGK d 526      36.621   9.394  29.964  0.00  0.00     0.084 H 
ATOM     47  H   NGK d 526      38.786  10.263  29.226  0.00  0.00     0.132 H 
ATOM     48  H   NGK d 526      34.989  12.351  31.367  0.00  0.00     0.093 H 
ATOM     49  H   NGK d 526      37.051  13.296  30.617  0.00  0.00     0.090 H 
ENDROOT
TORSDOF 12
ENDMDL
MODEL 49
REMARK VINA RESULT:      -6.3      2.789      5.964
REMARK  0 active torsions:
REMARK  status: ('A' for Active; 'I' for Inactive)
REMARK       I    between atoms: C3_1  and  O3_15 
REMARK       I    between atoms: O1_3  and  C1_27 
REMARK       I    between atoms: S_6  and  O4_8 
REMARK       I    between atoms: O6_7  and  C6_23 
REMARK       I    between atoms: O4_8  and  C4_29 
REMARK       I    between atoms: O2_9  and  C2_24 
REMARK       I    between atoms: C8_10  and  C7_18 
REMARK       I    between atoms: O3_11  and  C3_20 
REMARK       I    between atoms: O3_11  and  C1_16 
REMARK       I    between atoms: C6_12  and  C5_22 
REMARK       I    between atoms: N_13  and  C2_26 
REMARK       I    between atoms: N_13  and  C7_18 
REMARK       I    between atoms: C6_23  and  C5_30 
ROOT
ATOM      1  C3  GCD d 527      31.405  10.675  28.483  0.00  0.00     0.084 C 
ATOM      2  O2  GCD d 527      31.054   8.362  29.150  0.00  0.00    -0.388 OA
ATOM      3  C6  GCD d 527      34.458   9.564  26.441  0.00  0.00     0.233 C 
ATOM      4  C4  GCD d 527      32.457  10.479  27.416  0.00  0.00    -0.034 C 
ATOM      5  O3  GCD d 527      31.493  12.013  28.987  0.00  0.00    -0.389 OA
ATOM      6  C1  GCD d 527      33.002   9.336  29.953  0.00  0.00     0.165 C 
ATOM      7  O6B GCD d 527      35.502   8.882  26.568  0.00  0.00    -0.642 OA
ATOM      8  O5  GCD d 527      33.675   8.852  28.778  0.00  0.00    -0.311 OA
ATOM      9  C5  GCD d 527      33.504   9.635  27.546  0.00  0.00     0.147 C 
ATOM     10  C2  GCD d 527      31.559   9.613  29.596  0.00  0.00     0.111 C 
ATOM     11  O6A GCD d 527      34.193  10.214  25.407  0.00  0.00    -0.642 OA
ATOM     12  H   GCD d 527      30.429  10.541  28.066  0.00  0.00     0.093 H 
ATOM     13  H   GCD d 527      30.122   8.460  28.901  0.00  0.00     0.210 HD
ATOM     14  H   GCD d 527      32.371  11.020  26.542  0.00  0.00     0.085 H 
ATOM     15  H   GCD d 527      32.373  12.157  29.370  0.00  0.00     0.210 HD
ATOM     16  H   GCD d 527      33.107   8.595  30.717  0.00  0.00     0.134 H 
ATOM     17  H   GCD d 527      31.031  10.010  30.439  0.00  0.00     0.095 H 
ATOM     18  O5  NGK d 526      36.918  11.465  32.602  0.00  0.00    -0.349 OA
ATOM     19  O1  NGK d 526      36.561   9.281  33.047  0.00  0.00    -0.369 OA
ATOM     20  O7  NGK d 526      31.910  11.084  33.143  0.00  0.00    -0.274 OA
ATOM     21  O2S NGK d 526      34.065  14.947  30.591  0.00  0.00    -0.572 OA
ATOM     22  S   NGK d 526      34.884  13.860  29.809  0.00  0.00     0.252 S 
ATOM     23  O6  NGK d 526      38.575  11.970  29.416  0.00  0.00    -0.398 OA
ATOM     24  O4  NGK d 526      35.166  12.647  30.868  0.00  0.00    -0.246 OA
ATOM     25  C8  NGK d 526      31.693   9.039  34.356  0.00  0.00    -0.003 C 
ATOM     26  O3  NGK d 526      33.560  10.588  30.415  0.00  0.00    -0.348 OA
ATOM     27  N   NGK d 526      33.711   9.713  33.239  0.00  0.00    -0.349 N 
ATOM     28  C7  NGK d 526      32.442  10.035  33.516  0.00  0.00     0.214 C 
ATOM     29  O1S NGK d 526      36.096  14.392  29.248  0.00  0.00    -0.572 OA
ATOM     30  C3  NGK d 526      34.784  10.365  31.077  0.00  0.00     0.094 C 
ATOM     31  C6  NGK d 526      38.118  12.407  30.686  0.00  0.00     0.043 C 
ATOM     32  O3S NGK d 526      33.992  13.240  28.838  0.00  0.00    -0.572 OA
ATOM     33  C2  NGK d 526      34.638  10.634  32.577  0.00  0.00     0.087 C 
ATOM     34  C1  NGK d 526      36.019  10.564  33.237  0.00  0.00     0.151 C 
ATOM     35  C4  NGK d 526      35.753  11.403  30.510  0.00  0.00     0.114 C 
ATOM     36  C5  NGK d 526      37.126  11.330  31.182  0.00  0.00     0.090 C 
ATOM     37  H   NGK d 526      37.435   9.234  33.464  0.00  0.00     0.212 HD
ATOM     38  H   NGK d 526      39.204  12.615  29.059  0.00  0.00     0.209 HD
ATOM     39  H   NGK d 526      30.695   9.388  34.519  0.00  0.00     0.040 H 
ATOM     40  H   NGK d 526      32.189   8.922  35.297  0.00  0.00     0.040 H 
ATOM     41  H   NGK d 526      31.664   8.097  33.849  0.00  0.00     0.040 H 
ATOM     42  H   NGK d 526      34.036   8.819  33.491  0.00  0.00     0.163 HD
ATOM     43  H   NGK d 526      35.114   9.356  30.938  0.00  0.00     0.091 H 
ATOM     44  H   NGK d 526      37.625  13.352  30.597  0.00  0.00     0.078 H 
ATOM     45  H   NGK d 526      38.931  12.534  31.369  0.00  0.00     0.078 H 
ATOM     46  H   NGK d 526      34.219  11.612  32.689  0.00  0.00     0.084 H 
ATOM     47  H   NGK d 526      35.901  10.805  34.273  0.00  0.00     0.132 H 
ATOM     48  H   NGK d 526      35.901  11.257  29.461  0.00  0.00     0.093 H 
ATOM     49  H   NGK d 526      37.574  10.392  30.931  0.00  0.00     0.090 H 
ENDROOT
TORSDOF 12
ENDMDL
MODEL 50
REMARK VINA RESULT:      -6.3      2.703      5.118
REMARK  0 active torsions:
REMARK  status: ('A' for Active; 'I' for Inactive)
REMARK       I    between atoms: C3_1  and  O3_15 
REMARK       I    between atoms: O1_3  and  C1_27 
REMARK       I    between atoms: S_6  and  O4_8 
REMARK       I    between atoms: O6_7  and  C6_23 
REMARK       I    between atoms: O4_8  and  C4_29 
REMARK       I    between atoms: O2_9  and  C2_24 
REMARK       I    between atoms: C8_10  and  C7_18 
REMARK       I    between atoms: O3_11  and  C3_20 
REMARK       I    between atoms: O3_11  and  C1_16 
REMARK       I    between atoms: C6_12  and  C5_22 
REMARK       I    between atoms: N_13  and  C2_26 
REMARK       I    between atoms: N_13  and  C7_18 
REMARK       I    between atoms: C6_23  and  C5_30 
ROOT
ATOM      1  C3  GCD d 527      32.616  14.161  30.331  0.00  0.00     0.084 C 
ATOM      2  O2  GCD d 527      30.438  13.500  31.189  0.00  0.00    -0.388 OA
ATOM      3  C6  GCD d 527      31.445  13.226  26.799  0.00  0.00     0.233 C 
ATOM      4  C4  GCD d 527      32.330  14.126  28.848  0.00  0.00    -0.034 C 
ATOM      5  O3  GCD d 527      34.024  14.010  30.540  0.00  0.00    -0.389 OA
ATOM      6  C1  GCD d 527      31.717  11.774  30.309  0.00  0.00     0.165 C 
ATOM      7  O6B GCD d 527      30.897  12.279  26.187  0.00  0.00    -0.642 OA
ATOM      8  O5  GCD d 527      31.094  12.023  29.036  0.00  0.00    -0.311 OA
ATOM      9  C5  GCD d 527      31.623  13.143  28.246  0.00  0.00     0.147 C 
ATOM     10  C2  GCD d 527      31.789  13.081  31.067  0.00  0.00     0.111 C 
ATOM     11  O6A GCD d 527      31.871  14.250  26.222  0.00  0.00    -0.642 OA
ATOM     12  H   GCD d 527      32.319  15.103  30.740  0.00  0.00     0.093 H 
ATOM     13  H   GCD d 527      30.402  14.341  31.671  0.00  0.00     0.210 HD
ATOM     14  H   GCD d 527      32.694  14.893  28.262  0.00  0.00     0.085 H 
ATOM     15  H   GCD d 527      34.316  13.160  30.175  0.00  0.00     0.210 HD
ATOM     16  H   GCD d 527      31.138  11.031  30.815  0.00  0.00     0.134 H 
ATOM     17  H   GCD d 527      32.281  12.944  32.008  0.00  0.00     0.095 H 
ATOM     18  O5  NGK d 526      34.642   7.625  29.254  0.00  0.00    -0.349 OA
ATOM     19  O1  NGK d 526      32.549   7.146  29.954  0.00  0.00    -0.369 OA
ATOM     20  O7  NGK d 526      33.900  10.672  33.215  0.00  0.00    -0.274 OA
ATOM     21  O2S NGK d 526      37.426  11.674  29.658  0.00  0.00    -0.572 OA
ATOM     22  S   NGK d 526      36.297  11.433  28.595  0.00  0.00     0.252 S 
ATOM     23  O6  NGK d 526      34.718   8.765  25.813  0.00  0.00    -0.398 OA
ATOM     24  O4  NGK d 526      35.325  10.272  29.211  0.00  0.00    -0.246 OA
ATOM     25  C8  NGK d 526      32.094   9.592  34.344  0.00  0.00    -0.003 C 
ATOM     26  O3  NGK d 526      33.077  11.308  30.160  0.00  0.00    -0.348 OA
ATOM     27  N   NGK d 526      32.742   9.085  32.086  0.00  0.00    -0.349 N 
ATOM     28  C7  NGK d 526      32.989   9.842  33.162  0.00  0.00     0.214 C 
ATOM     29  O1S NGK d 526      36.830  11.077  27.308  0.00  0.00    -0.572 OA
ATOM     30  C3  NGK d 526      33.092   9.954  29.768  0.00  0.00     0.094 C 
ATOM     31  C6  NGK d 526      35.332   8.292  27.000  0.00  0.00     0.043 C 
ATOM     32  O3S NGK d 526      35.432  12.605  28.585  0.00  0.00    -0.572 OA
ATOM     33  C2  NGK d 526      33.611   9.073  30.907  0.00  0.00     0.087 C 
ATOM     34  C1  NGK d 526      33.790   7.640  30.393  0.00  0.00     0.151 C 
ATOM     35  C4  NGK d 526      34.097   9.869  28.619  0.00  0.00     0.114 C 
ATOM     36  C5  NGK d 526      34.274   8.433  28.119  0.00  0.00     0.090 C 
ATOM     37  H   NGK d 526      32.659   6.240  29.628  0.00  0.00     0.212 HD
ATOM     38  H   NGK d 526      35.344   8.697  25.076  0.00  0.00     0.209 HD
ATOM     39  H   NGK d 526      32.373  10.243  35.146  0.00  0.00     0.040 H 
ATOM     40  H   NGK d 526      32.195   8.575  34.658  0.00  0.00     0.040 H 
ATOM     41  H   NGK d 526      31.078   9.781  34.067  0.00  0.00     0.040 H 
ATOM     42  H   NGK d 526      31.942   8.512  32.086  0.00  0.00     0.163 HD
ATOM     43  H   NGK d 526      32.109   9.626  29.498  0.00  0.00     0.091 H 
ATOM     44  H   NGK d 526      36.196   8.879  27.231  0.00  0.00     0.078 H 
ATOM     45  H   NGK d 526      35.654   7.278  26.895  0.00  0.00     0.078 H 
ATOM     46  H   NGK d 526      34.550   9.476  31.224  0.00  0.00     0.084 H 
ATOM     47  H   NGK d 526      34.201   7.054  31.189  0.00  0.00     0.132 H 
ATOM     48  H   NGK d 526      33.779  10.462  27.787  0.00  0.00     0.093 H 
ATOM     49  H   NGK d 526      33.351   8.114  27.682  0.00  0.00     0.090 H 
ENDROOT
TORSDOF 12
ENDMDL
MODEL 51
REMARK VINA RESULT:      -6.3      2.913      5.844
REMARK  0 active torsions:
REMARK  status: ('A' for Active; 'I' for Inactive)
REMARK       I    between atoms: C3_1  and  O3_15 
REMARK       I    between atoms: O1_3  and  C1_27 
REMARK       I    between atoms: S_6  and  O4_8 
REMARK       I    between atoms: O6_7  and  C6_23 
REMARK       I    between atoms: O4_8  and  C4_29 
REMARK       I    between atoms: O2_9  and  C2_24 
REMARK       I    between atoms: C8_10  and  C7_18 
REMARK       I    between atoms: O3_11  and  C3_20 
REMARK       I    between atoms: O3_11  and  C1_16 
REMARK       I    between atoms: C6_12  and  C5_22 
REMARK       I    between atoms: N_13  and  C2_26 
REMARK       I    between atoms: N_13  and  C7_18 
REMARK       I    between atoms: C6_23  and  C5_30 
ROOT
ATOM      1  C3  GCD d 527      33.656   9.926  26.609  0.00  0.00     0.084 C 
ATOM      2  O2  GCD d 527      36.021  10.479  26.485  0.00  0.00    -0.388 OA
ATOM      3  C6  GCD d 527      33.151  12.868  29.019  0.00  0.00     0.233 C 
ATOM      4  C4  GCD d 527      33.143  11.145  27.339  0.00  0.00    -0.034 C 
ATOM      5  O3  GCD d 527      32.741   8.842  26.808  0.00  0.00    -0.389 OA
ATOM      6  C1  GCD d 527      35.286   9.748  28.562  0.00  0.00     0.165 C 
ATOM      7  O6B GCD d 527      33.643  13.345  30.069  0.00  0.00    -0.642 OA
ATOM      8  O5  GCD d 527      35.026  11.121  28.902  0.00  0.00    -0.311 OA
ATOM      9  C5  GCD d 527      33.775  11.703  28.395  0.00  0.00     0.147 C 
ATOM     10  C2  GCD d 527      35.090   9.581  27.071  0.00  0.00     0.111 C 
ATOM     11  O6A GCD d 527      32.126  13.334  28.477  0.00  0.00    -0.642 OA
ATOM     12  H   GCD d 527      33.713  10.122  25.559  0.00  0.00     0.093 H 
ATOM     13  H   GCD d 527      35.955  10.428  25.519  0.00  0.00     0.210 HD
ATOM     14  H   GCD d 527      32.264  11.575  27.014  0.00  0.00     0.085 H 
ATOM     15  H   GCD d 527      32.673   8.646  27.756  0.00  0.00     0.210 HD
ATOM     16  H   GCD d 527      36.281   9.517  28.879  0.00  0.00     0.134 H 
ATOM     17  H   GCD d 527      35.241   8.561  26.783  0.00  0.00     0.095 H 
ATOM     18  O5  NGK d 526      34.169   7.333  33.012  0.00  0.00    -0.349 OA
ATOM     19  O1  NGK d 526      36.317   8.003  32.820  0.00  0.00    -0.369 OA
ATOM     20  O7  NGK d 526      35.512   5.963  28.339  0.00  0.00    -0.274 OA
ATOM     21  O2S NGK d 526      30.621   6.581  29.672  0.00  0.00    -0.572 OA
ATOM     22  S   NGK d 526      31.049   7.969  30.267  0.00  0.00     0.252 S 
ATOM     23  O6  NGK d 526      31.926  10.085  33.746  0.00  0.00    -0.398 OA
ATOM     24  O4  NGK d 526      32.567   7.775  30.841  0.00  0.00    -0.246 OA
ATOM     25  C8  NGK d 526      37.896   5.957  28.486  0.00  0.00    -0.003 C 
ATOM     26  O3  NGK d 526      34.354   8.848  29.204  0.00  0.00    -0.348 OA
ATOM     27  N   NGK d 526      36.466   6.987  30.120  0.00  0.00    -0.349 N 
ATOM     28  C7  NGK d 526      36.516   6.310  28.967  0.00  0.00     0.214 C 
ATOM     29  O1S NGK d 526      30.135   8.431  31.276  0.00  0.00    -0.572 OA
ATOM     30  C3  NGK d 526      34.687   8.686  30.564  0.00  0.00     0.094 C 
ATOM     31  C6  NGK d 526      32.241   8.707  33.639  0.00  0.00     0.043 C 
ATOM     32  O3S NGK d 526      31.239   8.893  29.158  0.00  0.00    -0.572 OA
ATOM     33  C2  NGK d 526      35.213   7.271  30.821  0.00  0.00     0.087 C 
ATOM     34  C1  NGK d 526      35.388   7.067  32.330  0.00  0.00     0.151 C 
ATOM     35  C4  NGK d 526      33.372   8.839  31.329  0.00  0.00     0.114 C 
ATOM     36  C5  NGK d 526      33.558   8.625  32.834  0.00  0.00     0.090 C 
ATOM     37  H   NGK d 526      36.430   7.876  33.775  0.00  0.00     0.212 HD
ATOM     38  H   NGK d 526      31.103  10.191  34.247  0.00  0.00     0.209 HD
ATOM     39  H   NGK d 526      37.825   5.421  27.563  0.00  0.00     0.040 H 
ATOM     40  H   NGK d 526      38.382   5.347  29.217  0.00  0.00     0.040 H 
ATOM     41  H   NGK d 526      38.460   6.853  28.336  0.00  0.00     0.040 H 
ATOM     42  H   NGK d 526      37.309   7.308  30.514  0.00  0.00     0.163 HD
ATOM     43  H   NGK d 526      35.435   9.391  30.859  0.00  0.00     0.091 H 
ATOM     44  H   NGK d 526      31.460   8.186  33.126  0.00  0.00     0.078 H 
ATOM     45  H   NGK d 526      32.346   8.256  34.604  0.00  0.00     0.078 H 
ATOM     46  H   NGK d 526      34.491   6.584  30.433  0.00  0.00     0.084 H 
ATOM     47  H   NGK d 526      35.707   6.058  32.490  0.00  0.00     0.132 H 
ATOM     48  H   NGK d 526      32.961   9.818  31.193  0.00  0.00     0.093 H 
ATOM     49  H   NGK d 526      34.173   9.414  33.212  0.00  0.00     0.090 H 
ENDROOT
TORSDOF 12
ENDMDL
MODEL 52
REMARK VINA RESULT:      -6.3      2.917      6.415
REMARK  0 active torsions:
REMARK  status: ('A' for Active; 'I' for Inactive)
REMARK       I    between atoms: C3_1  and  O3_15 
REMARK       I    between atoms: O1_3  and  C1_27 
REMARK       I    between atoms: S_6  and  O4_8 
REMARK       I    between atoms: O6_7  and  C6_23 
REMARK       I    between atoms: O4_8  and  C4_29 
REMARK       I    between atoms: O2_9  and  C2_24 
REMARK       I    between atoms: C8_10  and  C7_18 
REMARK       I    between atoms: O3_11  and  C3_20 
REMARK       I    between atoms: O3_11  and  C1_16 
REMARK       I    between atoms: C6_12  and  C5_22 
REMARK       I    between atoms: N_13  and  C2_26 
REMARK       I    between atoms: N_13  and  C7_18 
REMARK       I    between atoms: C6_23  and  C5_30 
ROOT
ATOM      1  C3  GCD d 527      36.602   5.130  31.768  0.00  0.00     0.084 C 
ATOM      2  O2  GCD d 527      38.965   5.458  32.240  0.00  0.00    -0.388 OA
ATOM      3  C6  GCD d 527      37.509   4.221  28.152  0.00  0.00     0.233 C 
ATOM      4  C4  GCD d 527      36.698   4.491  30.402  0.00  0.00    -0.034 C 
ATOM      5  O3  GCD d 527      35.309   5.728  31.914  0.00  0.00    -0.389 OA
ATOM      6  C1  GCD d 527      38.040   6.966  30.737  0.00  0.00     0.165 C 
ATOM      7  O6B GCD d 527      38.188   4.657  27.193  0.00  0.00    -0.642 OA
ATOM      8  O5  GCD d 527      38.419   6.072  29.677  0.00  0.00    -0.311 OA
ATOM      9  C5  GCD d 527      37.539   4.920  29.435  0.00  0.00     0.147 C 
ATOM     10  C2  GCD d 527      37.750   6.144  31.974  0.00  0.00     0.111 C 
ATOM     11  O6A GCD d 527      36.778   3.210  28.063  0.00  0.00    -0.642 OA
ATOM     12  H   GCD d 527      36.712   4.387  32.529  0.00  0.00     0.093 H 
ATOM     13  H   GCD d 527      38.857   4.904  33.029  0.00  0.00     0.210 HD
ATOM     14  H   GCD d 527      36.089   3.685  30.196  0.00  0.00     0.085 H 
ATOM     15  H   GCD d 527      35.188   6.407  31.231  0.00  0.00     0.210 HD
ATOM     16  H   GCD d 527      38.840   7.662  30.878  0.00  0.00     0.134 H 
ATOM     17  H   GCD d 527      37.429   6.773  32.778  0.00  0.00     0.095 H 
ATOM     18  O5  NGK d 526      36.095  10.975  28.086  0.00  0.00    -0.349 OA
ATOM     19  O1  NGK d 526      38.312  11.104  28.492  0.00  0.00    -0.369 OA
ATOM     20  O7  NGK d 526      36.572   9.685  32.946  0.00  0.00    -0.274 OA
ATOM     21  O2S NGK d 526      32.489   8.347  30.185  0.00  0.00    -0.572 OA
ATOM     22  S   NGK d 526      33.500   7.827  29.102  0.00  0.00     0.252 S 
ATOM     23  O6  NGK d 526      35.313   8.625  25.437  0.00  0.00    -0.398 OA
ATOM     24  O4  NGK d 526      34.793   8.826  29.163  0.00  0.00    -0.246 OA
ATOM     25  C8  NGK d 526      38.713  10.589  33.495  0.00  0.00    -0.003 C 
ATOM     26  O3  NGK d 526      36.825   7.685  30.426  0.00  0.00    -0.348 OA
ATOM     27  N   NGK d 526      37.927  10.309  31.242  0.00  0.00    -0.349 N 
ATOM     28  C7  NGK d 526      37.642  10.143  32.539  0.00  0.00     0.214 C 
ATOM     29  O1S NGK d 526      32.911   7.771  27.792  0.00  0.00    -0.572 OA
ATOM     30  C3  NGK d 526      37.089   8.719  29.504  0.00  0.00     0.094 C 
ATOM     31  C6  NGK d 526      34.986   9.680  26.328  0.00  0.00     0.043 C 
ATOM     32  O3S NGK d 526      34.047   6.562  29.572  0.00  0.00    -0.572 OA
ATOM     33  C2  NGK d 526      36.946  10.086  30.178  0.00  0.00     0.087 C 
ATOM     34  C1  NGK d 526      37.054  11.184  29.115  0.00  0.00     0.151 C 
ATOM     35  C4  NGK d 526      35.997   8.608  28.440  0.00  0.00     0.114 C 
ATOM     36  C5  NGK d 526      36.110   9.714  27.388  0.00  0.00     0.090 C 
ATOM     37  H   NGK d 526      38.384  11.798  27.818  0.00  0.00     0.212 HD
ATOM     38  H   NGK d 526      34.633   8.561  24.749  0.00  0.00     0.209 HD
ATOM     39  H   NGK d 526      38.389  10.415  34.500  0.00  0.00     0.040 H 
ATOM     40  H   NGK d 526      38.901  11.634  33.357  0.00  0.00     0.040 H 
ATOM     41  H   NGK d 526      39.610  10.038  33.309  0.00  0.00     0.040 H 
ATOM     42  H   NGK d 526      38.835  10.593  30.992  0.00  0.00     0.163 HD
ATOM     43  H   NGK d 526      38.079   8.632  29.108  0.00  0.00     0.091 H 
ATOM     44  H   NGK d 526      34.042   9.492  26.795  0.00  0.00     0.078 H 
ATOM     45  H   NGK d 526      34.907  10.614  25.812  0.00  0.00     0.078 H 
ATOM     46  H   NGK d 526      35.984  10.115  30.648  0.00  0.00     0.084 H 
ATOM     47  H   NGK d 526      36.901  12.127  29.598  0.00  0.00     0.132 H 
ATOM     48  H   NGK d 526      36.055   7.671  27.928  0.00  0.00     0.093 H 
ATOM     49  H   NGK d 526      37.020   9.569  26.844  0.00  0.00     0.090 H 
ENDROOT
TORSDOF 12
ENDMDL
MODEL 53
REMARK VINA RESULT:      -6.3      2.842      5.543
REMARK  0 active torsions:
REMARK  status: ('A' for Active; 'I' for Inactive)
REMARK       I    between atoms: C3_1  and  O3_15 
REMARK       I    between atoms: O1_3  and  C1_27 
REMARK       I    between atoms: S_6  and  O4_8 
REMARK       I    between atoms: O6_7  and  C6_23 
REMARK       I    between atoms: O4_8  and  C4_29 
REMARK       I    between atoms: O2_9  and  C2_24 
REMARK       I    between atoms: C8_10  and  C7_18 
REMARK       I    between atoms: O3_11  and  C3_20 
REMARK       I    between atoms: O3_11  and  C1_16 
REMARK       I    between atoms: C6_12  and  C5_22 
REMARK       I    between atoms: N_13  and  C2_26 
REMARK       I    between atoms: N_13  and  C7_18 
REMARK       I    between atoms: C6_23  and  C5_30 
ROOT
ATOM      1  C3  GCD d 527      33.679  11.265  26.860  0.00  0.00     0.084 C 
ATOM      2  O2  GCD d 527      36.073  10.844  26.765  0.00  0.00    -0.388 OA
ATOM      3  C6  GCD d 527      34.295  13.811  29.663  0.00  0.00     0.233 C 
ATOM      4  C4  GCD d 527      33.666  12.477  27.762  0.00  0.00    -0.034 C 
ATOM      5  O3  GCD d 527      32.403  10.619  26.926  0.00  0.00    -0.389 OA
ATOM      6  C1  GCD d 527      35.033  10.193  28.736  0.00  0.00     0.165 C 
ATOM      7  O6B GCD d 527      34.896  13.907  30.759  0.00  0.00    -0.642 OA
ATOM      8  O5  GCD d 527      35.326  11.496  29.268  0.00  0.00    -0.311 OA
ATOM      9  C5  GCD d 527      34.428  12.591  28.872  0.00  0.00     0.147 C 
ATOM     10  C2  GCD d 527      34.842  10.320  27.241  0.00  0.00     0.111 C 
ATOM     11  O6A GCD d 527      33.559  14.715  29.211  0.00  0.00    -0.642 OA
ATOM     12  H   GCD d 527      33.848  11.563  25.847  0.00  0.00     0.093 H 
ATOM     13  H   GCD d 527      36.028  10.954  25.803  0.00  0.00     0.210 HD
ATOM     14  H   GCD d 527      33.041  13.261  27.517  0.00  0.00     0.085 H 
ATOM     15  H   GCD d 527      32.229  10.340  27.839  0.00  0.00     0.210 HD
ATOM     16  H   GCD d 527      35.843   9.545  28.998  0.00  0.00     0.134 H 
ATOM     17  H   GCD d 527      34.586   9.373  26.811  0.00  0.00     0.095 H 
ATOM     18  O5  NGK d 526      32.888   7.845  32.831  0.00  0.00    -0.349 OA
ATOM     19  O1  NGK d 526      35.131   7.625  32.690  0.00  0.00    -0.369 OA
ATOM     20  O7  NGK d 526      33.748   6.697  27.987  0.00  0.00    -0.274 OA
ATOM     21  O2S NGK d 526      29.458   9.023  29.492  0.00  0.00    -0.572 OA
ATOM     22  S   NGK d 526      30.378  10.033  30.264  0.00  0.00     0.252 S 
ATOM     23  O6  NGK d 526      31.895  11.135  33.984  0.00  0.00    -0.398 OA
ATOM     24  O4  NGK d 526      31.674   9.176  30.775  0.00  0.00    -0.246 OA
ATOM     25  C8  NGK d 526      35.927   5.725  28.084  0.00  0.00    -0.003 C 
ATOM     26  O3  NGK d 526      33.798   9.660  29.266  0.00  0.00    -0.348 OA
ATOM     27  N   NGK d 526      34.964   7.007  29.873  0.00  0.00    -0.349 N 
ATOM     28  C7  NGK d 526      34.784   6.528  28.636  0.00  0.00     0.214 C 
ATOM     29  O1S NGK d 526      29.687  10.679  31.346  0.00  0.00    -0.572 OA
ATOM     30  C3  NGK d 526      33.989   9.197  30.584  0.00  0.00     0.094 C 
ATOM     31  C6  NGK d 526      31.641   9.773  33.682  0.00  0.00     0.043 C 
ATOM     32  O3S NGK d 526      30.960  10.945  29.290  0.00  0.00    -0.572 OA
ATOM     33  C2  NGK d 526      33.901   7.669  30.632  0.00  0.00     0.087 C 
ATOM     34  C1  NGK d 526      33.926   7.210  32.094  0.00  0.00     0.151 C 
ATOM     35  C4  NGK d 526      32.816   9.756  31.390  0.00  0.00     0.114 C 
ATOM     36  C5  NGK d 526      32.847   9.285  32.846  0.00  0.00     0.090 C 
ATOM     37  H   NGK d 526      35.150   7.335  33.616  0.00  0.00     0.212 HD
ATOM     38  H   NGK d 526      31.163  11.492  34.511  0.00  0.00     0.209 HD
ATOM     39  H   NGK d 526      35.683   5.390  27.097  0.00  0.00     0.040 H 
ATOM     40  H   NGK d 526      36.105   4.878  28.714  0.00  0.00     0.040 H 
ATOM     41  H   NGK d 526      36.806   6.333  28.047  0.00  0.00     0.040 H 
ATOM     42  H   NGK d 526      35.850   6.911  30.290  0.00  0.00     0.163 HD
ATOM     43  H   NGK d 526      34.945   9.499  30.959  0.00  0.00     0.091 H 
ATOM     44  H   NGK d 526      30.737   9.681  33.117  0.00  0.00     0.078 H 
ATOM     45  H   NGK d 526      31.523   9.192  34.572  0.00  0.00     0.078 H 
ATOM     46  H   NGK d 526      32.981   7.385  30.167  0.00  0.00     0.084 H 
ATOM     47  H   NGK d 526      33.813   6.146  32.107  0.00  0.00     0.132 H 
ATOM     48  H   NGK d 526      32.832  10.825  31.398  0.00  0.00     0.093 H 
ATOM     49  H   NGK d 526      33.710   9.705  33.317  0.00  0.00     0.090 H 
ENDROOT
TORSDOF 12
ENDMDL
MODEL 54
REMARK VINA RESULT:      -6.3      2.236      5.376
REMARK  0 active torsions:
REMARK  status: ('A' for Active; 'I' for Inactive)
REMARK       I    between atoms: C3_1  and  O3_15 
REMARK       I    between atoms: O1_3  and  C1_27 
REMARK       I    between atoms: S_6  and  O4_8 
REMARK       I    between atoms: O6_7  and  C6_23 
REMARK       I    between atoms: O4_8  and  C4_29 
REMARK       I    between atoms: O2_9  and  C2_24 
REMARK       I    between atoms: C8_10  and  C7_18 
REMARK       I    between atoms: O3_11  and  C3_20 
REMARK       I    between atoms: O3_11  and  C1_16 
REMARK       I    between atoms: C6_12  and  C5_22 
REMARK       I    between atoms: N_13  and  C2_26 
REMARK       I    between atoms: N_13  and  C7_18 
REMARK       I    between atoms: C6_23  and  C5_30 
ROOT
ATOM      1  C3  GCD d 527      36.037   9.816  26.996  0.00  0.00     0.084 C 
ATOM      2  O2  GCD d 527      34.552   7.889  26.953  0.00  0.00    -0.388 OA
ATOM      3  C6  GCD d 527      37.767   8.342  30.087  0.00  0.00     0.233 C 
ATOM      4  C4  GCD d 527      37.038   9.347  28.025  0.00  0.00    -0.034 C 
ATOM      5  O3  GCD d 527      36.060  11.246  26.938  0.00  0.00    -0.389 OA
ATOM      6  C1  GCD d 527      34.310   9.281  28.795  0.00  0.00     0.165 C 
ATOM      7  O6B GCD d 527      37.483   7.864  31.210  0.00  0.00    -0.642 OA
ATOM      8  O5  GCD d 527      35.278   8.468  29.480  0.00  0.00    -0.311 OA
ATOM      9  C5  GCD d 527      36.693   8.719  29.171  0.00  0.00     0.147 C 
ATOM     10  C2  GCD d 527      34.630   9.260  27.316  0.00  0.00     0.111 C 
ATOM     11  O6A GCD d 527      38.942   8.535  29.709  0.00  0.00    -0.642 OA
ATOM     12  H   GCD d 527      36.299   9.440  26.029  0.00  0.00     0.093 H 
ATOM     13  H   GCD d 527      34.746   7.794  26.007  0.00  0.00     0.210 HD
ATOM     14  H   GCD d 527      38.039   9.515  27.844  0.00  0.00     0.085 H 
ATOM     15  H   GCD d 527      35.825  11.609  27.806  0.00  0.00     0.210 HD
ATOM     16  H   GCD d 527      33.340   8.889  29.016  0.00  0.00     0.134 H 
ATOM     17  H   GCD d 527      33.950   9.886  26.774  0.00  0.00     0.095 H 
ATOM     18  O5  NGK d 526      32.925  12.619  32.513  0.00  0.00    -0.349 OA
ATOM     19  O1  NGK d 526      31.692  10.729  32.440  0.00  0.00    -0.369 OA
ATOM     20  O7  NGK d 526      31.896  11.964  27.611  0.00  0.00    -0.274 OA
ATOM     21  O2S NGK d 526      35.834  14.808  29.188  0.00  0.00    -0.572 OA
ATOM     22  S   NGK d 526      36.229  13.597  30.105  0.00  0.00     0.252 S 
ATOM     23  O6  NGK d 526      36.195  12.076  33.983  0.00  0.00    -0.398 OA
ATOM     24  O4  NGK d 526      34.828  12.895  30.570  0.00  0.00    -0.246 OA
ATOM     25  C8  NGK d 526      30.011  10.500  27.688  0.00  0.00    -0.003 C 
ATOM     26  O3  NGK d 526      34.378  10.664  29.212  0.00  0.00    -0.348 OA
ATOM     27  N   NGK d 526      31.450  10.914  29.567  0.00  0.00    -0.349 N 
ATOM     28  C7  NGK d 526      31.211  11.186  28.279  0.00  0.00     0.214 C 
ATOM     29  O1S NGK d 526      37.037  14.004  31.222  0.00  0.00    -0.572 OA
ATOM     30  C3  NGK d 526      33.777  10.826  30.476  0.00  0.00     0.094 C 
ATOM     31  C6  NGK d 526      35.139  12.903  33.521  0.00  0.00     0.043 C 
ATOM     32  O3S NGK d 526      36.837  12.577  29.262  0.00  0.00    -0.572 OA
ATOM     33  C2  NGK d 526      32.470  11.613  30.351  0.00  0.00     0.087 C 
ATOM     34  C1  NGK d 526      31.939  11.931  31.753  0.00  0.00     0.151 C 
ATOM     35  C4  NGK d 526      34.755  11.674  31.291  0.00  0.00     0.114 C 
ATOM     36  C5  NGK d 526      34.210  11.992  32.685  0.00  0.00     0.090 C 
ATOM     37  H   NGK d 526      31.355  10.928  33.328  0.00  0.00     0.212 HD
ATOM     38  H   NGK d 526      36.809  12.604  34.515  0.00  0.00     0.209 HD
ATOM     39  H   NGK d 526      29.909  10.783  26.661  0.00  0.00     0.040 H 
ATOM     40  H   NGK d 526      29.134  10.790  28.226  0.00  0.00     0.040 H 
ATOM     41  H   NGK d 526      30.138   9.440  27.755  0.00  0.00     0.040 H 
ATOM     42  H   NGK d 526      30.917  10.214  30.007  0.00  0.00     0.163 HD
ATOM     43  H   NGK d 526      33.566   9.875  30.921  0.00  0.00     0.091 H 
ATOM     44  H   NGK d 526      35.526  13.694  32.913  0.00  0.00     0.078 H 
ATOM     45  H   NGK d 526      34.613  13.354  34.335  0.00  0.00     0.078 H 
ATOM     46  H   NGK d 526      32.688  12.516  29.821  0.00  0.00     0.084 H 
ATOM     47  H   NGK d 526      31.055  12.524  31.643  0.00  0.00     0.132 H 
ATOM     48  H   NGK d 526      35.688  11.166  31.418  0.00  0.00     0.093 H 
ATOM     49  H   NGK d 526      34.139  11.077  33.235  0.00  0.00     0.090 H 
ENDROOT
TORSDOF 12
ENDMDL
MODEL 55
REMARK VINA RESULT:      -6.3      2.606      4.880
REMARK  0 active torsions:
REMARK  status: ('A' for Active; 'I' for Inactive)
REMARK       I    between atoms: C3_1  and  O3_15 
REMARK       I    between atoms: O1_3  and  C1_27 
REMARK       I    between atoms: S_6  and  O4_8 
REMARK       I    between atoms: O6_7  and  C6_23 
REMARK       I    between atoms: O4_8  and  C4_29 
REMARK       I    between atoms: O2_9  and  C2_24 
REMARK       I    between atoms: C8_10  and  C7_18 
REMARK       I    between atoms: O3_11  and  C3_20 
REMARK       I    between atoms: O3_11  and  C1_16 
REMARK       I    between atoms: C6_12  and  C5_22 
REMARK       I    between atoms: N_13  and  C2_26 
REMARK       I    between atoms: N_13  and  C7_18 
REMARK       I    between atoms: C6_23  and  C5_30 
ROOT
ATOM      1  C3  GCD d 527      35.024  12.655  28.227  0.00  0.00     0.084 C 
ATOM      2  O2  GCD d 527      37.358  12.129  28.670  0.00  0.00    -0.388 OA
ATOM      3  C6  GCD d 527      34.477  13.141  31.993  0.00  0.00     0.233 C 
ATOM      4  C4  GCD d 527      34.609  13.157  29.590  0.00  0.00    -0.034 C 
ATOM      5  O3  GCD d 527      33.863  12.208  27.519  0.00  0.00    -0.389 OA
ATOM      6  C1  GCD d 527      35.824  10.596  29.501  0.00  0.00     0.165 C 
ATOM      7  O6B GCD d 527      34.693  12.554  33.079  0.00  0.00    -0.642 OA
ATOM      8  O5  GCD d 527      35.805  11.349  30.726  0.00  0.00    -0.311 OA
ATOM      9  C5  GCD d 527      34.972  12.560  30.747  0.00  0.00     0.147 C 
ATOM     10  C2  GCD d 527      36.098  11.550  28.360  0.00  0.00     0.111 C 
ATOM     11  O6A GCD d 527      33.832  14.210  31.916  0.00  0.00    -0.642 OA
ATOM     12  H   GCD d 527      35.471  13.448  27.664  0.00  0.00     0.093 H 
ATOM     13  H   GCD d 527      37.604  12.759  27.976  0.00  0.00     0.210 HD
ATOM     14  H   GCD d 527      34.018  14.000  29.641  0.00  0.00     0.085 H 
ATOM     15  H   GCD d 527      33.440  11.488  28.013  0.00  0.00     0.210 HD
ATOM     16  H   GCD d 527      36.572   9.837  29.597  0.00  0.00     0.134 H 
ATOM     17  H   GCD d 527      36.085  11.032  27.423  0.00  0.00     0.095 H 
ATOM     18  O5  NGK d 526      32.752   6.590  30.682  0.00  0.00    -0.349 OA
ATOM     19  O1  NGK d 526      34.937   6.270  31.154  0.00  0.00    -0.369 OA
ATOM     20  O7  NGK d 526      35.193   8.250  26.582  0.00  0.00    -0.274 OA
ATOM     21  O2S NGK d 526      30.438   9.750  27.687  0.00  0.00    -0.572 OA
ATOM     22  S   NGK d 526      30.965  10.065  29.132  0.00  0.00     0.252 S 
ATOM     23  O6  NGK d 526      31.126   8.763  33.085  0.00  0.00    -0.398 OA
ATOM     24  O4  NGK d 526      32.115   8.948  29.456  0.00  0.00    -0.246 OA
ATOM     25  C8  NGK d 526      37.317   7.182  26.799  0.00  0.00    -0.003 C 
ATOM     26  O3  NGK d 526      34.545   9.981  29.227  0.00  0.00    -0.348 OA
ATOM     27  N   NGK d 526      35.721   7.341  28.588  0.00  0.00    -0.349 N 
ATOM     28  C7  NGK d 526      35.985   7.650  27.313  0.00  0.00     0.214 C 
ATOM     29  O1S NGK d 526      29.910  10.065  30.108  0.00  0.00    -0.572 OA
ATOM     30  C3  NGK d 526      34.359   8.848  30.045  0.00  0.00     0.094 C 
ATOM     31  C6  NGK d 526      31.116   7.831  32.017  0.00  0.00     0.043 C 
ATOM     32  O3S NGK d 526      31.728  11.304  29.069  0.00  0.00    -0.572 OA
ATOM     33  C2  NGK d 526      34.414   7.568  29.207  0.00  0.00     0.087 C 
ATOM     34  C1  NGK d 526      34.026   6.375  30.087  0.00  0.00     0.151 C 
ATOM     35  C4  NGK d 526      32.944   8.976  30.609  0.00  0.00     0.114 C 
ATOM     36  C5  NGK d 526      32.565   7.775  31.479  0.00  0.00     0.090 C 
ATOM     37  H   NGK d 526      34.694   5.515  31.712  0.00  0.00     0.212 HD
ATOM     38  H   NGK d 526      30.234   8.835  33.460  0.00  0.00     0.209 HD
ATOM     39  H   NGK d 526      37.429   7.478  25.777  0.00  0.00     0.040 H 
ATOM     40  H   NGK d 526      37.372   6.116  26.871  0.00  0.00     0.040 H 
ATOM     41  H   NGK d 526      38.098   7.620  27.384  0.00  0.00     0.040 H 
ATOM     42  H   NGK d 526      36.437   6.944  29.134  0.00  0.00     0.163 HD
ATOM     43  H   NGK d 526      35.115   8.798  30.802  0.00  0.00     0.091 H 
ATOM     44  H   NGK d 526      30.448   8.155  31.247  0.00  0.00     0.078 H 
ATOM     45  H   NGK d 526      30.785   6.868  32.343  0.00  0.00     0.078 H 
ATOM     46  H   NGK d 526      33.718   7.681  28.403  0.00  0.00     0.084 H 
ATOM     47  H   NGK d 526      34.021   5.500  29.471  0.00  0.00     0.132 H 
ATOM     48  H   NGK d 526      32.850   9.853  31.214  0.00  0.00     0.093 H 
ATOM     49  H   NGK d 526      33.192   7.777  32.346  0.00  0.00     0.090 H 
ENDROOT
TORSDOF 12
ENDMDL
MODEL 56
REMARK VINA RESULT:      -6.3      2.071      3.243
REMARK  0 active torsions:
REMARK  status: ('A' for Active; 'I' for Inactive)
REMARK       I    between atoms: C3_1  and  O3_15 
REMARK       I    between atoms: O1_3  and  C1_27 
REMARK       I    between atoms: S_6  and  O4_8 
REMARK       I    between atoms: O6_7  and  C6_23 
REMARK       I    between atoms: O4_8  and  C4_29 
REMARK       I    between atoms: O2_9  and  C2_24 
REMARK       I    between atoms: C8_10  and  C7_18 
REMARK       I    between atoms: O3_11  and  C3_20 
REMARK       I    between atoms: O3_11  and  C1_16 
REMARK       I    between atoms: C6_12  and  C5_22 
REMARK       I    between atoms: N_13  and  C2_26 
REMARK       I    between atoms: N_13  and  C7_18 
REMARK       I    between atoms: C6_23  and  C5_30 
ROOT
ATOM      1  C3  GCD d 527      35.745  10.463  32.764  0.00  0.00     0.084 C 
ATOM      2  O2  GCD d 527      35.397  12.816  33.272  0.00  0.00    -0.388 OA
ATOM      3  C6  GCD d 527      38.156  11.483  29.959  0.00  0.00     0.233 C 
ATOM      4  C4  GCD d 527      36.907  10.575  31.805  0.00  0.00    -0.034 C 
ATOM      5  O3  GCD d 527      35.060   9.228  32.527  0.00  0.00    -0.389 OA
ATOM      6  C1  GCD d 527      34.613  12.128  31.198  0.00  0.00     0.165 C 
ATOM      7  O6B GCD d 527      38.211  12.254  28.973  0.00  0.00    -0.642 OA
ATOM      8  O5  GCD d 527      35.895  12.479  30.648  0.00  0.00    -0.311 OA
ATOM      9  C5  GCD d 527      36.983  11.507  30.829  0.00  0.00     0.147 C 
ATOM     10  C2  GCD d 527      34.814  11.690  32.632  0.00  0.00     0.111 C 
ATOM     11  O6A GCD d 527      39.061  10.665  30.232  0.00  0.00    -0.642 OA
ATOM     12  H   GCD d 527      36.100  10.457  33.773  0.00  0.00     0.093 H 
ATOM     13  H   GCD d 527      35.557  12.610  34.206  0.00  0.00     0.210 HD
ATOM     14  H   GCD d 527      37.684   9.903  31.899  0.00  0.00     0.085 H 
ATOM     15  H   GCD d 527      34.729   9.211  31.615  0.00  0.00     0.210 HD
ATOM     16  H   GCD d 527      33.976  12.982  31.109  0.00  0.00     0.134 H 
ATOM     17  H   GCD d 527      33.884  11.385  33.067  0.00  0.00     0.095 H 
ATOM     18  O5  NGK d 526      31.992  10.732  26.948  0.00  0.00    -0.349 OA
ATOM     19  O1  NGK d 526      31.844  12.925  27.466  0.00  0.00    -0.369 OA
ATOM     20  O7  NGK d 526      31.128  10.804  31.925  0.00  0.00    -0.274 OA
ATOM     21  O2S NGK d 526      33.248   6.776  29.609  0.00  0.00    -0.572 OA
ATOM     22  S   NGK d 526      34.241   7.792  28.941  0.00  0.00     0.252 S 
ATOM     23  O6  NGK d 526      35.188   9.880  25.463  0.00  0.00    -0.398 OA
ATOM     24  O4  NGK d 526      33.395   9.170  28.699  0.00  0.00    -0.246 OA
ATOM     25  C8  NGK d 526      30.213  12.987  32.241  0.00  0.00    -0.003 C 
ATOM     26  O3  NGK d 526      34.019  11.007  30.504  0.00  0.00    -0.348 OA
ATOM     27  N   NGK d 526      31.372  12.308  30.248  0.00  0.00    -0.349 N 
ATOM     28  C7  NGK d 526      30.954  11.935  31.464  0.00  0.00     0.214 C 
ATOM     29  O1S NGK d 526      34.810   7.276  27.726  0.00  0.00    -0.572 OA
ATOM     30  C3  NGK d 526      33.492  11.421  29.264  0.00  0.00     0.094 C 
ATOM     31  C6  NGK d 526      33.837   9.605  25.797  0.00  0.00     0.043 C 
ATOM     32  O3S NGK d 526      35.220   8.188  29.945  0.00  0.00    -0.572 OA
ATOM     33  C2  NGK d 526      31.962  11.372  29.289  0.00  0.00     0.087 C 
ATOM     34  C1  NGK d 526      31.428  11.647  27.879  0.00  0.00     0.151 C 
ATOM     35  C4  NGK d 526      33.974  10.386  28.247  0.00  0.00     0.114 C 
ATOM     36  C5  NGK d 526      33.428  10.666  26.845  0.00  0.00     0.090 C 
ATOM     37  H   NGK d 526      31.507  13.101  26.574  0.00  0.00     0.212 HD
ATOM     38  H   NGK d 526      35.495   9.238  24.804  0.00  0.00     0.209 HD
ATOM     39  H   NGK d 526      29.925  12.591  33.192  0.00  0.00     0.040 H 
ATOM     40  H   NGK d 526      29.340  13.283  31.697  0.00  0.00     0.040 H 
ATOM     41  H   NGK d 526      30.848  13.836  32.386  0.00  0.00     0.040 H 
ATOM     42  H   NGK d 526      31.279  13.252  29.987  0.00  0.00     0.163 HD
ATOM     43  H   NGK d 526      33.802  12.420  29.034  0.00  0.00     0.091 H 
ATOM     44  H   NGK d 526      33.749   8.623  26.210  0.00  0.00     0.078 H 
ATOM     45  H   NGK d 526      33.207   9.647  24.934  0.00  0.00     0.078 H 
ATOM     46  H   NGK d 526      31.677  10.393  29.613  0.00  0.00     0.084 H 
ATOM     47  H   NGK d 526      30.361  11.558  27.909  0.00  0.00     0.132 H 
ATOM     48  H   NGK d 526      35.042  10.383  28.181  0.00  0.00     0.093 H 
ATOM     49  H   NGK d 526      33.847  11.587  26.498  0.00  0.00     0.090 H 
ENDROOT
TORSDOF 12
ENDMDL
MODEL 57
REMARK VINA RESULT:      -6.2      2.848      5.853
REMARK  0 active torsions:
REMARK  status: ('A' for Active; 'I' for Inactive)
REMARK       I    between atoms: C3_1  and  O3_15 
REMARK       I    between atoms: O1_3  and  C1_27 
REMARK       I    between atoms: S_6  and  O4_8 
REMARK       I    between atoms: O6_7  and  C6_23 
REMARK       I    between atoms: O4_8  and  C4_29 
REMARK       I    between atoms: O2_9  and  C2_24 
REMARK       I    between atoms: C8_10  and  C7_18 
REMARK       I    between atoms: O3_11  and  C3_20 
REMARK       I    between atoms: O3_11  and  C1_16 
REMARK       I    between atoms: C6_12  and  C5_22 
REMARK       I    between atoms: N_13  and  C2_26 
REMARK       I    between atoms: N_13  and  C7_18 
REMARK       I    between atoms: C6_23  and  C5_30 
ROOT
ATOM      1  C3  GCD d 527      33.965   8.789  27.005  0.00  0.00     0.084 C 
ATOM      2  O2  GCD d 527      33.474   6.738  28.217  0.00  0.00    -0.388 OA
ATOM      3  C6  GCD d 527      37.181   9.168  29.063  0.00  0.00     0.233 C 
ATOM      4  C4  GCD d 527      35.382   9.030  27.470  0.00  0.00    -0.034 C 
ATOM      5  O3  GCD d 527      33.396  10.030  26.574  0.00  0.00    -0.389 OA
ATOM      6  C1  GCD d 527      33.430   8.675  29.495  0.00  0.00     0.165 C 
ATOM      7  O6B GCD d 527      37.566   9.148  30.255  0.00  0.00    -0.642 OA
ATOM      8  O5  GCD d 527      34.823   8.462  29.783  0.00  0.00    -0.311 OA
ATOM      9  C5  GCD d 527      35.784   8.876  28.751  0.00  0.00     0.147 C 
ATOM     10  C2  GCD d 527      33.136   8.114  28.122  0.00  0.00     0.111 C 
ATOM     11  O6A GCD d 527      37.939   9.446  28.109  0.00  0.00    -0.642 OA
ATOM     12  H   GCD d 527      33.961   8.115  26.173  0.00  0.00     0.093 H 
ATOM     13  H   GCD d 527      33.310   6.305  27.365  0.00  0.00     0.210 HD
ATOM     14  H   GCD d 527      36.081   9.329  26.773  0.00  0.00     0.085 H 
ATOM     15  H   GCD d 527      33.391  10.657  27.314  0.00  0.00     0.210 HD
ATOM     16  H   GCD d 527      32.861   8.202  30.268  0.00  0.00     0.134 H 
ATOM     17  H   GCD d 527      32.113   8.286  27.855  0.00  0.00     0.095 H 
ATOM     18  O5  NGK d 526      32.385  12.847  32.391  0.00  0.00    -0.349 OA
ATOM     19  O1  NGK d 526      32.077  10.873  33.442  0.00  0.00    -0.369 OA
ATOM     20  O7  NGK d 526      29.899   9.999  29.040  0.00  0.00    -0.274 OA
ATOM     21  O2S NGK d 526      32.663  14.052  27.618  0.00  0.00    -0.572 OA
ATOM     22  S   NGK d 526      33.825  13.456  28.489  0.00  0.00     0.252 S 
ATOM     23  O6  NGK d 526      35.892  13.720  32.096  0.00  0.00    -0.398 OA
ATOM     24  O4  NGK d 526      33.114  12.713  29.760  0.00  0.00    -0.246 OA
ATOM     25  C8  NGK d 526      28.938   8.315  30.432  0.00  0.00    -0.003 C 
ATOM     26  O3  NGK d 526      33.100  10.082  29.446  0.00  0.00    -0.348 OA
ATOM     27  N   NGK d 526      30.697   9.786  31.149  0.00  0.00    -0.349 N 
ATOM     28  C7  NGK d 526      29.893   9.436  30.137  0.00  0.00     0.214 C 
ATOM     29  O1S NGK d 526      34.768  14.461  28.897  0.00  0.00    -0.572 OA
ATOM     30  C3  NGK d 526      33.022  10.613  30.749  0.00  0.00     0.094 C 
ATOM     31  C6  NGK d 526      34.506  14.018  32.032  0.00  0.00     0.043 C 
ATOM     32  O3S NGK d 526      34.412  12.344  27.753  0.00  0.00    -0.572 OA
ATOM     33  C2  NGK d 526      31.572  10.959  31.100  0.00  0.00     0.087 C 
ATOM     34  C1  NGK d 526      31.543  11.702  32.440  0.00  0.00     0.151 C 
ATOM     35  C4  NGK d 526      33.814  11.920  30.708  0.00  0.00     0.114 C 
ATOM     36  C5  NGK d 526      33.771  12.657  32.049  0.00  0.00     0.090 C 
ATOM     37  H   NGK d 526      32.060  11.340  34.292  0.00  0.00     0.212 HD
ATOM     38  H   NGK d 526      36.400  14.546  32.089  0.00  0.00     0.209 HD
ATOM     39  H   NGK d 526      28.345   8.113  29.564  0.00  0.00     0.040 H 
ATOM     40  H   NGK d 526      28.299   8.595  31.243  0.00  0.00     0.040 H 
ATOM     41  H   NGK d 526      29.489   7.438  30.699  0.00  0.00     0.040 H 
ATOM     42  H   NGK d 526      30.699   9.232  31.962  0.00  0.00     0.163 HD
ATOM     43  H   NGK d 526      33.393   9.913  31.468  0.00  0.00     0.091 H 
ATOM     44  H   NGK d 526      34.282  14.549  31.132  0.00  0.00     0.078 H 
ATOM     45  H   NGK d 526      34.203  14.634  32.852  0.00  0.00     0.078 H 
ATOM     46  H   NGK d 526      31.192  11.583  30.319  0.00  0.00     0.084 H 
ATOM     47  H   NGK d 526      30.528  11.978  32.641  0.00  0.00     0.132 H 
ATOM     48  H   NGK d 526      34.842  11.737  30.475  0.00  0.00     0.093 H 
ATOM     49  H   NGK d 526      34.285  12.063  32.775  0.00  0.00     0.090 H 
ENDROOT
TORSDOF 12
ENDMDL
MODEL 58
REMARK VINA RESULT:      -6.2      2.944      5.811
REMARK  0 active torsions:
REMARK  status: ('A' for Active; 'I' for Inactive)
REMARK       I    between atoms: C3_1  and  O3_15 
REMARK       I    between atoms: O1_3  and  C1_27 
REMARK       I    between atoms: S_6  and  O4_8 
REMARK       I    between atoms: O6_7  and  C6_23 
REMARK       I    between atoms: O4_8  and  C4_29 
REMARK       I    between atoms: O2_9  and  C2_24 
REMARK       I    between atoms: C8_10  and  C7_18 
REMARK       I    between atoms: O3_11  and  C3_20 
REMARK       I    between atoms: O3_11  and  C1_16 
REMARK       I    between atoms: C6_12  and  C5_22 
REMARK       I    between atoms: N_13  and  C2_26 
REMARK       I    between atoms: N_13  and  C7_18 
REMARK       I    between atoms: C6_23  and  C5_30 
ROOT
ATOM      1  C3  GCD d 527      35.333   7.491  27.876  0.00  0.00     0.084 C 
ATOM      2  O2  GCD d 527      35.304   5.914  29.728  0.00  0.00    -0.388 OA
ATOM      3  C6  GCD d 527      37.981   9.547  29.742  0.00  0.00     0.233 C 
ATOM      4  C4  GCD d 527      36.538   8.317  28.259  0.00  0.00    -0.034 C 
ATOM      5  O3  GCD d 527      34.489   8.265  27.016  0.00  0.00    -0.389 OA
ATOM      6  C1  GCD d 527      34.518   8.040  30.229  0.00  0.00     0.165 C 
ATOM      7  O6B GCD d 527      38.187  10.048  30.872  0.00  0.00    -0.642 OA
ATOM      8  O5  GCD d 527      35.858   8.397  30.608  0.00  0.00    -0.311 OA
ATOM      9  C5  GCD d 527      36.788   8.733  29.521  0.00  0.00     0.147 C 
ATOM     10  C2  GCD d 527      34.593   6.994  29.139  0.00  0.00     0.111 C 
ATOM     11  O6A GCD d 527      38.747   9.723  28.770  0.00  0.00    -0.642 OA
ATOM     12  H   GCD d 527      35.641   6.618  27.340  0.00  0.00     0.093 H 
ATOM     13  H   GCD d 527      35.393   5.195  29.083  0.00  0.00     0.210 HD
ATOM     14  H   GCD d 527      37.207   8.577  27.518  0.00  0.00     0.085 H 
ATOM     15  H   GCD d 527      34.198   9.064  27.483  0.00  0.00     0.210 HD
ATOM     16  H   GCD d 527      34.013   7.692  31.106  0.00  0.00     0.134 H 
ATOM     17  H   GCD d 527      33.612   6.727  28.804  0.00  0.00     0.095 H 
ATOM     18  O5  NGK d 526      31.906  12.359  31.417  0.00  0.00    -0.349 OA
ATOM     19  O1  NGK d 526      32.051  10.856  33.096  0.00  0.00    -0.369 OA
ATOM     20  O7  NGK d 526      30.851   7.922  29.244  0.00  0.00    -0.274 OA
ATOM     21  O2S NGK d 526      32.471  11.939  26.537  0.00  0.00    -0.572 OA
ATOM     22  S   NGK d 526      33.626  12.074  27.592  0.00  0.00     0.252 S 
ATOM     23  O6  NGK d 526      35.007  14.169  30.916  0.00  0.00    -0.398 OA
ATOM     24  O4  NGK d 526      32.996  11.606  29.026  0.00  0.00    -0.246 OA
ATOM     25  C8  NGK d 526      30.246   6.578  31.122  0.00  0.00    -0.003 C 
ATOM     26  O3  NGK d 526      33.799   9.164  29.673  0.00  0.00    -0.348 OA
ATOM     27  N   NGK d 526      31.378   8.689  31.309  0.00  0.00    -0.349 N 
ATOM     28  C7  NGK d 526      30.861   7.784  30.470  0.00  0.00     0.214 C 
ATOM     29  O1S NGK d 526      34.166  13.406  27.637  0.00  0.00    -0.572 OA
ATOM     30  C3  NGK d 526      33.390  10.041  30.697  0.00  0.00     0.094 C 
ATOM     31  C6  NGK d 526      33.618  13.964  30.717  0.00  0.00     0.043 C 
ATOM     32  O3S NGK d 526      34.608  11.035  27.316  0.00  0.00    -0.572 OA
ATOM     33  C2  NGK d 526      31.869   9.995  30.866  0.00  0.00     0.087 C 
ATOM     34  C1  NGK d 526      31.439  11.087  31.851  0.00  0.00     0.151 C 
ATOM     35  C4  NGK d 526      33.762  11.443  30.212  0.00  0.00     0.114 C 
ATOM     36  C5  NGK d 526      33.321  12.525  31.200  0.00  0.00     0.090 C 
ATOM     37  H   NGK d 526      31.780  11.546  33.722  0.00  0.00     0.212 HD
ATOM     38  H   NGK d 526      35.247  15.063  30.627  0.00  0.00     0.209 HD
ATOM     39  H   NGK d 526      29.863   5.921  30.369  0.00  0.00     0.040 H 
ATOM     40  H   NGK d 526      29.448   6.888  31.763  0.00  0.00     0.040 H 
ATOM     41  H   NGK d 526      30.988   6.067  31.697  0.00  0.00     0.040 H 
ATOM     42  H   NGK d 526      31.432   8.466  32.266  0.00  0.00     0.163 HD
ATOM     43  H   NGK d 526      33.848   9.778  31.628  0.00  0.00     0.091 H 
ATOM     44  H   NGK d 526      33.373  14.065  29.681  0.00  0.00     0.078 H 
ATOM     45  H   NGK d 526      33.037  14.683  31.254  0.00  0.00     0.078 H 
ATOM     46  H   NGK d 526      31.433  10.167  29.904  0.00  0.00     0.084 H 
ATOM     47  H   NGK d 526      30.371  11.071  31.915  0.00  0.00     0.132 H 
ATOM     48  H   NGK d 526      34.820  11.536  30.085  0.00  0.00     0.093 H 
ATOM     49  H   NGK d 526      33.881  12.405  32.102  0.00  0.00     0.090 H 
ENDROOT
TORSDOF 12
ENDMDL
MODEL 59
REMARK VINA RESULT:      -6.2      2.195      6.129
REMARK  0 active torsions:
REMARK  status: ('A' for Active; 'I' for Inactive)
REMARK       I    between atoms: C3_1  and  O3_15 
REMARK       I    between atoms: O1_3  and  C1_27 
REMARK       I    between atoms: S_6  and  O4_8 
REMARK       I    between atoms: O6_7  and  C6_23 
REMARK       I    between atoms: O4_8  and  C4_29 
REMARK       I    between atoms: O2_9  and  C2_24 
REMARK       I    between atoms: C8_10  and  C7_18 
REMARK       I    between atoms: O3_11  and  C3_20 
REMARK       I    between atoms: O3_11  and  C1_16 
REMARK       I    between atoms: C6_12  and  C5_22 
REMARK       I    between atoms: N_13  and  C2_26 
REMARK       I    between atoms: N_13  and  C7_18 
REMARK       I    between atoms: C6_23  and  C5_30 
ROOT
ATOM      1  C3  GCD d 527      32.943   7.966  29.267  0.00  0.00     0.084 C 
ATOM      2  O2  GCD d 527      34.171   7.169  27.325  0.00  0.00    -0.388 OA
ATOM      3  C6  GCD d 527      31.971  11.109  27.294  0.00  0.00     0.233 C 
ATOM      4  C4  GCD d 527      32.214   9.136  28.650  0.00  0.00    -0.034 C 
ATOM      5  O3  GCD d 527      33.042   8.169  30.681  0.00  0.00    -0.389 OA
ATOM      6  C1  GCD d 527      35.029   9.083  28.317  0.00  0.00     0.165 C 
ATOM      7  O6B GCD d 527      32.499  12.004  26.592  0.00  0.00    -0.642 OA
ATOM      8  O5  GCD d 527      34.207   9.858  27.428  0.00  0.00    -0.311 OA
ATOM      9  C5  GCD d 527      32.792  10.009  27.796  0.00  0.00     0.147 C 
ATOM     10  C2  GCD d 527      34.325   7.775  28.600  0.00  0.00     0.111 C 
ATOM     11  O6A GCD d 527      30.761  11.116  27.607  0.00  0.00    -0.642 OA
ATOM     12  H   GCD d 527      32.397   7.062  29.100  0.00  0.00     0.093 H 
ATOM     13  H   GCD d 527      33.722   6.315  27.425  0.00  0.00     0.210 HD
ATOM     14  H   GCD d 527      31.221   9.276  28.893  0.00  0.00     0.085 H 
ATOM     15  H   GCD d 527      33.535   8.987  30.857  0.00  0.00     0.210 HD
ATOM     16  H   GCD d 527      35.981   8.951  27.848  0.00  0.00     0.134 H 
ATOM     17  H   GCD d 527      34.891   7.183  29.289  0.00  0.00     0.095 H 
ATOM     18  O5  NGK d 526      37.672  12.790  30.800  0.00  0.00    -0.349 OA
ATOM     19  O1  NGK d 526      38.654  12.042  28.910  0.00  0.00    -0.369 OA
ATOM     20  O7  NGK d 526      37.283   7.761  31.074  0.00  0.00    -0.274 OA
ATOM     21  O2S NGK d 526      34.202  10.856  33.721  0.00  0.00    -0.572 OA
ATOM     22  S   NGK d 526      33.953  11.619  32.372  0.00  0.00     0.252 S 
ATOM     23  O6  NGK d 526      34.878  15.000  30.122  0.00  0.00    -0.398 OA
ATOM     24  O4  NGK d 526      35.353  11.540  31.533  0.00  0.00    -0.246 OA
ATOM     25  C8  NGK d 526      38.970   7.046  29.543  0.00  0.00    -0.003 C 
ATOM     26  O3  NGK d 526      35.208   9.740  29.594  0.00  0.00    -0.348 OA
ATOM     27  N   NGK d 526      38.134   9.296  29.642  0.00  0.00    -0.349 N 
ATOM     28  C7  NGK d 526      38.045   8.061  30.151  0.00  0.00     0.214 C 
ATOM     29  O1S NGK d 526      33.516  12.972  32.587  0.00  0.00    -0.572 OA
ATOM     30  C3  NGK d 526      36.138  10.792  29.478  0.00  0.00     0.094 C 
ATOM     31  C6  NGK d 526      35.846  14.413  30.977  0.00  0.00     0.043 C 
ATOM     32  O3S NGK d 526      33.047  10.815  31.564  0.00  0.00    -0.572 OA
ATOM     33  C2  NGK d 526      37.433  10.445  30.218  0.00  0.00     0.087 C 
ATOM     34  C1  NGK d 526      38.348  11.675  30.233  0.00  0.00     0.151 C 
ATOM     35  C4  NGK d 526      35.500  11.985  30.192  0.00  0.00     0.114 C 
ATOM     36  C5  NGK d 526      36.426  13.203  30.207  0.00  0.00     0.090 C 
ATOM     37  H   NGK d 526      39.233  12.820  28.916  0.00  0.00     0.212 HD
ATOM     38  H   NGK d 526      34.482  15.768  30.561  0.00  0.00     0.209 HD
ATOM     39  H   NGK d 526      38.821   6.098  30.016  0.00  0.00     0.040 H 
ATOM     40  H   NGK d 526      39.984   7.358  29.683  0.00  0.00     0.040 H 
ATOM     41  H   NGK d 526      38.766   6.958  28.497  0.00  0.00     0.040 H 
ATOM     42  H   NGK d 526      38.696   9.438  28.847  0.00  0.00     0.163 HD
ATOM     43  H   NGK d 526      36.369  10.985  28.451  0.00  0.00     0.091 H 
ATOM     44  H   NGK d 526      35.388  14.088  31.887  0.00  0.00     0.078 H 
ATOM     45  H   NGK d 526      36.612  15.113  31.236  0.00  0.00     0.078 H 
ATOM     46  H   NGK d 526      37.169  10.165  31.216  0.00  0.00     0.084 H 
ATOM     47  H   NGK d 526      39.223  11.427  30.797  0.00  0.00     0.132 H 
ATOM     48  H   NGK d 526      34.591  12.278  29.710  0.00  0.00     0.093 H 
ATOM     49  H   NGK d 526      36.554  13.541  29.200  0.00  0.00     0.090 H 
ENDROOT
TORSDOF 12
ENDMDL
MODEL 60
REMARK VINA RESULT:      -6.2      2.634      5.356
REMARK  0 active torsions:
REMARK  status: ('A' for Active; 'I' for Inactive)
REMARK       I    between atoms: C3_1  and  O3_15 
REMARK       I    between atoms: O1_3  and  C1_27 
REMARK       I    between atoms: S_6  and  O4_8 
REMARK       I    between atoms: O6_7  and  C6_23 
REMARK       I    between atoms: O4_8  and  C4_29 
REMARK       I    between atoms: O2_9  and  C2_24 
REMARK       I    between atoms: C8_10  and  C7_18 
REMARK       I    between atoms: O3_11  and  C3_20 
REMARK       I    between atoms: O3_11  and  C1_16 
REMARK       I    between atoms: C6_12  and  C5_22 
REMARK       I    between atoms: N_13  and  C2_26 
REMARK       I    between atoms: N_13  and  C7_18 
REMARK       I    between atoms: C6_23  and  C5_30 
ROOT
ATOM      1  C3  GCD d 527      33.417  13.129  28.179  0.00  0.00     0.084 C 
ATOM      2  O2  GCD d 527      31.191  12.395  28.829  0.00  0.00    -0.388 OA
ATOM      3  C6  GCD d 527      33.996   9.718  26.519  0.00  0.00     0.233 C 
ATOM      4  C4  GCD d 527      33.797  12.005  27.244  0.00  0.00    -0.034 C 
ATOM      5  O3  GCD d 527      34.610  13.749  28.673  0.00  0.00    -0.389 OA
ATOM      6  C1  GCD d 527      32.941  11.253  29.841  0.00  0.00     0.165 C 
ATOM      7  O6B GCD d 527      33.892   8.496  26.775  0.00  0.00    -0.642 OA
ATOM      8  O5  GCD d 527      32.891  10.309  28.758  0.00  0.00    -0.311 OA
ATOM      9  C5  GCD d 527      33.551  10.701  27.505  0.00  0.00     0.147 C 
ATOM     10  C2  GCD d 527      32.509  12.604  29.316  0.00  0.00     0.111 C 
ATOM     11  O6A GCD d 527      34.486  10.150  25.454  0.00  0.00    -0.642 OA
ATOM     12  H   GCD d 527      32.851  13.869  27.654  0.00  0.00     0.093 H 
ATOM     13  H   GCD d 527      30.842  13.226  28.473  0.00  0.00     0.210 HD
ATOM     14  H   GCD d 527      34.269  12.244  26.359  0.00  0.00     0.085 H 
ATOM     15  H   GCD d 527      35.140  13.094  29.154  0.00  0.00     0.210 HD
ATOM     16  H   GCD d 527      32.307  10.888  30.621  0.00  0.00     0.134 H 
ATOM     17  H   GCD d 527      32.567  13.345  30.087  0.00  0.00     0.095 H 
ATOM     18  O5  NGK d 526      36.563   9.153  32.900  0.00  0.00    -0.349 OA
ATOM     19  O1  NGK d 526      34.456   8.463  33.327  0.00  0.00    -0.369 OA
ATOM     20  O7  NGK d 526      33.808  13.387  32.861  0.00  0.00    -0.274 OA
ATOM     21  O2S NGK d 526      38.342  13.094  30.529  0.00  0.00    -0.572 OA
ATOM     22  S   NGK d 526      37.816  11.774  29.861  0.00  0.00     0.252 S 
ATOM     23  O6  NGK d 526      37.942   7.611  29.922  0.00  0.00    -0.398 OA
ATOM     24  O4  NGK d 526      36.839  11.060  30.960  0.00  0.00    -0.246 OA
ATOM     25  C8  NGK d 526      31.856  12.723  34.066  0.00  0.00    -0.003 C 
ATOM     26  O3  NGK d 526      34.285  11.419  30.349  0.00  0.00    -0.348 OA
ATOM     27  N   NGK d 526      33.464  11.171  33.182  0.00  0.00    -0.349 N 
ATOM     28  C7  NGK d 526      33.126  12.461  33.306  0.00  0.00     0.214 C 
ATOM     29  O1S NGK d 526      38.887  10.915  29.438  0.00  0.00    -0.572 OA
ATOM     30  C3  NGK d 526      34.646  10.318  31.151  0.00  0.00     0.094 C 
ATOM     31  C6  NGK d 526      38.050   8.356  31.124  0.00  0.00     0.043 C 
ATOM     32  O3S NGK d 526      36.889  12.148  28.801  0.00  0.00    -0.572 OA
ATOM     33  C2  NGK d 526      34.744  10.736  32.621  0.00  0.00     0.087 C 
ATOM     34  C1  NGK d 526      35.314   9.571  33.437  0.00  0.00     0.151 C 
ATOM     35  C4  NGK d 526      36.045   9.913  30.688  0.00  0.00     0.114 C 
ATOM     36  C5  NGK d 526      36.608   8.755  31.516  0.00  0.00     0.090 C 
ATOM     37  H   NGK d 526      34.815   7.724  33.843  0.00  0.00     0.212 HD
ATOM     38  H   NGK d 526      38.825   7.335  29.632  0.00  0.00     0.209 HD
ATOM     39  H   NGK d 526      31.677  13.777  34.107  0.00  0.00     0.040 H 
ATOM     40  H   NGK d 526      31.949  12.337  35.059  0.00  0.00     0.040 H 
ATOM     41  H   NGK d 526      31.039  12.242  33.571  0.00  0.00     0.040 H 
ATOM     42  H   NGK d 526      32.824  10.486  33.481  0.00  0.00     0.163 HD
ATOM     43  H   NGK d 526      33.925   9.531  31.064  0.00  0.00     0.091 H 
ATOM     44  H   NGK d 526      38.646   9.230  30.967  0.00  0.00     0.078 H 
ATOM     45  H   NGK d 526      38.519   7.783  31.896  0.00  0.00     0.078 H 
ATOM     46  H   NGK d 526      35.396  11.582  32.672  0.00  0.00     0.084 H 
ATOM     47  H   NGK d 526      35.422   9.901  34.450  0.00  0.00     0.132 H 
ATOM     48  H   NGK d 526      36.035   9.601  29.665  0.00  0.00     0.093 H 
ATOM     49  H   NGK d 526      36.011   7.887  31.329  0.00  0.00     0.090 H 
ENDROOT
TORSDOF 12
ENDMDL
MODEL 61
REMARK VINA RESULT:      -6.1      3.802      6.591
REMARK  0 active torsions:
REMARK  status: ('A' for Active; 'I' for Inactive)
REMARK       I    between atoms: C3_1  and  O3_15 
REMARK       I    between atoms: O1_3  and  C1_27 
REMARK       I    between atoms: S_6  and  O4_8 
REMARK       I    between atoms: O6_7  and  C6_23 
REMARK       I    between atoms: O4_8  and  C4_29 
REMARK       I    between atoms: O2_9  and  C2_24 
REMARK       I    between atoms: C8_10  and  C7_18 
REMARK       I    between atoms: O3_11  and  C3_20 
REMARK       I    between atoms: O3_11  and  C1_16 
REMARK       I    between atoms: C6_12  and  C5_22 
REMARK       I    between atoms: N_13  and  C2_26 
REMARK       I    between atoms: N_13  and  C7_18 
REMARK       I    between atoms: C6_23  and  C5_30 
ROOT
ATOM      1  C3  GCD d 527      33.875   8.972  31.833  0.00  0.00     0.084 C 
ATOM      2  O2  GCD d 527      32.180   7.329  32.419  0.00  0.00    -0.388 OA
ATOM      3  C6  GCD d 527      32.533   8.994  28.239  0.00  0.00     0.233 C 
ATOM      4  C4  GCD d 527      33.391   9.364  30.457  0.00  0.00    -0.034 C 
ATOM      5  O3  GCD d 527      35.273   9.264  31.938  0.00  0.00    -0.389 OA
ATOM      6  C1  GCD d 527      33.789   6.594  30.916  0.00  0.00     0.165 C 
ATOM      7  O6B GCD d 527      32.227   8.195  27.323  0.00  0.00    -0.642 OA
ATOM      8  O5  GCD d 527      32.932   7.038  29.851  0.00  0.00    -0.311 OA
ATOM      9  C5  GCD d 527      32.950   8.475  29.540  0.00  0.00     0.147 C 
ATOM     10  C2  GCD d 527      33.559   7.485  32.117  0.00  0.00     0.111 C 
ATOM     11  O6A GCD d 527      32.518  10.235  28.091  0.00  0.00    -0.642 OA
ATOM     12  H   GCD d 527      33.361   9.541  32.580  0.00  0.00     0.093 H 
ATOM     13  H   GCD d 527      31.953   7.876  33.187  0.00  0.00     0.210 HD
ATOM     14  H   GCD d 527      33.397  10.364  30.203  0.00  0.00     0.085 H 
ATOM     15  H   GCD d 527      35.760   8.759  31.269  0.00  0.00     0.210 HD
ATOM     16  H   GCD d 527      33.562   5.567  31.111  0.00  0.00     0.134 H 
ATOM     17  H   GCD d 527      34.207   7.209  32.922  0.00  0.00     0.095 H 
ATOM     18  O5  NGK d 526      37.682   4.400  28.287  0.00  0.00    -0.349 OA
ATOM     19  O1  NGK d 526      35.985   3.001  28.794  0.00  0.00    -0.369 OA
ATOM     20  O7  NGK d 526      36.630   5.384  33.129  0.00  0.00    -0.274 OA
ATOM     21  O2S NGK d 526      39.062   8.750  30.155  0.00  0.00    -0.572 OA
ATOM     22  S   NGK d 526      37.919   8.517  29.105  0.00  0.00     0.252 S 
ATOM     23  O6  NGK d 526      36.862   6.627  25.546  0.00  0.00    -0.398 OA
ATOM     24  O4  NGK d 526      37.473   6.951  29.249  0.00  0.00    -0.246 OA
ATOM     25  C8  NGK d 526      35.458   3.414  33.795  0.00  0.00    -0.003 C 
ATOM     26  O3  NGK d 526      35.188   6.722  30.570  0.00  0.00    -0.348 OA
ATOM     27  N   NGK d 526      35.877   3.998  31.503  0.00  0.00    -0.349 N 
ATOM     28  C7  NGK d 526      36.034   4.362  32.782  0.00  0.00     0.214 C 
ATOM     29  O1S NGK d 526      38.333   8.850  27.769  0.00  0.00    -0.572 OA
ATOM     30  C3  NGK d 526      35.571   5.691  29.689  0.00  0.00     0.094 C 
ATOM     31  C6  NGK d 526      37.769   6.015  26.448  0.00  0.00     0.043 C 
ATOM     32  O3S NGK d 526      36.736   9.232  29.565  0.00  0.00    -0.572 OA
ATOM     33  C2  NGK d 526      36.513   4.709  30.391  0.00  0.00     0.087 C 
ATOM     34  C1  NGK d 526      37.056   3.712  29.363  0.00  0.00     0.151 C 
ATOM     35  C4  NGK d 526      36.362   6.377  28.574  0.00  0.00     0.114 C 
ATOM     36  C5  NGK d 526      36.907   5.371  27.558  0.00  0.00     0.090 C 
ATOM     37  H   NGK d 526      36.326   2.368  28.143  0.00  0.00     0.212 HD
ATOM     38  H   NGK d 526      37.356   7.049  24.826  0.00  0.00     0.209 HD
ATOM     39  H   NGK d 526      35.635   3.794  34.780  0.00  0.00     0.040 H 
ATOM     40  H   NGK d 526      35.924   2.457  33.693  0.00  0.00     0.040 H 
ATOM     41  H   NGK d 526      34.405   3.317  33.635  0.00  0.00     0.040 H 
ATOM     42  H   NGK d 526      35.311   3.220  31.301  0.00  0.00     0.163 HD
ATOM     43  H   NGK d 526      34.715   5.155  29.335  0.00  0.00     0.091 H 
ATOM     44  H   NGK d 526      38.426   6.748  26.868  0.00  0.00     0.078 H 
ATOM     45  H   NGK d 526      38.377   5.287  25.954  0.00  0.00     0.078 H 
ATOM     46  H   NGK d 526      37.312   5.278  30.818  0.00  0.00     0.084 H 
ATOM     47  H   NGK d 526      37.749   3.068  29.864  0.00  0.00     0.132 H 
ATOM     48  H   NGK d 526      35.748   7.072  28.041  0.00  0.00     0.093 H 
ATOM     49  H   NGK d 526      36.078   4.923  27.052  0.00  0.00     0.090 H 
ENDROOT
TORSDOF 12
ENDMDL
MODEL 62
REMARK VINA RESULT:      -6.1      2.927      6.191
REMARK  0 active torsions:
REMARK  status: ('A' for Active; 'I' for Inactive)
REMARK       I    between atoms: C3_1  and  O3_15 
REMARK       I    between atoms: O1_3  and  C1_27 
REMARK       I    between atoms: S_6  and  O4_8 
REMARK       I    between atoms: O6_7  and  C6_23 
REMARK       I    between atoms: O4_8  and  C4_29 
REMARK       I    between atoms: O2_9  and  C2_24 
REMARK       I    between atoms: C8_10  and  C7_18 
REMARK       I    between atoms: O3_11  and  C3_20 
REMARK       I    between atoms: O3_11  and  C1_16 
REMARK       I    between atoms: C6_12  and  C5_22 
REMARK       I    between atoms: N_13  and  C2_26 
REMARK       I    between atoms: N_13  and  C7_18 
REMARK       I    between atoms: C6_23  and  C5_30 
ROOT
ATOM      1  C3  GCD d 527      31.453  10.000  28.058  0.00  0.00     0.084 C 
ATOM      2  O2  GCD d 527      31.563   7.740  28.951  0.00  0.00    -0.388 OA
ATOM      3  C6  GCD d 527      35.092   9.656  26.892  0.00  0.00     0.233 C 
ATOM      4  C4  GCD d 527      32.746  10.033  27.279  0.00  0.00    -0.034 C 
ATOM      5  O3  GCD d 527      31.064  11.341  28.377  0.00  0.00    -0.389 OA
ATOM      6  C1  GCD d 527      32.933   9.287  30.008  0.00  0.00     0.165 C 
ATOM      7  O6B GCD d 527      36.213   9.312  27.333  0.00  0.00    -0.642 OA
ATOM      8  O5  GCD d 527      33.975   8.928  29.083  0.00  0.00    -0.311 OA
ATOM      9  C5  GCD d 527      33.912   9.534  27.746  0.00  0.00     0.147 C 
ATOM     10  C2  GCD d 527      31.600   9.112  29.315  0.00  0.00     0.111 C 
ATOM     11  O6A GCD d 527      34.928  10.125  25.745  0.00  0.00    -0.642 OA
ATOM     12  H   GCD d 527      30.677   9.562  27.465  0.00  0.00     0.093 H 
ATOM     13  H   GCD d 527      30.727   7.549  28.497  0.00  0.00     0.210 HD
ATOM     14  H   GCD d 527      32.740  10.459  26.339  0.00  0.00     0.085 H 
ATOM     15  H   GCD d 527      31.755  11.758  28.915  0.00  0.00     0.210 HD
ATOM     16  H   GCD d 527      33.037   8.666  30.873  0.00  0.00     0.134 H 
ATOM     17  H   GCD d 527      30.798   9.405  29.962  0.00  0.00     0.095 H 
ATOM     18  O5  NGK d 526      35.392  12.637  33.108  0.00  0.00    -0.349 OA
ATOM     19  O1  NGK d 526      35.516  10.481  33.768  0.00  0.00    -0.369 OA
ATOM     20  O7  NGK d 526      30.680  10.885  32.614  0.00  0.00    -0.274 OA
ATOM     21  O2S NGK d 526      32.313  15.000  30.067  0.00  0.00    -0.572 OA
ATOM     22  S   NGK d 526      33.551  14.136  29.639  0.00  0.00     0.252 S 
ATOM     23  O6  NGK d 526      37.587  13.353  30.313  0.00  0.00    -0.398 OA
ATOM     24  O4  NGK d 526      33.871  13.136  30.892  0.00  0.00    -0.246 OA
ATOM     25  C8  NGK d 526      30.713   8.960  34.026  0.00  0.00    -0.003 C 
ATOM     26  O3  NGK d 526      33.017  10.677  30.398  0.00  0.00    -0.348 OA
ATOM     27  N   NGK d 526      32.695  10.096  33.283  0.00  0.00    -0.349 N 
ATOM     28  C7  NGK d 526      31.358  10.062  33.235  0.00  0.00     0.214 C 
ATOM     29  O1S NGK d 526      34.682  14.948  29.281  0.00  0.00    -0.572 OA
ATOM     30  C3  NGK d 526      34.057  10.863  31.332  0.00  0.00     0.094 C 
ATOM     31  C6  NGK d 526      36.736  13.736  31.381  0.00  0.00     0.043 C 
ATOM     32  O3S NGK d 526      33.116  13.216  28.596  0.00  0.00    -0.572 OA
ATOM     33  C2  NGK d 526      33.483  11.190  32.713  0.00  0.00     0.087 C 
ATOM     34  C1  NGK d 526      34.631  11.568  33.656  0.00  0.00     0.151 C 
ATOM     35  C4  NGK d 526      34.830  12.089  30.846  0.00  0.00     0.114 C 
ATOM     36  C5  NGK d 526      35.968  12.461  31.800  0.00  0.00     0.090 C 
ATOM     37  H   NGK d 526      36.244  10.718  34.364  0.00  0.00     0.212 HD
ATOM     38  H   NGK d 526      38.094  14.123  30.011  0.00  0.00     0.209 HD
ATOM     39  H   NGK d 526      29.650   9.021  33.921  0.00  0.00     0.040 H 
ATOM     40  H   NGK d 526      30.976   9.060  35.058  0.00  0.00     0.040 H 
ATOM     41  H   NGK d 526      31.053   8.013  33.662  0.00  0.00     0.040 H 
ATOM     42  H   NGK d 526      33.169   9.354  33.721  0.00  0.00     0.163 HD
ATOM     43  H   NGK d 526      34.660   9.982  31.409  0.00  0.00     0.091 H 
ATOM     44  H   NGK d 526      36.051  14.492  31.057  0.00  0.00     0.078 H 
ATOM     45  H   NGK d 526      37.295  14.140  32.198  0.00  0.00     0.078 H 
ATOM     46  H   NGK d 526      32.811  12.014  32.595  0.00  0.00     0.084 H 
ATOM     47  H   NGK d 526      34.205  11.842  34.599  0.00  0.00     0.132 H 
ATOM     48  H   NGK d 526      35.262  11.912  29.883  0.00  0.00     0.093 H 
ATOM     49  H   NGK d 526      36.691  11.674  31.783  0.00  0.00     0.090 H 
ENDROOT
TORSDOF 12
ENDMDL
MODEL 63
REMARK VINA RESULT:      -6.1      2.511      3.583
REMARK  0 active torsions:
REMARK  status: ('A' for Active; 'I' for Inactive)
REMARK       I    between atoms: C3_1  and  O3_15 
REMARK       I    between atoms: O1_3  and  C1_27 
REMARK       I    between atoms: S_6  and  O4_8 
REMARK       I    between atoms: O6_7  and  C6_23 
REMARK       I    between atoms: O4_8  and  C4_29 
REMARK       I    between atoms: O2_9  and  C2_24 
REMARK       I    between atoms: C8_10  and  C7_18 
REMARK       I    between atoms: O3_11  and  C3_20 
REMARK       I    between atoms: O3_11  and  C1_16 
REMARK       I    between atoms: C6_12  and  C5_22 
REMARK       I    between atoms: N_13  and  C2_26 
REMARK       I    between atoms: N_13  and  C7_18 
REMARK       I    between atoms: C6_23  and  C5_30 
ROOT
ATOM      1  C3  GCD d 527      34.913  11.696  33.150  0.00  0.00     0.084 C 
ATOM      2  O2  GCD d 527      33.275  13.466  33.470  0.00  0.00    -0.388 OA
ATOM      3  C6  GCD d 527      36.332  13.627  30.154  0.00  0.00     0.233 C 
ATOM      4  C4  GCD d 527      35.810  12.356  32.130  0.00  0.00    -0.034 C 
ATOM      5  O3  GCD d 527      35.061  10.275  33.054  0.00  0.00    -0.389 OA
ATOM      6  C1  GCD d 527      33.047  12.253  31.504  0.00  0.00     0.165 C 
ATOM      7  O6B GCD d 527      35.944  14.191  29.104  0.00  0.00    -0.642 OA
ATOM      8  O5  GCD d 527      33.901  13.217  30.864  0.00  0.00    -0.311 OA
ATOM      9  C5  GCD d 527      35.348  13.064  31.076  0.00  0.00     0.147 C 
ATOM     10  C2  GCD d 527      33.448  12.152  32.959  0.00  0.00     0.111 C 
ATOM     11  O6A GCD d 527      37.539  13.504  30.453  0.00  0.00    -0.642 OA
ATOM     12  H   GCD d 527      35.198  11.993  34.138  0.00  0.00     0.093 H 
ATOM     13  H   GCD d 527      33.515  13.481  34.410  0.00  0.00     0.210 HD
ATOM     14  H   GCD d 527      36.831  12.261  32.244  0.00  0.00     0.085 H 
ATOM     15  H   GCD d 527      34.808   9.983  32.164  0.00  0.00     0.210 HD
ATOM     16  H   GCD d 527      32.036  12.577  31.373  0.00  0.00     0.134 H 
ATOM     17  H   GCD d 527      32.856  11.416  33.463  0.00  0.00     0.095 H 
ATOM     18  O5  NGK d 526      31.739   9.202  27.522  0.00  0.00    -0.349 OA
ATOM     19  O1  NGK d 526      30.356  10.955  27.856  0.00  0.00    -0.369 OA
ATOM     20  O7  NGK d 526      30.941   9.257  32.510  0.00  0.00    -0.274 OA
ATOM     21  O2S NGK d 526      35.008   6.956  30.450  0.00  0.00    -0.572 OA
ATOM     22  S   NGK d 526      35.247   8.285  29.649  0.00  0.00     0.252 S 
ATOM     23  O6  NGK d 526      34.861  10.185  25.963  0.00  0.00    -0.398 OA
ATOM     24  O4  NGK d 526      33.766   8.901  29.330  0.00  0.00    -0.246 OA
ATOM     25  C8  NGK d 526      28.938  10.545  32.681  0.00  0.00    -0.003 C 
ATOM     26  O3  NGK d 526      33.208  10.932  30.939  0.00  0.00    -0.348 OA
ATOM     27  N   NGK d 526      30.296  10.457  30.700  0.00  0.00    -0.349 N 
ATOM     28  C7  NGK d 526      30.155  10.034  31.962  0.00  0.00     0.214 C 
ATOM     29  O1S NGK d 526      36.020   8.069  28.457  0.00  0.00    -0.572 OA
ATOM     30  C3  NGK d 526      32.551  10.847  29.695  0.00  0.00     0.094 C 
ATOM     31  C6  NGK d 526      33.907   9.223  26.384  0.00  0.00     0.043 C 
ATOM     32  O3S NGK d 526      35.813   9.264  30.566  0.00  0.00    -0.572 OA
ATOM     33  C2  NGK d 526      31.325   9.937  29.798  0.00  0.00     0.087 C 
ATOM     34  C1  NGK d 526      30.743   9.717  28.397  0.00  0.00     0.151 C 
ATOM     35  C4  NGK d 526      33.549  10.179  28.748  0.00  0.00     0.114 C 
ATOM     36  C5  NGK d 526      32.954   9.957  27.355  0.00  0.00     0.090 C 
ATOM     37  H   NGK d 526      29.987  10.819  26.969  0.00  0.00     0.212 HD
ATOM     38  H   NGK d 526      35.487   9.772  25.347  0.00  0.00     0.209 HD
ATOM     39  H   NGK d 526      28.919  10.151  33.675  0.00  0.00     0.040 H 
ATOM     40  H   NGK d 526      28.058  10.234  32.157  0.00  0.00     0.040 H 
ATOM     41  H   NGK d 526      28.970  11.614  32.721  0.00  0.00     0.040 H 
ATOM     42  H   NGK d 526      29.681  11.148  30.364  0.00  0.00     0.163 HD
ATOM     43  H   NGK d 526      32.235  11.815  29.365  0.00  0.00     0.091 H 
ATOM     44  H   NGK d 526      34.394   8.412  26.884  0.00  0.00     0.078 H 
ATOM     45  H   NGK d 526      33.375   8.812  25.552  0.00  0.00     0.078 H 
ATOM     46  H   NGK d 526      31.648   9.007  30.218  0.00  0.00     0.084 H 
ATOM     47  H   NGK d 526      29.920   9.038  28.486  0.00  0.00     0.132 H 
ATOM     48  H   NGK d 526      34.427  10.779  28.631  0.00  0.00     0.093 H 
ATOM     49  H   NGK d 526      32.774  10.913  26.911  0.00  0.00     0.090 H 
ENDROOT
TORSDOF 12
ENDMDL
MODEL 64
REMARK VINA RESULT:      -6.1      2.860      4.523
REMARK  0 active torsions:
REMARK  status: ('A' for Active; 'I' for Inactive)
REMARK       I    between atoms: C3_1  and  O3_15 
REMARK       I    between atoms: O1_3  and  C1_27 
REMARK       I    between atoms: S_6  and  O4_8 
REMARK       I    between atoms: O6_7  and  C6_23 
REMARK       I    between atoms: O4_8  and  C4_29 
REMARK       I    between atoms: O2_9  and  C2_24 
REMARK       I    between atoms: C8_10  and  C7_18 
REMARK       I    between atoms: O3_11  and  C3_20 
REMARK       I    between atoms: O3_11  and  C1_16 
REMARK       I    between atoms: C6_12  and  C5_22 
REMARK       I    between atoms: N_13  and  C2_26 
REMARK       I    between atoms: N_13  and  C7_18 
REMARK       I    between atoms: C6_23  and  C5_30 
ROOT
ATOM      1  C3  GCD d 527      37.509   8.869  32.120  0.00  0.00     0.084 C 
ATOM      2  O2  GCD d 527      36.249  10.214  33.708  0.00  0.00    -0.388 OA
ATOM      3  C6  GCD d 527      37.833  11.948  29.854  0.00  0.00     0.233 C 
ATOM      4  C4  GCD d 527      38.002   9.956  31.195  0.00  0.00    -0.034 C 
ATOM      5  O3  GCD d 527      37.504   7.622  31.416  0.00  0.00    -0.389 OA
ATOM      6  C1  GCD d 527      35.207   9.867  31.663  0.00  0.00     0.165 C 
ATOM      7  O6B GCD d 527      37.122  12.846  29.345  0.00  0.00    -0.642 OA
ATOM      8  O5  GCD d 527      35.826  11.077  31.193  0.00  0.00    -0.311 OA
ATOM      9  C5  GCD d 527      37.230  10.981  30.768  0.00  0.00     0.147 C 
ATOM     10  C2  GCD d 527      36.118   9.232  32.690  0.00  0.00     0.111 C 
ATOM     11  O6A GCD d 527      39.052  11.824  29.604  0.00  0.00    -0.642 OA
ATOM     12  H   GCD d 527      38.166   8.774  32.959  0.00  0.00     0.093 H 
ATOM     13  H   GCD d 527      36.825   9.877  34.411  0.00  0.00     0.210 HD
ATOM     14  H   GCD d 527      38.980   9.915  30.871  0.00  0.00     0.085 H 
ATOM     15  H   GCD d 527      36.913   7.686  30.649  0.00  0.00     0.210 HD
ATOM     16  H   GCD d 527      34.248  10.125  32.060  0.00  0.00     0.134 H 
ATOM     17  H   GCD d 527      35.707   8.308  33.039  0.00  0.00     0.095 H 
ATOM     18  O5  NGK d 526      32.272   8.544  27.598  0.00  0.00    -0.349 OA
ATOM     19  O1  NGK d 526      31.251   9.891  29.095  0.00  0.00    -0.369 OA
ATOM     20  O7  NGK d 526      33.418   6.544  32.093  0.00  0.00    -0.274 OA
ATOM     21  O2S NGK d 526      36.227   5.619  27.929  0.00  0.00    -0.572 OA
ATOM     22  S   NGK d 526      36.244   7.172  27.702  0.00  0.00     0.252 S 
ATOM     23  O6  NGK d 526      34.640  10.337  25.519  0.00  0.00    -0.398 OA
ATOM     24  O4  NGK d 526      34.803   7.731  28.234  0.00  0.00    -0.246 OA
ATOM     25  C8  NGK d 526      31.729   7.476  33.500  0.00  0.00    -0.003 C 
ATOM     26  O3  NGK d 526      35.044   8.899  30.601  0.00  0.00    -0.348 OA
ATOM     27  N   NGK d 526      32.230   8.302  31.300  0.00  0.00    -0.349 N 
ATOM     28  C7  NGK d 526      32.544   7.402  32.240  0.00  0.00     0.214 C 
ATOM     29  O1S NGK d 526      36.493   7.516  26.328  0.00  0.00    -0.572 OA
ATOM     30  C3  NGK d 526      33.963   9.257  29.771  0.00  0.00     0.094 C 
ATOM     31  C6  NGK d 526      33.847   9.207  25.844  0.00  0.00     0.043 C 
ATOM     32  O3S NGK d 526      37.185   7.753  28.649  0.00  0.00    -0.572 OA
ATOM     33  C2  NGK d 526      32.801   8.275  29.952  0.00  0.00     0.087 C 
ATOM     34  C1  NGK d 526      31.720   8.579  28.909  0.00  0.00     0.151 C 
ATOM     35  C4  NGK d 526      34.478   9.110  28.339  0.00  0.00     0.114 C 
ATOM     36  C5  NGK d 526      33.387   9.407  27.307  0.00  0.00     0.090 C 
ATOM     37  H   NGK d 526      30.566  10.086  28.437  0.00  0.00     0.212 HD
ATOM     38  H   NGK d 526      34.955  10.259  24.606  0.00  0.00     0.209 HD
ATOM     39  H   NGK d 526      32.057   6.720  34.182  0.00  0.00     0.040 H 
ATOM     40  H   NGK d 526      30.697   7.322  33.266  0.00  0.00     0.040 H 
ATOM     41  H   NGK d 526      31.854   8.439  33.949  0.00  0.00     0.040 H 
ATOM     42  H   NGK d 526      31.587   9.012  31.524  0.00  0.00     0.163 HD
ATOM     43  H   NGK d 526      33.618  10.244  30.000  0.00  0.00     0.091 H 
ATOM     44  H   NGK d 526      34.424   8.310  25.757  0.00  0.00     0.078 H 
ATOM     45  H   NGK d 526      33.012   9.114  25.182  0.00  0.00     0.078 H 
ATOM     46  H   NGK d 526      33.189   7.288  29.811  0.00  0.00     0.084 H 
ATOM     47  H   NGK d 526      30.943   7.851  29.020  0.00  0.00     0.132 H 
ATOM     48  H   NGK d 526      35.288   9.782  28.153  0.00  0.00     0.093 H 
ATOM     49  H   NGK d 526      33.124  10.441  27.384  0.00  0.00     0.090 H 
ENDROOT
TORSDOF 12
ENDMDL
MODEL 65
REMARK VINA RESULT:      -6.0      2.437      3.623
REMARK  0 active torsions:
REMARK  status: ('A' for Active; 'I' for Inactive)
REMARK       I    between atoms: C3_1  and  O3_15 
REMARK       I    between atoms: O1_3  and  C1_27 
REMARK       I    between atoms: S_6  and  O4_8 
REMARK       I    between atoms: O6_7  and  C6_23 
REMARK       I    between atoms: O4_8  and  C4_29 
REMARK       I    between atoms: O2_9  and  C2_24 
REMARK       I    between atoms: C8_10  and  C7_18 
REMARK       I    between atoms: O3_11  and  C3_20 
REMARK       I    between atoms: O3_11  and  C1_16 
REMARK       I    between atoms: C6_12  and  C5_22 
REMARK       I    between atoms: N_13  and  C2_26 
REMARK       I    between atoms: N_13  and  C7_18 
REMARK       I    between atoms: C6_23  and  C5_30 
ROOT
ATOM      1  C3  GCD d 527      36.996  11.731  30.545  0.00  0.00     0.084 C 
ATOM      2  O2  GCD d 527      37.562  12.000  28.194  0.00  0.00    -0.388 OA
ATOM      3  C6  GCD d 527      37.639   7.964  30.212  0.00  0.00     0.233 C 
ATOM      4  C4  GCD d 527      37.429  10.300  30.753  0.00  0.00    -0.034 C 
ATOM      5  O3  GCD d 527      36.019  12.074  31.535  0.00  0.00    -0.389 OA
ATOM      6  C1  GCD d 527      35.633  10.778  28.612  0.00  0.00     0.165 C 
ATOM      7  O6B GCD d 527      37.329   6.998  29.476  0.00  0.00    -0.642 OA
ATOM      8  O5  GCD d 527      36.443   9.590  28.629  0.00  0.00    -0.311 OA
ATOM      9  C5  GCD d 527      37.181   9.308  29.868  0.00  0.00     0.147 C 
ATOM     10  C2  GCD d 527      36.473  11.935  29.104  0.00  0.00     0.111 C 
ATOM     11  O6A GCD d 527      38.317   7.834  31.254  0.00  0.00    -0.642 OA
ATOM     12  H   GCD d 527      37.831  12.389  30.662  0.00  0.00     0.093 H 
ATOM     13  H   GCD d 527      38.151  12.727  28.447  0.00  0.00     0.210 HD
ATOM     14  H   GCD d 527      37.942  10.065  31.617  0.00  0.00     0.085 H 
ATOM     15  H   GCD d 527      35.251  11.487  31.448  0.00  0.00     0.210 HD
ATOM     16  H   GCD d 527      35.279  10.916  27.612  0.00  0.00     0.134 H 
ATOM     17  H   GCD d 527      35.892  12.834  29.140  0.00  0.00     0.095 H 
ATOM     18  O5  NGK d 526      30.870   8.805  29.168  0.00  0.00    -0.349 OA
ATOM     19  O1  NGK d 526      31.563   9.000  27.027  0.00  0.00    -0.369 OA
ATOM     20  O7  NGK d 526      32.917  13.417  28.911  0.00  0.00    -0.274 OA
ATOM     21  O2S NGK d 526      32.380  10.943  33.346  0.00  0.00    -0.572 OA
ATOM     22  S   NGK d 526      33.055   9.713  32.643  0.00  0.00     0.252 S 
ATOM     23  O6  NGK d 526      32.414   5.999  30.867  0.00  0.00    -0.398 OA
ATOM     24  O4  NGK d 526      32.576   9.756  31.080  0.00  0.00    -0.246 OA
ATOM     25  C8  NGK d 526      32.883  13.848  26.563  0.00  0.00    -0.003 C 
ATOM     26  O3  NGK d 526      34.507  10.673  29.512  0.00  0.00    -0.348 OA
ATOM     27  N   NGK d 526      32.558  11.667  27.518  0.00  0.00    -0.349 N 
ATOM     28  C7  NGK d 526      32.798  12.959  27.771  0.00  0.00     0.214 C 
ATOM     29  O1S NGK d 526      32.722   8.470  33.284  0.00  0.00    -0.572 OA
ATOM     30  C3  NGK d 526      33.506   9.853  28.953  0.00  0.00     0.094 C 
ATOM     31  C6  NGK d 526      31.448   7.031  30.754  0.00  0.00     0.043 C 
ATOM     32  O3S NGK d 526      34.484   9.978  32.549  0.00  0.00    -0.572 OA
ATOM     33  C2  NGK d 526      32.281  10.688  28.571  0.00  0.00     0.087 C 
ATOM     34  C1  NGK d 526      31.147   9.751  28.142  0.00  0.00     0.151 C 
ATOM     35  C4  NGK d 526      33.086   8.897  30.071  0.00  0.00     0.114 C 
ATOM     36  C5  NGK d 526      31.948   7.971  29.633  0.00  0.00     0.090 C 
ATOM     37  H   NGK d 526      30.847   8.406  26.753  0.00  0.00     0.212 HD
ATOM     38  H   NGK d 526      32.145   5.379  31.562  0.00  0.00     0.209 HD
ATOM     39  H   NGK d 526      33.077  14.853  26.872  0.00  0.00     0.040 H 
ATOM     40  H   NGK d 526      31.957  13.811  26.028  0.00  0.00     0.040 H 
ATOM     41  H   NGK d 526      33.675  13.511  25.928  0.00  0.00     0.040 H 
ATOM     42  H   NGK d 526      32.568  11.361  26.582  0.00  0.00     0.163 HD
ATOM     43  H   NGK d 526      33.868   9.352  28.079  0.00  0.00     0.091 H 
ATOM     44  H   NGK d 526      31.366   7.566  31.677  0.00  0.00     0.078 H 
ATOM     45  H   NGK d 526      30.480   6.636  30.528  0.00  0.00     0.078 H 
ATOM     46  H   NGK d 526      31.993  11.251  29.434  0.00  0.00     0.084 H 
ATOM     47  H   NGK d 526      30.287  10.351  27.928  0.00  0.00     0.132 H 
ATOM     48  H   NGK d 526      33.905   8.278  30.373  0.00  0.00     0.093 H 
ATOM     49  H   NGK d 526      32.317   7.327  28.863  0.00  0.00     0.090 H 
ENDROOT
TORSDOF 12
ENDMDL
MODEL 66
REMARK VINA RESULT:      -6.0      2.779      4.959
REMARK  0 active torsions:
REMARK  status: ('A' for Active; 'I' for Inactive)
REMARK       I    between atoms: C3_1  and  O3_15 
REMARK       I    between atoms: O1_3  and  C1_27 
REMARK       I    between atoms: S_6  and  O4_8 
REMARK       I    between atoms: O6_7  and  C6_23 
REMARK       I    between atoms: O4_8  and  C4_29 
REMARK       I    between atoms: O2_9  and  C2_24 
REMARK       I    between atoms: C8_10  and  C7_18 
REMARK       I    between atoms: O3_11  and  C3_20 
REMARK       I    between atoms: O3_11  and  C1_16 
REMARK       I    between atoms: C6_12  and  C5_22 
REMARK       I    between atoms: N_13  and  C2_26 
REMARK       I    between atoms: N_13  and  C7_18 
REMARK       I    between atoms: C6_23  and  C5_30 
ROOT
ATOM      1  C3  GCD d 527      31.235  12.652  32.377  0.00  0.00     0.084 C 
ATOM      2  O2  GCD d 527      33.005  12.998  34.010  0.00  0.00    -0.388 OA
ATOM      3  C6  GCD d 527      31.377   8.888  33.104  0.00  0.00     0.233 C 
ATOM      4  C4  GCD d 527      30.905  11.205  32.657  0.00  0.00    -0.034 C 
ATOM      5  O3  GCD d 527      30.827  12.977  31.044  0.00  0.00    -0.389 OA
ATOM      6  C1  GCD d 527      33.625  11.800  32.120  0.00  0.00     0.165 C 
ATOM      7  O6B GCD d 527      32.211   7.957  33.189  0.00  0.00    -0.642 OA
ATOM      8  O5  GCD d 527      33.269  10.596  32.822  0.00  0.00    -0.311 OA
ATOM      9  C5  GCD d 527      31.841  10.253  32.868  0.00  0.00     0.147 C 
ATOM     10  C2  GCD d 527      32.739  12.921  32.617  0.00  0.00     0.111 C 
ATOM     11  O6A GCD d 527      30.143   8.705  33.193  0.00  0.00    -0.642 OA
ATOM     12  H   GCD d 527      30.701  13.289  33.052  0.00  0.00     0.093 H 
ATOM     13  H   GCD d 527      32.468  13.703  34.403  0.00  0.00     0.210 HD
ATOM     14  H   GCD d 527      29.912  10.928  32.688  0.00  0.00     0.085 H 
ATOM     15  H   GCD d 527      31.299  12.410  30.414  0.00  0.00     0.210 HD
ATOM     16  H   GCD d 527      34.664  11.983  32.294  0.00  0.00     0.134 H 
ATOM     17  H   GCD d 527      32.950  13.829  32.091  0.00  0.00     0.095 H 
ATOM     18  O5  NGK d 526      35.525   9.905  27.684  0.00  0.00    -0.349 OA
ATOM     19  O1  NGK d 526      37.054  10.166  29.325  0.00  0.00    -0.369 OA
ATOM     20  O7  NGK d 526      34.563  14.480  29.597  0.00  0.00    -0.274 OA
ATOM     21  O2S NGK d 526      31.050  11.852  26.983  0.00  0.00    -0.572 OA
ATOM     22  S   NGK d 526      31.392  10.636  27.915  0.00  0.00     0.252 S 
ATOM     23  O6  NGK d 526      33.413   7.006  28.215  0.00  0.00    -0.398 OA
ATOM     24  O4  NGK d 526      32.988  10.748  28.252  0.00  0.00    -0.246 OA
ATOM     25  C8  NGK d 526      36.615  15.000  30.703  0.00  0.00    -0.003 C 
ATOM     26  O3  NGK d 526      33.386  11.684  30.699  0.00  0.00    -0.348 OA
ATOM     27  N   NGK d 526      36.030  12.792  29.958  0.00  0.00    -0.349 N 
ATOM     28  C7  NGK d 526      35.636  14.068  30.045  0.00  0.00     0.214 C 
ATOM     29  O1S NGK d 526      31.045   9.377  27.314  0.00  0.00    -0.572 OA
ATOM     30  C3  NGK d 526      34.394  10.906  30.094  0.00  0.00     0.094 C 
ATOM     31  C6  NGK d 526      33.934   8.061  27.423  0.00  0.00     0.043 C 
ATOM     32  O3S NGK d 526      30.771  10.876  29.211  0.00  0.00    -0.572 OA
ATOM     33  C2  NGK d 526      35.285  11.780  29.207  0.00  0.00     0.087 C 
ATOM     34  C1  NGK d 526      36.248  10.882  28.423  0.00  0.00     0.151 C 
ATOM     35  C4  NGK d 526      33.661   9.917  29.187  0.00  0.00     0.114 C 
ATOM     36  C5  NGK d 526      34.633   9.032  28.403  0.00  0.00     0.090 C 
ATOM     37  H   NGK d 526      37.664   9.597  28.832  0.00  0.00     0.212 HD
ATOM     38  H   NGK d 526      32.962   6.365  27.644  0.00  0.00     0.209 HD
ATOM     39  H   NGK d 526      36.207  15.989  30.722  0.00  0.00     0.040 H 
ATOM     40  H   NGK d 526      37.531  15.002  30.152  0.00  0.00     0.040 H 
ATOM     41  H   NGK d 526      36.801  14.672  31.704  0.00  0.00     0.040 H 
ATOM     42  H   NGK d 526      36.856  12.521  30.419  0.00  0.00     0.163 HD
ATOM     43  H   NGK d 526      35.004  10.432  30.834  0.00  0.00     0.091 H 
ATOM     44  H   NGK d 526      33.144   8.562  26.905  0.00  0.00     0.078 H 
ATOM     45  H   NGK d 526      34.617   7.693  26.686  0.00  0.00     0.078 H 
ATOM     46  H   NGK d 526      34.645  12.316  28.537  0.00  0.00     0.084 H 
ATOM     47  H   NGK d 526      36.825  11.507  27.773  0.00  0.00     0.132 H 
ATOM     48  H   NGK d 526      33.027   9.272  29.758  0.00  0.00     0.093 H 
ATOM     49  H   NGK d 526      35.155   8.409  29.098  0.00  0.00     0.090 H 
ENDROOT
TORSDOF 12
ENDMDL
MODEL 67
REMARK VINA RESULT:      -6.0      2.926      5.914
REMARK  0 active torsions:
REMARK  status: ('A' for Active; 'I' for Inactive)
REMARK       I    between atoms: C3_1  and  O3_15 
REMARK       I    between atoms: O1_3  and  C1_27 
REMARK       I    between atoms: S_6  and  O4_8 
REMARK       I    between atoms: O6_7  and  C6_23 
REMARK       I    between atoms: O4_8  and  C4_29 
REMARK       I    between atoms: O2_9  and  C2_24 
REMARK       I    between atoms: C8_10  and  C7_18 
REMARK       I    between atoms: O3_11  and  C3_20 
REMARK       I    between atoms: O3_11  and  C1_16 
REMARK       I    between atoms: C6_12  and  C5_22 
REMARK       I    between atoms: N_13  and  C2_26 
REMARK       I    between atoms: N_13  and  C7_18 
REMARK       I    between atoms: C6_23  and  C5_30 
ROOT
ATOM      1  C3  GCD d 527      33.873  10.214  28.026  0.00  0.00     0.084 C 
ATOM      2  O2  GCD d 527      33.730  11.693  29.951  0.00  0.00    -0.388 OA
ATOM      3  C6  GCD d 527      32.127   7.476  30.069  0.00  0.00     0.233 C 
ATOM      4  C4  GCD d 527      32.989   9.085  28.500  0.00  0.00    -0.034 C 
ATOM      5  O3  GCD d 527      34.770   9.716  27.026  0.00  0.00    -0.389 OA
ATOM      6  C1  GCD d 527      35.106   9.844  30.227  0.00  0.00     0.165 C 
ATOM      7  O6B GCD d 527      32.210   6.909  31.184  0.00  0.00    -0.642 OA
ATOM      8  O5  GCD d 527      33.968   9.131  30.742  0.00  0.00    -0.311 OA
ATOM      9  C5  GCD d 527      33.025   8.585  29.756  0.00  0.00     0.147 C 
ATOM     10  C2  GCD d 527      34.616  10.859  29.219  0.00  0.00     0.111 C 
ATOM     11  O6A GCD d 527      31.314   7.125  29.187  0.00  0.00    -0.642 OA
ATOM     12  H   GCD d 527      33.279  10.986  27.583  0.00  0.00     0.093 H 
ATOM     13  H   GCD d 527      33.371  12.378  29.366  0.00  0.00     0.210 HD
ATOM     14  H   GCD d 527      32.321   8.674  27.831  0.00  0.00     0.085 H 
ATOM     15  H   GCD d 527      35.320   9.013  27.407  0.00  0.00     0.210 HD
ATOM     16  H   GCD d 527      35.612  10.292  31.056  0.00  0.00     0.134 H 
ATOM     17  H   GCD d 527      35.440  11.387  28.785  0.00  0.00     0.095 H 
ATOM     18  O5  NGK d 526      38.893   6.355  30.835  0.00  0.00    -0.349 OA
ATOM     19  O1  NGK d 526      38.580   7.721  32.606  0.00  0.00    -0.369 OA
ATOM     20  O7  NGK d 526      38.450  10.966  28.819  0.00  0.00    -0.274 OA
ATOM     21  O2S NGK d 526      37.602   6.732  26.091  0.00  0.00    -0.572 OA
ATOM     22  S   NGK d 526      36.672   6.265  27.266  0.00  0.00     0.252 S 
ATOM     23  O6  NGK d 526      36.338   3.792  30.602  0.00  0.00    -0.398 OA
ATOM     24  O4  NGK d 526      37.339   6.848  28.641  0.00  0.00    -0.246 OA
ATOM     25  C8  NGK d 526      38.922  12.375  30.688  0.00  0.00    -0.003 C 
ATOM     26  O3  NGK d 526      36.015   8.968  29.523  0.00  0.00    -0.348 OA
ATOM     27  N   NGK d 526      38.419  10.034  30.883  0.00  0.00    -0.349 N 
ATOM     28  C7  NGK d 526      38.566  11.065  30.043  0.00  0.00     0.214 C 
ATOM     29  O1S NGK d 526      36.512   4.837  27.297  0.00  0.00    -0.572 OA
ATOM     30  C3  NGK d 526      36.771   8.207  30.437  0.00  0.00     0.094 C 
ATOM     31  C6  NGK d 526      37.586   4.368  30.250  0.00  0.00     0.043 C 
ATOM     32  O3S NGK d 526      35.424   7.010  27.173  0.00  0.00    -0.572 OA
ATOM     33  C2  NGK d 526      38.235   8.655  30.425  0.00  0.00     0.087 C 
ATOM     34  C1  NGK d 526      39.062   7.694  31.285  0.00  0.00     0.151 C 
ATOM     35  C4  NGK d 526      36.720   6.770  29.917  0.00  0.00     0.114 C 
ATOM     36  C5  NGK d 526      37.556   5.821  30.779  0.00  0.00     0.090 C 
ATOM     37  H   NGK d 526      39.102   7.113  33.152  0.00  0.00     0.212 HD
ATOM     38  H   NGK d 526      36.306   2.874  30.291  0.00  0.00     0.209 HD
ATOM     39  H   NGK d 526      39.016  13.129  29.934  0.00  0.00     0.040 H 
ATOM     40  H   NGK d 526      39.851  12.274  31.209  0.00  0.00     0.040 H 
ATOM     41  H   NGK d 526      38.154  12.654  31.377  0.00  0.00     0.040 H 
ATOM     42  H   NGK d 526      38.434  10.209  31.851  0.00  0.00     0.163 HD
ATOM     43  H   NGK d 526      36.386   8.314  31.430  0.00  0.00     0.091 H 
ATOM     44  H   NGK d 526      37.711   4.362  29.188  0.00  0.00     0.078 H 
ATOM     45  H   NGK d 526      38.401   3.817  30.671  0.00  0.00     0.078 H 
ATOM     46  H   NGK d 526      38.571   8.631  29.409  0.00  0.00     0.084 H 
ATOM     47  H   NGK d 526      40.087   7.995  31.221  0.00  0.00     0.132 H 
ATOM     48  H   NGK d 526      35.717   6.400  29.912  0.00  0.00     0.093 H 
ATOM     49  H   NGK d 526      37.107   5.763  31.748  0.00  0.00     0.090 H 
ENDROOT
TORSDOF 12
ENDMDL
MODEL 68
REMARK VINA RESULT:      -6.0      2.761      4.385
REMARK  0 active torsions:
REMARK  status: ('A' for Active; 'I' for Inactive)
REMARK       I    between atoms: C3_1  and  O3_15 
REMARK       I    between atoms: O1_3  and  C1_27 
REMARK       I    between atoms: S_6  and  O4_8 
REMARK       I    between atoms: O6_7  and  C6_23 
REMARK       I    between atoms: O4_8  and  C4_29 
REMARK       I    between atoms: O2_9  and  C2_24 
REMARK       I    between atoms: C8_10  and  C7_18 
REMARK       I    between atoms: O3_11  and  C3_20 
REMARK       I    between atoms: O3_11  and  C1_16 
REMARK       I    between atoms: C6_12  and  C5_22 
REMARK       I    between atoms: N_13  and  C2_26 
REMARK       I    between atoms: N_13  and  C7_18 
REMARK       I    between atoms: C6_23  and  C5_30 
ROOT
ATOM      1  C3  GCD d 527      36.051  11.909  32.548  0.00  0.00     0.084 C 
ATOM      2  O2  GCD d 527      34.051  12.608  33.744  0.00  0.00    -0.388 OA
ATOM      3  C6  GCD d 527      35.049  14.205  29.642  0.00  0.00     0.233 C 
ATOM      4  C4  GCD d 527      36.033  12.904  31.411  0.00  0.00    -0.034 C 
ATOM      5  O3  GCD d 527      36.807  10.759  32.152  0.00  0.00    -0.389 OA
ATOM      6  C1  GCD d 527      33.667  11.391  31.804  0.00  0.00     0.165 C 
ATOM      7  O6B GCD d 527      34.058  14.462  28.919  0.00  0.00    -0.642 OA
ATOM      8  O5  GCD d 527      33.623  12.636  31.086  0.00  0.00    -0.311 OA
ATOM      9  C5  GCD d 527      34.913  13.246  30.737  0.00  0.00     0.147 C 
ATOM     10  C2  GCD d 527      34.609  11.550  32.977  0.00  0.00     0.111 C 
ATOM     11  O6A GCD d 527      36.172  14.722  29.463  0.00  0.00    -0.642 OA
ATOM     12  H   GCD d 527      36.526  12.339  33.405  0.00  0.00     0.093 H 
ATOM     13  H   GCD d 527      34.606  12.771  34.522  0.00  0.00     0.210 HD
ATOM     14  H   GCD d 527      36.923  13.345  31.135  0.00  0.00     0.085 H 
ATOM     15  H   GCD d 527      36.393  10.353  31.374  0.00  0.00     0.210 HD
ATOM     16  H   GCD d 527      32.669  11.151  32.103  0.00  0.00     0.134 H 
ATOM     17  H   GCD d 527      34.697  10.631  33.518  0.00  0.00     0.095 H 
ATOM     18  O5  NGK d 526      32.512   7.983  28.071  0.00  0.00    -0.349 OA
ATOM     19  O1  NGK d 526      30.725   8.798  29.186  0.00  0.00    -0.369 OA
ATOM     20  O7  NGK d 526      33.847   7.770  32.939  0.00  0.00    -0.274 OA
ATOM     21  O2S NGK d 526      37.311   7.800  29.187  0.00  0.00    -0.572 OA
ATOM     22  S   NGK d 526      36.545   9.041  28.607  0.00  0.00     0.252 S 
ATOM     23  O6  NGK d 526      33.869  10.372  25.705  0.00  0.00    -0.398 OA
ATOM     24  O4  NGK d 526      34.964   8.809  28.953  0.00  0.00    -0.246 OA
ATOM     25  C8  NGK d 526      31.731   7.865  34.041  0.00  0.00    -0.003 C 
ATOM     26  O3  NGK d 526      34.199  10.320  30.991  0.00  0.00    -0.348 OA
ATOM     27  N   NGK d 526      32.048   8.422  31.726  0.00  0.00    -0.349 N 
ATOM     28  C7  NGK d 526      32.642   8.024  32.857  0.00  0.00     0.214 C 
ATOM     29  O1S NGK d 526      36.780   9.214  27.199  0.00  0.00    -0.572 OA
ATOM     30  C3  NGK d 526      33.229   9.876  30.070  0.00  0.00     0.094 C 
ATOM     31  C6  NGK d 526      33.748   9.071  26.259  0.00  0.00     0.043 C 
ATOM     32  O3S NGK d 526      36.887  10.199  29.421  0.00  0.00    -0.572 OA
ATOM     33  C2  NGK d 526      32.743   8.471  30.438  0.00  0.00     0.087 C 
ATOM     34  C1  NGK d 526      31.835   7.945  29.322  0.00  0.00     0.151 C 
ATOM     35  C4  NGK d 526      33.953   9.780  28.726  0.00  0.00     0.114 C 
ATOM     36  C5  NGK d 526      33.038   9.246  27.621  0.00  0.00     0.090 C 
ATOM     37  H   NGK d 526      30.148   8.467  28.480  0.00  0.00     0.212 HD
ATOM     38  H   NGK d 526      34.311  10.317  24.844  0.00  0.00     0.209 HD
ATOM     39  H   NGK d 526      32.300   7.546  34.889  0.00  0.00     0.040 H 
ATOM     40  H   NGK d 526      30.981   7.135  33.819  0.00  0.00     0.040 H 
ATOM     41  H   NGK d 526      31.263   8.802  34.259  0.00  0.00     0.040 H 
ATOM     42  H   NGK d 526      31.103   8.694  31.760  0.00  0.00     0.163 HD
ATOM     43  H   NGK d 526      32.388  10.538  30.054  0.00  0.00     0.091 H 
ATOM     44  H   NGK d 526      34.715   8.636  26.398  0.00  0.00     0.078 H 
ATOM     45  H   NGK d 526      33.196   8.423  25.612  0.00  0.00     0.078 H 
ATOM     46  H   NGK d 526      33.607   7.849  30.541  0.00  0.00     0.084 H 
ATOM     47  H   NGK d 526      31.549   6.945  29.575  0.00  0.00     0.132 H 
ATOM     48  H   NGK d 526      34.308  10.740  28.413  0.00  0.00     0.093 H 
ATOM     49  H   NGK d 526      32.264   9.964  27.450  0.00  0.00     0.090 H 
ENDROOT
TORSDOF 12
ENDMDL
MODEL 69
REMARK VINA RESULT:      -6.0      2.840      5.595
REMARK  0 active torsions:
REMARK  status: ('A' for Active; 'I' for Inactive)
REMARK       I    between atoms: C3_1  and  O3_15 
REMARK       I    between atoms: O1_3  and  C1_27 
REMARK       I    between atoms: S_6  and  O4_8 
REMARK       I    between atoms: O6_7  and  C6_23 
REMARK       I    between atoms: O4_8  and  C4_29 
REMARK       I    between atoms: O2_9  and  C2_24 
REMARK       I    between atoms: C8_10  and  C7_18 
REMARK       I    between atoms: O3_11  and  C3_20 
REMARK       I    between atoms: O3_11  and  C1_16 
REMARK       I    between atoms: C6_12  and  C5_22 
REMARK       I    between atoms: N_13  and  C2_26 
REMARK       I    between atoms: N_13  and  C7_18 
REMARK       I    between atoms: C6_23  and  C5_30 
ROOT
ATOM      1  C3  GCD d 527      32.504  12.465  31.013  0.00  0.00     0.084 C 
ATOM      2  O2  GCD d 527      31.179  11.086  32.517  0.00  0.00    -0.388 OA
ATOM      3  C6  GCD d 527      30.995  10.569  28.038  0.00  0.00     0.233 C 
ATOM      4  C4  GCD d 527      31.883  12.075  29.692  0.00  0.00    -0.034 C 
ATOM      5  O3  GCD d 527      33.825  12.964  30.780  0.00  0.00    -0.389 OA
ATOM      6  C1  GCD d 527      32.818   9.954  31.325  0.00  0.00     0.165 C 
ATOM      7  O6B GCD d 527      30.797   9.394  27.648  0.00  0.00    -0.642 OA
ATOM      8  O5  GCD d 527      31.838   9.706  30.302  0.00  0.00    -0.311 OA
ATOM      9  C5  GCD d 527      31.569  10.803  29.361  0.00  0.00     0.147 C 
ATOM     10  C2  GCD d 527      32.487  11.269  31.993  0.00  0.00     0.111 C 
ATOM     11  O6A GCD d 527      30.740  11.570  27.334  0.00  0.00    -0.642 OA
ATOM     12  H   GCD d 527      31.931  13.243  31.472  0.00  0.00     0.093 H 
ATOM     13  H   GCD d 527      30.895  11.897  32.967  0.00  0.00     0.210 HD
ATOM     14  H   GCD d 527      31.689  12.820  29.005  0.00  0.00     0.085 H 
ATOM     15  H   GCD d 527      34.363  12.273  30.362  0.00  0.00     0.210 HD
ATOM     16  H   GCD d 527      32.798   9.126  32.002  0.00  0.00     0.134 H 
ATOM     17  H   GCD d 527      33.217  11.507  32.739  0.00  0.00     0.095 H 
ATOM     18  O5  NGK d 526      36.910   7.335  29.513  0.00  0.00    -0.349 OA
ATOM     19  O1  NGK d 526      35.534   6.130  30.836  0.00  0.00    -0.369 OA
ATOM     20  O7  NGK d 526      35.946  10.366  33.438  0.00  0.00    -0.274 OA
ATOM     21  O2S NGK d 526      37.545  12.191  28.944  0.00  0.00    -0.572 OA
ATOM     22  S   NGK d 526      36.412  11.326  28.287  0.00  0.00     0.252 S 
ATOM     23  O6  NGK d 526      35.544   7.832  26.192  0.00  0.00    -0.398 OA
ATOM     24  O4  NGK d 526      36.277   9.976  29.200  0.00  0.00    -0.246 OA
ATOM     25  C8  NGK d 526      35.201   8.816  35.094  0.00  0.00    -0.003 C 
ATOM     26  O3  NGK d 526      34.147  10.094  30.773  0.00  0.00    -0.348 OA
ATOM     27  N   NGK d 526      35.383   8.280  32.759  0.00  0.00    -0.349 N 
ATOM     28  C7  NGK d 526      35.535   9.231  33.689  0.00  0.00     0.214 C 
ATOM     29  O1S NGK d 526      36.686  11.030  26.908  0.00  0.00    -0.572 OA
ATOM     30  C3  NGK d 526      34.670   8.831  30.427  0.00  0.00     0.094 C 
ATOM     31  C6  NGK d 526      36.596   7.863  27.142  0.00  0.00     0.043 C 
ATOM     32  O3S NGK d 526      35.142  12.000  28.519  0.00  0.00    -0.572 OA
ATOM     33  C2  NGK d 526      35.815   8.450  31.371  0.00  0.00     0.087 C 
ATOM     34  C1  NGK d 526      36.481   7.168  30.859  0.00  0.00     0.151 C 
ATOM     35  C4  NGK d 526      35.259   9.001  29.027  0.00  0.00     0.114 C 
ATOM     36  C5  NGK d 526      35.929   7.717  28.530  0.00  0.00     0.090 C 
ATOM     37  H   NGK d 526      35.953   5.317  30.513  0.00  0.00     0.212 HD
ATOM     38  H   NGK d 526      35.912   7.920  25.299  0.00  0.00     0.209 HD
ATOM     39  H   NGK d 526      35.355   9.643  35.756  0.00  0.00     0.040 H 
ATOM     40  H   NGK d 526      35.833   8.004  35.386  0.00  0.00     0.040 H 
ATOM     41  H   NGK d 526      34.178   8.508  35.141  0.00  0.00     0.040 H 
ATOM     42  H   NGK d 526      34.963   7.429  33.020  0.00  0.00     0.163 HD
ATOM     43  H   NGK d 526      33.913   8.078  30.482  0.00  0.00     0.091 H 
ATOM     44  H   NGK d 526      37.125   8.790  27.081  0.00  0.00     0.078 H 
ATOM     45  H   NGK d 526      37.303   7.080  26.966  0.00  0.00     0.078 H 
ATOM     46  H   NGK d 526      36.514   9.260  31.372  0.00  0.00     0.084 H 
ATOM     47  H   NGK d 526      37.308   6.949  31.502  0.00  0.00     0.132 H 
ATOM     48  H   NGK d 526      34.499   9.260  28.320  0.00  0.00     0.093 H 
ATOM     49  H   NGK d 526      35.174   6.970  28.406  0.00  0.00     0.090 H 
ENDROOT
TORSDOF 12
ENDMDL
MODEL 70
REMARK VINA RESULT:      -5.9      2.845      5.676
REMARK  0 active torsions:
REMARK  status: ('A' for Active; 'I' for Inactive)
REMARK       I    between atoms: C3_1  and  O3_15 
REMARK       I    between atoms: O1_3  and  C1_27 
REMARK       I    between atoms: S_6  and  O4_8 
REMARK       I    between atoms: O6_7  and  C6_23 
REMARK       I    between atoms: O4_8  and  C4_29 
REMARK       I    between atoms: O2_9  and  C2_24 
REMARK       I    between atoms: C8_10  and  C7_18 
REMARK       I    between atoms: O3_11  and  C3_20 
REMARK       I    between atoms: O3_11  and  C1_16 
REMARK       I    between atoms: C6_12  and  C5_22 
REMARK       I    between atoms: N_13  and  C2_26 
REMARK       I    between atoms: N_13  and  C7_18 
REMARK       I    between atoms: C6_23  and  C5_30 
ROOT
ATOM      1  C3  GCD d 527      32.306  13.413  28.765  0.00  0.00     0.084 C 
ATOM      2  O2  GCD d 527      30.851  13.737  30.687  0.00  0.00    -0.388 OA
ATOM      3  C6  GCD d 527      31.114   9.772  28.547  0.00  0.00     0.233 C 
ATOM      4  C4  GCD d 527      31.822  12.059  28.301  0.00  0.00    -0.034 C 
ATOM      5  O3  GCD d 527      33.640  13.621  28.290  0.00  0.00    -0.389 OA
ATOM      6  C1  GCD d 527      32.608  12.256  31.018  0.00  0.00     0.165 C 
ATOM      7  O6B GCD d 527      30.965   8.765  29.278  0.00  0.00    -0.642 OA
ATOM      8  O5  GCD d 527      31.735  11.196  30.589  0.00  0.00    -0.311 OA
ATOM      9  C5  GCD d 527      31.552  11.034  29.139  0.00  0.00     0.147 C 
ATOM     10  C2  GCD d 527      32.202  13.526  30.304  0.00  0.00     0.111 C 
ATOM     11  O6A GCD d 527      30.921   9.750  27.312  0.00  0.00    -0.642 OA
ATOM     12  H   GCD d 527      31.685  14.184  28.360  0.00  0.00     0.093 H 
ATOM     13  H   GCD d 527      30.517  14.543  30.265  0.00  0.00     0.210 HD
ATOM     14  H   GCD d 527      31.691  11.909  27.289  0.00  0.00     0.085 H 
ATOM     15  H   GCD d 527      34.222  12.931  28.645  0.00  0.00     0.210 HD
ATOM     16  H   GCD d 527      32.527  12.333  32.082  0.00  0.00     0.134 H 
ATOM     17  H   GCD d 527      32.853  14.333  30.571  0.00  0.00     0.095 H 
ATOM     18  O5  NGK d 526      36.879   9.630  32.337  0.00  0.00    -0.349 OA
ATOM     19  O1  NGK d 526      35.389   9.901  34.011  0.00  0.00    -0.369 OA
ATOM     20  O7  NGK d 526      35.509  14.483  32.042  0.00  0.00    -0.274 OA
ATOM     21  O2S NGK d 526      37.529  12.000  28.062  0.00  0.00    -0.572 OA
ATOM     22  S   NGK d 526      36.474  10.872  28.341  0.00  0.00     0.252 S 
ATOM     23  O6  NGK d 526      35.844   7.089  29.966  0.00  0.00    -0.398 OA
ATOM     24  O4  NGK d 526      36.259  10.832  29.961  0.00  0.00    -0.246 OA
ATOM     25  C8  NGK d 526      34.616  14.883  34.220  0.00  0.00    -0.003 C 
ATOM     26  O3  NGK d 526      33.984  12.000  30.655  0.00  0.00    -0.348 OA
ATOM     27  N   NGK d 526      35.032  12.687  33.337  0.00  0.00    -0.349 N 
ATOM     28  C7  NGK d 526      35.084  14.002  33.096  0.00  0.00     0.214 C 
ATOM     29  O1S NGK d 526      36.885   9.601  27.810  0.00  0.00    -0.572 OA
ATOM     30  C3  NGK d 526      34.549  11.040  31.519  0.00  0.00     0.094 C 
ATOM     31  C6  NGK d 526      36.797   7.971  30.536  0.00  0.00     0.043 C 
ATOM     32  O3S NGK d 526      35.182  11.338  27.856  0.00  0.00    -0.572 OA
ATOM     33  C2  NGK d 526      35.597  11.689  32.427  0.00  0.00     0.087 C 
ATOM     34  C1  NGK d 526      36.321  10.595  33.219  0.00  0.00     0.151 C 
ATOM     35  C4  NGK d 526      35.272  10.045  30.611  0.00  0.00     0.114 C 
ATOM     36  C5  NGK d 526      35.997   8.962  31.413  0.00  0.00     0.090 C 
ATOM     37  H   NGK d 526      35.844   9.208  34.514  0.00  0.00     0.212 HD
ATOM     38  H   NGK d 526      36.298   6.443  29.403  0.00  0.00     0.209 HD
ATOM     39  H   NGK d 526      34.697  15.908  33.927  0.00  0.00     0.040 H 
ATOM     40  H   NGK d 526      35.222  14.709  35.084  0.00  0.00     0.040 H 
ATOM     41  H   NGK d 526      33.596  14.656  34.449  0.00  0.00     0.040 H 
ATOM     42  H   NGK d 526      34.595  12.377  34.162  0.00  0.00     0.163 HD
ATOM     43  H   NGK d 526      33.795  10.588  32.130  0.00  0.00     0.091 H 
ATOM     44  H   NGK d 526      37.322   8.498  29.767  0.00  0.00     0.078 H 
ATOM     45  H   NGK d 526      37.524   7.439  31.113  0.00  0.00     0.078 H 
ATOM     46  H   NGK d 526      36.287  12.213  31.799  0.00  0.00     0.084 H 
ATOM     47  H   NGK d 526      37.082  11.064  33.808  0.00  0.00     0.132 H 
ATOM     48  H   NGK d 526      34.582   9.552  29.957  0.00  0.00     0.093 H 
ATOM     49  H   NGK d 526      35.264   8.369  31.918  0.00  0.00     0.090 H 
ENDROOT
TORSDOF 12
ENDMDL
MODEL 71
REMARK VINA RESULT:      -5.9      3.855      6.437
REMARK  0 active torsions:
REMARK  status: ('A' for Active; 'I' for Inactive)
REMARK       I    between atoms: C3_1  and  O3_15 
REMARK       I    between atoms: O1_3  and  C1_27 
REMARK       I    between atoms: S_6  and  O4_8 
REMARK       I    between atoms: O6_7  and  C6_23 
REMARK       I    between atoms: O4_8  and  C4_29 
REMARK       I    between atoms: O2_9  and  C2_24 
REMARK       I    between atoms: C8_10  and  C7_18 
REMARK       I    between atoms: O3_11  and  C3_20 
REMARK       I    between atoms: O3_11  and  C1_16 
REMARK       I    between atoms: C6_12  and  C5_22 
REMARK       I    between atoms: N_13  and  C2_26 
REMARK       I    between atoms: N_13  and  C7_18 
REMARK       I    between atoms: C6_23  and  C5_30 
ROOT
ATOM      1  C3  GCD d 527      35.618   8.979  28.221  0.00  0.00     0.084 C 
ATOM      2  O2  GCD d 527      33.685   8.197  26.967  0.00  0.00    -0.388 OA
ATOM      3  C6  GCD d 527      37.681   6.115  26.716  0.00  0.00     0.233 C 
ATOM      4  C4  GCD d 527      36.696   8.130  27.589  0.00  0.00    -0.034 C 
ATOM      5  O3  GCD d 527      36.050   9.390  29.523  0.00  0.00    -0.389 OA
ATOM      6  C1  GCD d 527      34.443   6.750  28.617  0.00  0.00     0.165 C 
ATOM      7  O6B GCD d 527      37.623   4.875  26.547  0.00  0.00    -0.642 OA
ATOM      8  O5  GCD d 527      35.283   6.133  27.626  0.00  0.00    -0.311 OA
ATOM      9  C5  GCD d 527      36.544   6.817  27.307  0.00  0.00     0.147 C 
ATOM     10  C2  GCD d 527      34.277   8.210  28.259  0.00  0.00     0.111 C 
ATOM     11  O6A GCD d 527      38.687   6.795  26.418  0.00  0.00    -0.642 OA
ATOM     12  H   GCD d 527      35.450   9.857  27.634  0.00  0.00     0.093 H 
ATOM     13  H   GCD d 527      33.546   9.108  26.667  0.00  0.00     0.210 HD
ATOM     14  H   GCD d 527      37.597   8.577  27.359  0.00  0.00     0.085 H 
ATOM     15  H   GCD d 527      36.210   8.608  30.073  0.00  0.00     0.210 HD
ATOM     16  H   GCD d 527      33.516   6.218  28.635  0.00  0.00     0.134 H 
ATOM     17  H   GCD d 527      33.685   8.714  28.995  0.00  0.00     0.095 H 
ATOM     18  O5  NGK d 526      35.320   3.748  32.753  0.00  0.00    -0.349 OA
ATOM     19  O1  NGK d 526      33.617   3.063  31.438  0.00  0.00    -0.369 OA
ATOM     20  O7  NGK d 526      32.703   7.956  31.770  0.00  0.00    -0.274 OA
ATOM     21  O2S NGK d 526      37.595   8.096  33.230  0.00  0.00    -0.572 OA
ATOM     22  S   NGK d 526      37.869   7.029  32.112  0.00  0.00     0.252 S 
ATOM     23  O6  NGK d 526      38.562   3.000  31.311  0.00  0.00    -0.398 OA
ATOM     24  O4  NGK d 526      36.533   6.090  32.034  0.00  0.00    -0.246 OA
ATOM     25  C8  NGK d 526      30.584   7.082  31.103  0.00  0.00    -0.003 C 
ATOM     26  O3  NGK d 526      35.046   6.714  29.931  0.00  0.00    -0.348 OA
ATOM     27  N   NGK d 526      32.580   5.753  31.258  0.00  0.00    -0.349 N 
ATOM     28  C7  NGK d 526      32.053   6.976  31.398  0.00  0.00     0.214 C 
ATOM     29  O1S NGK d 526      39.061   6.267  32.369  0.00  0.00    -0.572 OA
ATOM     30  C3  NGK d 526      34.935   5.423  30.486  0.00  0.00     0.094 C 
ATOM     31  C6  NGK d 526      37.714   3.390  32.379  0.00  0.00     0.043 C 
ATOM     32  O3S NGK d 526      37.857   7.714  30.826  0.00  0.00    -0.572 OA
ATOM     33  C2  NGK d 526      33.950   5.427  31.658  0.00  0.00     0.087 C 
ATOM     34  C1  NGK d 526      33.991   4.062  32.354  0.00  0.00     0.151 C 
ATOM     35  C4  NGK d 526      36.320   5.095  31.043  0.00  0.00     0.114 C 
ATOM     36  C5  NGK d 526      36.347   3.733  31.742  0.00  0.00     0.090 C 
ATOM     37  H   NGK d 526      33.642   2.198  31.876  0.00  0.00     0.212 HD
ATOM     38  H   NGK d 526      39.437   2.773  31.660  0.00  0.00     0.209 HD
ATOM     39  H   NGK d 526      30.264   8.093  31.244  0.00  0.00     0.040 H 
ATOM     40  H   NGK d 526      30.040   6.440  31.764  0.00  0.00     0.040 H 
ATOM     41  H   NGK d 526      30.402   6.788  30.091  0.00  0.00     0.040 H 
ATOM     42  H   NGK d 526      32.022   5.042  30.869  0.00  0.00     0.163 HD
ATOM     43  H   NGK d 526      34.594   4.721  29.753  0.00  0.00     0.091 H 
ATOM     44  H   NGK d 526      38.116   4.247  32.878  0.00  0.00     0.078 H 
ATOM     45  H   NGK d 526      37.620   2.611  33.106  0.00  0.00     0.078 H 
ATOM     46  H   NGK d 526      34.256   6.199  32.333  0.00  0.00     0.084 H 
ATOM     47  H   NGK d 526      33.335   4.104  33.199  0.00  0.00     0.132 H 
ATOM     48  H   NGK d 526      37.051   5.069  30.262  0.00  0.00     0.093 H 
ATOM     49  H   NGK d 526      36.175   2.975  31.008  0.00  0.00     0.090 H 
ENDROOT
TORSDOF 12
ENDMDL
MODEL 72
REMARK VINA RESULT:      -5.9      2.991      5.646
REMARK  0 active torsions:
REMARK  status: ('A' for Active; 'I' for Inactive)
REMARK       I    between atoms: C3_1  and  O3_15 
REMARK       I    between atoms: O1_3  and  C1_27 
REMARK       I    between atoms: S_6  and  O4_8 
REMARK       I    between atoms: O6_7  and  C6_23 
REMARK       I    between atoms: O4_8  and  C4_29 
REMARK       I    between atoms: O2_9  and  C2_24 
REMARK       I    between atoms: C8_10  and  C7_18 
REMARK       I    between atoms: O3_11  and  C3_20 
REMARK       I    between atoms: O3_11  and  C1_16 
REMARK       I    between atoms: C6_12  and  C5_22 
REMARK       I    between atoms: N_13  and  C2_26 
REMARK       I    between atoms: N_13  and  C7_18 
REMARK       I    between atoms: C6_23  and  C5_30 
ROOT
ATOM      1  C3  GCD d 527      35.347   5.647  29.489  0.00  0.00     0.084 C 
ATOM      2  O2  GCD d 527      34.523   5.161  31.726  0.00  0.00    -0.388 OA
ATOM      3  C6  GCD d 527      38.119   7.800  31.039  0.00  0.00     0.233 C 
ATOM      4  C4  GCD d 527      36.657   6.314  29.836  0.00  0.00    -0.034 C 
ATOM      5  O3  GCD d 527      34.937   6.071  28.184  0.00  0.00    -0.389 OA
ATOM      6  C1  GCD d 527      34.334   7.378  31.065  0.00  0.00     0.165 C 
ATOM      7  O6B GCD d 527      38.264   8.724  31.873  0.00  0.00    -0.642 OA
ATOM      8  O5  GCD d 527      35.632   7.612  31.639  0.00  0.00    -0.311 OA
ATOM      9  C5  GCD d 527      36.795   7.218  30.831  0.00  0.00     0.147 C 
ATOM     10  C2  GCD d 527      34.283   5.950  30.570  0.00  0.00     0.111 C 
ATOM     11  O6A GCD d 527      39.061   7.353  30.349  0.00  0.00    -0.642 OA
ATOM     12  H   GCD d 527      35.468   4.585  29.470  0.00  0.00     0.093 H 
ATOM     13  H   GCD d 527      34.505   4.221  31.486  0.00  0.00     0.210 HD
ATOM     14  H   GCD d 527      37.492   6.066  29.283  0.00  0.00     0.085 H 
ATOM     15  H   GCD d 527      34.821   7.034  28.178  0.00  0.00     0.210 HD
ATOM     16  H   GCD d 527      33.603   7.584  31.818  0.00  0.00     0.134 H 
ATOM     17  H   GCD d 527      33.341   5.746  30.102  0.00  0.00     0.095 H 
ATOM     18  O5  NGK d 526      32.968  12.152  29.574  0.00  0.00    -0.349 OA
ATOM     19  O1  NGK d 526      32.360  11.616  31.682  0.00  0.00    -0.369 OA
ATOM     20  O7  NGK d 526      31.032   7.502  29.191  0.00  0.00    -0.274 OA
ATOM     21  O2S NGK d 526      34.227   9.395  25.685  0.00  0.00    -0.572 OA
ATOM     22  S   NGK d 526      35.166   9.790  26.879  0.00  0.00     0.252 S 
ATOM     23  O6  NGK d 526      36.506  12.898  29.307  0.00  0.00    -0.398 OA
ATOM     24  O4  NGK d 526      34.184  10.177  28.128  0.00  0.00    -0.246 OA
ATOM     25  C8  NGK d 526      29.733   7.336  31.188  0.00  0.00    -0.003 C 
ATOM     26  O3  NGK d 526      34.094   8.222  29.916  0.00  0.00    -0.348 OA
ATOM     27  N   NGK d 526      31.394   9.033  30.821  0.00  0.00    -0.349 N 
ATOM     28  C7  NGK d 526      30.785   7.956  30.312  0.00  0.00     0.214 C 
ATOM     29  O1S NGK d 526      36.063  10.859  26.534  0.00  0.00    -0.572 OA
ATOM     30  C3  NGK d 526      33.793   9.536  30.327  0.00  0.00     0.094 C 
ATOM     31  C6  NGK d 526      35.176  12.888  28.813  0.00  0.00     0.043 C 
ATOM     32  O3S NGK d 526      35.825   8.579  27.350  0.00  0.00    -0.572 OA
ATOM     33  C2  NGK d 526      32.322   9.861  30.049  0.00  0.00     0.087 C 
ATOM     34  C1  NGK d 526      32.074  11.346  30.331  0.00  0.00     0.151 C 
ATOM     35  C4  NGK d 526      34.645  10.448  29.444  0.00  0.00     0.114 C 
ATOM     36  C5  NGK d 526      34.382  11.929  29.730  0.00  0.00     0.090 C 
ATOM     37  H   NGK d 526      32.203  12.555  31.864  0.00  0.00     0.212 HD
ATOM     38  H   NGK d 526      37.049  13.489  28.763  0.00  0.00     0.209 HD
ATOM     39  H   NGK d 526      29.310   6.488  30.692  0.00  0.00     0.040 H 
ATOM     40  H   NGK d 526      28.965   8.054  31.384  0.00  0.00     0.040 H 
ATOM     41  H   NGK d 526      30.176   7.025  32.111  0.00  0.00     0.040 H 
ATOM     42  H   NGK d 526      31.210   9.280  31.756  0.00  0.00     0.163 HD
ATOM     43  H   NGK d 526      33.981   9.660  31.373  0.00  0.00     0.091 H 
ATOM     44  H   NGK d 526      35.158  12.535  27.804  0.00  0.00     0.078 H 
ATOM     45  H   NGK d 526      34.753  13.870  28.817  0.00  0.00     0.078 H 
ATOM     46  H   NGK d 526      32.134   9.640  29.019  0.00  0.00     0.084 H 
ATOM     47  H   NGK d 526      31.055  11.562  30.082  0.00  0.00     0.132 H 
ATOM     48  H   NGK d 526      35.688  10.271  29.605  0.00  0.00     0.093 H 
ATOM     49  H   NGK d 526      34.715  12.143  30.724  0.00  0.00     0.090 H 
ENDROOT
TORSDOF 12
ENDMDL
MODEL 73
REMARK VINA RESULT:      -5.8      3.122      5.954
REMARK  0 active torsions:
REMARK  status: ('A' for Active; 'I' for Inactive)
REMARK       I    between atoms: C3_1  and  O3_15 
REMARK       I    between atoms: O1_3  and  C1_27 
REMARK       I    between atoms: S_6  and  O4_8 
REMARK       I    between atoms: O6_7  and  C6_23 
REMARK       I    between atoms: O4_8  and  C4_29 
REMARK       I    between atoms: O2_9  and  C2_24 
REMARK       I    between atoms: C8_10  and  C7_18 
REMARK       I    between atoms: O3_11  and  C3_20 
REMARK       I    between atoms: O3_11  and  C1_16 
REMARK       I    between atoms: C6_12  and  C5_22 
REMARK       I    between atoms: N_13  and  C2_26 
REMARK       I    between atoms: N_13  and  C7_18 
REMARK       I    between atoms: C6_23  and  C5_30 
ROOT
ATOM      1  C3  GCD d 527      33.233   9.950  32.916  0.00  0.00     0.084 C 
ATOM      2  O2  GCD d 527      33.678   7.729  33.805  0.00  0.00    -0.388 OA
ATOM      3  C6  GCD d 527      30.879   8.380  30.325  0.00  0.00     0.233 C 
ATOM      4  C4  GCD d 527      32.081   9.632  31.992  0.00  0.00    -0.034 C 
ATOM      5  O3  GCD d 527      33.866  11.157  32.477  0.00  0.00    -0.389 OA
ATOM      6  C1  GCD d 527      34.441   8.099  31.644  0.00  0.00     0.165 C 
ATOM      7  O6B GCD d 527      30.861   7.454  29.480  0.00  0.00    -0.642 OA
ATOM      8  O5  GCD d 527      33.178   7.608  31.162  0.00  0.00    -0.311 OA
ATOM      9  C5  GCD d 527      32.049   8.549  31.184  0.00  0.00     0.147 C 
ATOM     10  C2  GCD d 527      34.216   8.758  32.986  0.00  0.00     0.111 C 
ATOM     11  O6A GCD d 527      29.939   9.192  30.462  0.00  0.00    -0.642 OA
ATOM     12  H   GCD d 527      32.873  10.107  33.912  0.00  0.00     0.093 H 
ATOM     13  H   GCD d 527      33.506   8.079  34.693  0.00  0.00     0.210 HD
ATOM     14  H   GCD d 527      31.275  10.276  31.977  0.00  0.00     0.085 H 
ATOM     15  H   GCD d 527      34.200  11.037  31.574  0.00  0.00     0.210 HD
ATOM     16  H   GCD d 527      35.115   7.270  31.695  0.00  0.00     0.134 H 
ATOM     17  H   GCD d 527      35.130   9.169  33.363  0.00  0.00     0.095 H 
ATOM     18  O5  NGK d 526      37.018   8.886  27.213  0.00  0.00    -0.349 OA
ATOM     19  O1  NGK d 526      37.257   6.816  28.085  0.00  0.00    -0.369 OA
ATOM     20  O7  NGK d 526      37.864   9.671  32.132  0.00  0.00    -0.274 OA
ATOM     21  O2S NGK d 526      35.584  13.169  29.191  0.00  0.00    -0.572 OA
ATOM     22  S   NGK d 526      34.638  12.015  28.702  0.00  0.00     0.252 S 
ATOM     23  O6  NGK d 526      33.795   9.345  25.618  0.00  0.00    -0.398 OA
ATOM     24  O4  NGK d 526      35.542  10.653  28.687  0.00  0.00    -0.246 OA
ATOM     25  C8  NGK d 526      38.869   7.611  32.800  0.00  0.00    -0.003 C 
ATOM     26  O3  NGK d 526      34.990   9.114  30.773  0.00  0.00    -0.348 OA
ATOM     27  N   NGK d 526      37.691   7.903  30.727  0.00  0.00    -0.349 N 
ATOM     28  C7  NGK d 526      38.087   8.488  31.863  0.00  0.00     0.214 C 
ATOM     29  O1S NGK d 526      34.053  12.300  27.420  0.00  0.00    -0.572 OA
ATOM     30  C3  NGK d 526      35.539   8.524  29.616  0.00  0.00     0.094 C 
ATOM     31  C6  NGK d 526      35.131   9.728  25.898  0.00  0.00     0.043 C 
ATOM     32  O3S NGK d 526      33.672  11.749  29.759  0.00  0.00    -0.572 OA
ATOM     33  C2  NGK d 526      37.065   8.642  29.628  0.00  0.00     0.087 C 
ATOM     34  C1  NGK d 526      37.617   8.162  28.281  0.00  0.00     0.151 C 
ATOM     35  C4  NGK d 526      35.018   9.356  28.444  0.00  0.00     0.114 C 
ATOM     36  C5  NGK d 526      35.581   8.873  27.105  0.00  0.00     0.090 C 
ATOM     37  H   NGK d 526      37.605   6.510  27.234  0.00  0.00     0.212 HD
ATOM     38  H   NGK d 526      33.463   9.856  24.863  0.00  0.00     0.209 HD
ATOM     39  H   NGK d 526      39.137   8.170  33.672  0.00  0.00     0.040 H 
ATOM     40  H   NGK d 526      39.756   7.267  32.311  0.00  0.00     0.040 H 
ATOM     41  H   NGK d 526      38.271   6.771  33.085  0.00  0.00     0.040 H 
ATOM     42  H   NGK d 526      37.825   6.933  30.625  0.00  0.00     0.163 HD
ATOM     43  H   NGK d 526      35.273   7.489  29.555  0.00  0.00     0.091 H 
ATOM     44  H   NGK d 526      35.176  10.768  26.143  0.00  0.00     0.078 H 
ATOM     45  H   NGK d 526      35.766   9.571  25.052  0.00  0.00     0.078 H 
ATOM     46  H   NGK d 526      37.308   9.672  29.785  0.00  0.00     0.084 H 
ATOM     47  H   NGK d 526      38.678   8.300  28.293  0.00  0.00     0.132 H 
ATOM     48  H   NGK d 526      33.951   9.303  28.381  0.00  0.00     0.093 H 
ATOM     49  H   NGK d 526      35.203   7.890  26.916  0.00  0.00     0.090 H 
ENDROOT
TORSDOF 12
ENDMDL
MODEL 74
REMARK VINA RESULT:      -5.8      3.221      6.753
REMARK  0 active torsions:
REMARK  status: ('A' for Active; 'I' for Inactive)
REMARK       I    between atoms: C3_1  and  O3_15 
REMARK       I    between atoms: O1_3  and  C1_27 
REMARK       I    between atoms: S_6  and  O4_8 
REMARK       I    between atoms: O6_7  and  C6_23 
REMARK       I    between atoms: O4_8  and  C4_29 
REMARK       I    between atoms: O2_9  and  C2_24 
REMARK       I    between atoms: C8_10  and  C7_18 
REMARK       I    between atoms: O3_11  and  C3_20 
REMARK       I    between atoms: O3_11  and  C1_16 
REMARK       I    between atoms: C6_12  and  C5_22 
REMARK       I    between atoms: N_13  and  C2_26 
REMARK       I    between atoms: N_13  and  C7_18 
REMARK       I    between atoms: C6_23  and  C5_30 
ROOT
ATOM      1  C3  GCD d 527      37.082   4.820  31.843  0.00  0.00     0.084 C 
ATOM      2  O2  GCD d 527      36.333   3.101  30.293  0.00  0.00    -0.388 OA
ATOM      3  C6  GCD d 527      33.485   5.140  33.139  0.00  0.00     0.233 C 
ATOM      4  C4  GCD d 527      35.843   4.955  32.697  0.00  0.00    -0.034 C 
ATOM      5  O3  GCD d 527      37.846   6.027  31.934  0.00  0.00    -0.389 OA
ATOM      6  C1  GCD d 527      35.483   5.224  29.898  0.00  0.00     0.165 C 
ATOM      7  O6B GCD d 527      32.317   5.285  32.706  0.00  0.00    -0.642 OA
ATOM      8  O5  GCD d 527      34.370   4.887  30.745  0.00  0.00    -0.311 OA
ATOM      9  C5  GCD d 527      34.589   4.981  32.195  0.00  0.00     0.147 C 
ATOM     10  C2  GCD d 527      36.700   4.470  30.386  0.00  0.00     0.111 C 
ATOM     11  O6A GCD d 527      33.763   5.142  34.357  0.00  0.00    -0.642 OA
ATOM     12  H   GCD d 527      37.689   4.015  32.200  0.00  0.00     0.093 H 
ATOM     13  H   GCD d 527      37.071   2.547  30.592  0.00  0.00     0.210 HD
ATOM     14  H   GCD d 527      35.961   5.031  33.719  0.00  0.00     0.085 H 
ATOM     15  H   GCD d 527      37.313   6.772  31.614  0.00  0.00     0.210 HD
ATOM     16  H   GCD d 527      35.215   4.975  28.893  0.00  0.00     0.134 H 
ATOM     17  H   GCD d 527      37.560   4.722  29.801  0.00  0.00     0.095 H 
ATOM     18  O5  NGK d 526      34.141   9.948  28.233  0.00  0.00    -0.349 OA
ATOM     19  O1  NGK d 526      33.405   8.251  26.937  0.00  0.00    -0.369 OA
ATOM     20  O7  NGK d 526      38.136   6.894  27.753  0.00  0.00    -0.274 OA
ATOM     21  O2S NGK d 526      37.734  10.231  31.597  0.00  0.00    -0.572 OA
ATOM     22  S   NGK d 526      36.293   9.655  31.832  0.00  0.00     0.252 S 
ATOM     23  O6  NGK d 526      32.212  10.290  31.284  0.00  0.00    -0.398 OA
ATOM     24  O4  NGK d 526      35.713   9.251  30.358  0.00  0.00    -0.246 OA
ATOM     25  C8  NGK d 526      37.565   5.625  25.813  0.00  0.00    -0.003 C 
ATOM     26  O3  NGK d 526      35.811   6.631  29.975  0.00  0.00    -0.348 OA
ATOM     27  N   NGK d 526      35.988   6.960  27.039  0.00  0.00    -0.349 N 
ATOM     28  C7  NGK d 526      37.257   6.542  26.963  0.00  0.00     0.214 C 
ATOM     29  O1S NGK d 526      35.441  10.587  32.521  0.00  0.00    -0.572 OA
ATOM     30  C3  NGK d 526      34.882   7.393  29.239  0.00  0.00     0.094 C 
ATOM     31  C6  NGK d 526      33.151  10.749  30.324  0.00  0.00     0.043 C 
ATOM     32  O3S NGK d 526      36.429   8.363  32.490  0.00  0.00    -0.572 OA
ATOM     33  C2  NGK d 526      35.543   7.981  27.989  0.00  0.00     0.087 C 
ATOM     34  C1  NGK d 526      34.566   8.949  27.313  0.00  0.00     0.151 C 
ATOM     35  C4  NGK d 526      34.491   8.557  30.150  0.00  0.00     0.114 C 
ATOM     36  C5  NGK d 526      33.522   9.521  29.461  0.00  0.00     0.090 C 
ATOM     37  H   NGK d 526      32.785   8.861  26.509  0.00  0.00     0.212 HD
ATOM     38  H   NGK d 526      31.946  11.028  31.854  0.00  0.00     0.209 HD
ATOM     39  H   NGK d 526      38.598   5.351  25.842  0.00  0.00     0.040 H 
ATOM     40  H   NGK d 526      37.355   6.127  24.891  0.00  0.00     0.040 H 
ATOM     41  H   NGK d 526      36.960   4.746  25.886  0.00  0.00     0.040 H 
ATOM     42  H   NGK d 526      35.324   6.564  26.429  0.00  0.00     0.163 HD
ATOM     43  H   NGK d 526      34.050   6.790  28.938  0.00  0.00     0.091 H 
ATOM     44  H   NGK d 526      34.021  11.136  30.812  0.00  0.00     0.078 H 
ATOM     45  H   NGK d 526      32.744  11.537  29.727  0.00  0.00     0.078 H 
ATOM     46  H   NGK d 526      36.424   8.499  28.305  0.00  0.00     0.084 H 
ATOM     47  H   NGK d 526      35.066   9.386  26.473  0.00  0.00     0.132 H 
ATOM     48  H   NGK d 526      34.014   8.203  31.040  0.00  0.00     0.093 H 
ATOM     49  H   NGK d 526      32.601   9.005  29.288  0.00  0.00     0.090 H 
ENDROOT
TORSDOF 12
ENDMDL
MODEL 75
REMARK VINA RESULT:      -5.8      2.883      5.377
REMARK  0 active torsions:
REMARK  status: ('A' for Active; 'I' for Inactive)
REMARK       I    between atoms: C3_1  and  O3_15 
REMARK       I    between atoms: O1_3  and  C1_27 
REMARK       I    between atoms: S_6  and  O4_8 
REMARK       I    between atoms: O6_7  and  C6_23 
REMARK       I    between atoms: O4_8  and  C4_29 
REMARK       I    between atoms: O2_9  and  C2_24 
REMARK       I    between atoms: C8_10  and  C7_18 
REMARK       I    between atoms: O3_11  and  C3_20 
REMARK       I    between atoms: O3_11  and  C1_16 
REMARK       I    between atoms: C6_12  and  C5_22 
REMARK       I    between atoms: N_13  and  C2_26 
REMARK       I    between atoms: N_13  and  C7_18 
REMARK       I    between atoms: C6_23  and  C5_30 
ROOT
ATOM      1  C3  GCD d 527      31.097  10.863  30.324  0.00  0.00     0.084 C 
ATOM      2  O2  GCD d 527      30.383   8.916  29.052  0.00  0.00    -0.388 OA
ATOM      3  C6  GCD d 527      32.672  12.300  27.134  0.00  0.00     0.233 C 
ATOM      4  C4  GCD d 527      31.554  11.756  29.195  0.00  0.00    -0.034 C 
ATOM      5  O3  GCD d 527      31.751  11.265  31.533  0.00  0.00    -0.389 OA
ATOM      6  C1  GCD d 527      32.680   9.156  29.283  0.00  0.00     0.165 C 
ATOM      7  O6B GCD d 527      33.441  11.959  26.205  0.00  0.00    -0.642 OA
ATOM      8  O5  GCD d 527      32.680   9.906  28.056  0.00  0.00    -0.311 OA
ATOM      9  C5  GCD d 527      32.280  11.318  28.143  0.00  0.00     0.147 C 
ATOM     10  C2  GCD d 527      31.356   9.378  29.978  0.00  0.00     0.111 C 
ATOM     11  O6A GCD d 527      32.228  13.462  27.257  0.00  0.00    -0.642 OA
ATOM     12  H   GCD d 527      30.042  10.963  30.469  0.00  0.00     0.093 H 
ATOM     13  H   GCD d 527      29.497   9.027  29.431  0.00  0.00     0.210 HD
ATOM     14  H   GCD d 527      31.297  12.755  29.228  0.00  0.00     0.085 H 
ATOM     15  H   GCD d 527      32.712  11.183  31.423  0.00  0.00     0.210 HD
ATOM     16  H   GCD d 527      32.854   8.129  29.037  0.00  0.00     0.134 H 
ATOM     17  H   GCD d 527      31.331   8.862  30.916  0.00  0.00     0.095 H 
ATOM     18  O5  NGK d 526      37.745   8.918  30.366  0.00  0.00    -0.349 OA
ATOM     19  O1  NGK d 526      36.977   7.222  29.089  0.00  0.00    -0.369 OA
ATOM     20  O7  NGK d 526      33.450   7.487  32.607  0.00  0.00    -0.274 OA
ATOM     21  O2S NGK d 526      35.466  12.122  33.340  0.00  0.00    -0.572 OA
ATOM     22  S   NGK d 526      35.572  12.228  31.778  0.00  0.00     0.252 S 
ATOM     23  O6  NGK d 526      38.118  11.998  28.489  0.00  0.00    -0.398 OA
ATOM     24  O4  NGK d 526      35.879  10.717  31.234  0.00  0.00    -0.246 OA
ATOM     25  C8  NGK d 526      33.140   5.287  31.734  0.00  0.00    -0.003 C 
ATOM     26  O3  NGK d 526      33.706   9.614  30.193  0.00  0.00    -0.348 OA
ATOM     27  N   NGK d 526      34.674   6.883  30.800  0.00  0.00    -0.349 N 
ATOM     28  C7  NGK d 526      33.759   6.656  31.750  0.00  0.00     0.214 C 
ATOM     29  O1S NGK d 526      36.573  13.174  31.365  0.00  0.00    -0.572 OA
ATOM     30  C3  NGK d 526      34.971   9.147  29.782  0.00  0.00     0.094 C 
ATOM     31  C6  NGK d 526      38.331  11.178  29.627  0.00  0.00     0.043 C 
ATOM     32  O3S NGK d 526      34.239  12.494  31.255  0.00  0.00    -0.572 OA
ATOM     33  C2  NGK d 526      35.497   8.094  30.761  0.00  0.00     0.087 C 
ATOM     34  C1  NGK d 526      36.943   7.744  30.394  0.00  0.00     0.151 C 
ATOM     35  C4  NGK d 526      35.901  10.359  29.860  0.00  0.00     0.114 C 
ATOM     36  C5  NGK d 526      37.343   9.996  29.499  0.00  0.00     0.090 C 
ATOM     37  H   NGK d 526      37.891   6.999  28.854  0.00  0.00     0.212 HD
ATOM     38  H   NGK d 526      38.718  12.759  28.522  0.00  0.00     0.209 HD
ATOM     39  H   NGK d 526      32.427   5.209  32.527  0.00  0.00     0.040 H 
ATOM     40  H   NGK d 526      33.903   4.549  31.866  0.00  0.00     0.040 H 
ATOM     41  H   NGK d 526      32.649   5.129  30.796  0.00  0.00     0.040 H 
ATOM     42  H   NGK d 526      34.800   6.207  30.096  0.00  0.00     0.163 HD
ATOM     43  H   NGK d 526      34.917   8.714  28.805  0.00  0.00     0.091 H 
ATOM     44  H   NGK d 526      38.135  11.729  30.523  0.00  0.00     0.078 H 
ATOM     45  H   NGK d 526      39.343  10.837  29.677  0.00  0.00     0.078 H 
ATOM     46  H   NGK d 526      35.453   8.516  31.743  0.00  0.00     0.084 H 
ATOM     47  H   NGK d 526      37.306   7.046  31.119  0.00  0.00     0.132 H 
ATOM     48  H   NGK d 526      35.585  11.127  29.186  0.00  0.00     0.093 H 
ATOM     49  H   NGK d 526      37.370   9.712  28.468  0.00  0.00     0.090 H 
ENDROOT
TORSDOF 12
ENDMDL
MODEL 76
REMARK VINA RESULT:      -5.8      2.901      5.628
REMARK  0 active torsions:
REMARK  status: ('A' for Active; 'I' for Inactive)
REMARK       I    between atoms: C3_1  and  O3_15 
REMARK       I    between atoms: O1_3  and  C1_27 
REMARK       I    between atoms: S_6  and  O4_8 
REMARK       I    between atoms: O6_7  and  C6_23 
REMARK       I    between atoms: O4_8  and  C4_29 
REMARK       I    between atoms: O2_9  and  C2_24 
REMARK       I    between atoms: C8_10  and  C7_18 
REMARK       I    between atoms: O3_11  and  C3_20 
REMARK       I    between atoms: O3_11  and  C1_16 
REMARK       I    between atoms: C6_12  and  C5_22 
REMARK       I    between atoms: N_13  and  C2_26 
REMARK       I    between atoms: N_13  and  C7_18 
REMARK       I    between atoms: C6_23  and  C5_30 
ROOT
ATOM      1  C3  GCD d 527      36.566  10.359  27.439  0.00  0.00     0.084 C 
ATOM      2  O2  GCD d 527      38.552   9.404  28.470  0.00  0.00    -0.388 OA
ATOM      3  C6  GCD d 527      36.378  12.911  30.298  0.00  0.00     0.233 C 
ATOM      4  C4  GCD d 527      36.418  11.609  28.274  0.00  0.00    -0.034 C 
ATOM      5  O3  GCD d 527      35.296  10.024  26.870  0.00  0.00    -0.389 OA
ATOM      6  C1  GCD d 527      36.591   9.158  29.689  0.00  0.00     0.165 C 
ATOM      7  O6B GCD d 527      36.402  12.955  31.550  0.00  0.00    -0.642 OA
ATOM      8  O5  GCD d 527      36.898  10.400  30.346  0.00  0.00    -0.311 OA
ATOM      9  C5  GCD d 527      36.575  11.634  29.616  0.00  0.00     0.147 C 
ATOM     10  C2  GCD d 527      37.157   9.209  28.287  0.00  0.00     0.111 C 
ATOM     11  O6A GCD d 527      36.174  13.920  29.587  0.00  0.00    -0.642 OA
ATOM     12  H   GCD d 527      37.254  10.532  26.638  0.00  0.00     0.093 H 
ATOM     13  H   GCD d 527      38.989   9.447  27.605  0.00  0.00     0.210 HD
ATOM     14  H   GCD d 527      36.184  12.492  27.794  0.00  0.00     0.085 H 
ATOM     15  H   GCD d 527      34.655   9.863  27.581  0.00  0.00     0.210 HD
ATOM     16  H   GCD d 527      37.007   8.367  30.277  0.00  0.00     0.134 H 
ATOM     17  H   GCD d 527      36.917   8.313  27.751  0.00  0.00     0.095 H 
ATOM     18  O5  NGK d 526      32.298   7.679  32.191  0.00  0.00    -0.349 OA
ATOM     19  O1  NGK d 526      34.224   6.949  33.117  0.00  0.00    -0.369 OA
ATOM     20  O7  NGK d 526      35.026   5.995  28.287  0.00  0.00    -0.274 OA
ATOM     21  O2S NGK d 526      31.212   9.336  27.676  0.00  0.00    -0.572 OA
ATOM     22  S   NGK d 526      31.872  10.169  28.831  0.00  0.00     0.252 S 
ATOM     23  O6  NGK d 526      31.685  11.188  32.866  0.00  0.00    -0.398 OA
ATOM     24  O4  NGK d 526      32.536   9.085  29.859  0.00  0.00    -0.246 OA
ATOM     25  C8  NGK d 526      36.609   4.567  29.362  0.00  0.00    -0.003 C 
ATOM     26  O3  NGK d 526      35.166   8.960  29.552  0.00  0.00    -0.348 OA
ATOM     27  N   NGK d 526      35.253   6.169  30.534  0.00  0.00    -0.349 N 
ATOM     28  C7  NGK d 526      35.565   5.648  29.341  0.00  0.00     0.214 C 
ATOM     29  O1S NGK d 526      30.929  11.037  29.482  0.00  0.00    -0.572 OA
ATOM     30  C3  NGK d 526      34.604   8.570  30.784  0.00  0.00     0.094 C 
ATOM     31  C6  NGK d 526      31.290   9.899  32.426  0.00  0.00     0.043 C 
ATOM     32  O3S NGK d 526      33.038  10.849  28.283  0.00  0.00    -0.572 OA
ATOM     33  C2  NGK d 526      34.148   7.109  30.726  0.00  0.00     0.087 C 
ATOM     34  C1  NGK d 526      33.378   6.772  32.007  0.00  0.00     0.151 C 
ATOM     35  C4  NGK d 526      33.358   9.439  30.962  0.00  0.00     0.114 C 
ATOM     36  C5  NGK d 526      32.594   9.088  32.240  0.00  0.00     0.090 C 
ATOM     37  H   NGK d 526      33.739   6.736  33.930  0.00  0.00     0.212 HD
ATOM     38  H   NGK d 526      30.899  11.740  32.998  0.00  0.00     0.209 HD
ATOM     39  H   NGK d 526      36.784   4.221  28.366  0.00  0.00     0.040 H 
ATOM     40  H   NGK d 526      36.267   3.754  29.968  0.00  0.00     0.040 H 
ATOM     41  H   NGK d 526      37.518   4.958  29.769  0.00  0.00     0.040 H 
ATOM     42  H   NGK d 526      35.790   5.908  31.316  0.00  0.00     0.163 HD
ATOM     43  H   NGK d 526      35.314   8.678  31.577  0.00  0.00     0.091 H 
ATOM     44  H   NGK d 526      30.762   9.968  31.499  0.00  0.00     0.078 H 
ATOM     45  H   NGK d 526      30.637   9.430  33.132  0.00  0.00     0.078 H 
ATOM     46  H   NGK d 526      33.513   7.004  29.871  0.00  0.00     0.084 H 
ATOM     47  H   NGK d 526      33.026   5.765  31.924  0.00  0.00     0.132 H 
ATOM     48  H   NGK d 526      33.619  10.475  31.018  0.00  0.00     0.093 H 
ATOM     49  H   NGK d 526      33.208   9.339  33.079  0.00  0.00     0.090 H 
ENDROOT
TORSDOF 12
ENDMDL
MODEL 77
REMARK VINA RESULT:       1.7      2.496      5.165
REMARK  0 active torsions:
REMARK  status: ('A' for Active; 'I' for Inactive)
REMARK       I    between atoms: C3_1  and  O3_15 
REMARK       I    between atoms: O1_3  and  C1_27 
REMARK       I    between atoms: S_6  and  O4_8 
REMARK       I    between atoms: O6_7  and  C6_23 
REMARK       I    between atoms: O4_8  and  C4_29 
REMARK       I    between atoms: O2_9  and  C2_24 
REMARK       I    between atoms: C8_10  and  C7_18 
REMARK       I    between atoms: O3_11  and  C3_20 
REMARK       I    between atoms: O3_11  and  C1_16 
REMARK       I    between atoms: C6_12  and  C5_22 
REMARK       I    between atoms: N_13  and  C2_26 
REMARK       I    between atoms: N_13  and  C7_18 
REMARK       I    between atoms: C6_23  and  C5_30 
ROOT
ATOM      1  C3  GCD d 527      31.144  10.828  28.762  0.00  0.00     0.084 C 
ATOM      2  O2  GCD d 527      30.878  11.732  31.004  0.00  0.00    -0.388 OA
ATOM      3  C6  GCD d 527      31.643   7.343  30.286  0.00  0.00     0.233 C 
ATOM      4  C4  GCD d 527      31.105   9.351  29.073  0.00  0.00    -0.034 C 
ATOM      5  O3  GCD d 527      31.828  11.027  27.519  0.00  0.00    -0.389 OA
ATOM      6  C1  GCD d 527      32.989  10.897  30.521  0.00  0.00     0.165 C 
ATOM      7  O6B GCD d 527      32.316   6.770  31.175  0.00  0.00    -0.642 OA
ATOM      8  O5  GCD d 527      32.552   9.624  31.027  0.00  0.00    -0.311 OA
ATOM      9  C5  GCD d 527      31.749   8.791  30.121  0.00  0.00     0.147 C 
ATOM     10  C2  GCD d 527      31.795  11.610  29.927  0.00  0.00     0.111 C 
ATOM     11  O6A GCD d 527      30.883   6.727  29.508  0.00  0.00    -0.642 OA
ATOM     12  H   GCD d 527      30.150  11.208  28.658  0.00  0.00     0.093 H 
ATOM     13  H   GCD d 527      30.077  12.185  30.698  0.00  0.00     0.210 HD
ATOM     14  H   GCD d 527      30.558   8.735  28.452  0.00  0.00     0.085 H 
ATOM     15  H   GCD d 527      32.734  10.688  27.591  0.00  0.00     0.210 HD
ATOM     16  H   GCD d 527      33.433  11.435  31.332  0.00  0.00     0.134 H 
ATOM     17  H   GCD d 527      32.087  12.550  29.506  0.00  0.00     0.095 H 
ATOM     18  O5  NGK d 526      37.979   9.953  29.473  0.00  0.00    -0.349 OA
ATOM     19  O1  NGK d 526      37.582  10.691  31.569  0.00  0.00    -0.369 OA
ATOM     20  O7  NGK d 526      34.778  13.815  28.874  0.00  0.00    -0.274 OA
ATOM     21  O2S NGK d 526      35.330  10.189  25.321  0.00  0.00    -0.572 OA
ATOM     22  S   NGK d 526      35.140   9.146  26.479  0.00  0.00     0.252 S 
ATOM     23  O6  NGK d 526      37.053   6.474  29.038  0.00  0.00    -0.398 OA
ATOM     24  O4  NGK d 526      35.811   9.812  27.812  0.00  0.00    -0.246 OA
ATOM     25  C8  NGK d 526      35.035  15.000  30.931  0.00  0.00    -0.003 C 
ATOM     26  O3  NGK d 526      33.954  10.749  29.454  0.00  0.00    -0.348 OA
ATOM     27  N   NGK d 526      35.816  12.754  30.585  0.00  0.00    -0.349 N 
ATOM     28  C7  NGK d 526      35.187  13.801  30.038  0.00  0.00     0.214 C 
ATOM     29  O1S NGK d 526      35.710   7.867  26.157  0.00  0.00    -0.572 OA
ATOM     30  C3  NGK d 526      35.216  10.404  29.978  0.00  0.00     0.094 C 
ATOM     31  C6  NGK d 526      37.696   7.671  28.629  0.00  0.00     0.043 C 
ATOM     32  O3S NGK d 526      33.723   9.106  26.817  0.00  0.00    -0.572 OA
ATOM     33  C2  NGK d 526      36.199  11.567  29.818  0.00  0.00     0.087 C 
ATOM     34  C1  NGK d 526      37.601  11.100  30.224  0.00  0.00     0.151 C 
ATOM     35  C4  NGK d 526      35.718   9.248  29.113  0.00  0.00     0.114 C 
ATOM     36  C5  NGK d 526      37.122   8.796  29.522  0.00  0.00     0.090 C 
ATOM     37  H   NGK d 526      38.469  10.395  31.829  0.00  0.00     0.212 HD
ATOM     38  H   NGK d 526      37.381   5.733  28.505  0.00  0.00     0.209 HD
ATOM     39  H   NGK d 526      34.523  15.776  30.402  0.00  0.00     0.040 H 
ATOM     40  H   NGK d 526      36.002  15.348  31.228  0.00  0.00     0.040 H 
ATOM     41  H   NGK d 526      34.472  14.728  31.799  0.00  0.00     0.040 H 
ATOM     42  H   NGK d 526      36.030  12.783  31.545  0.00  0.00     0.163 HD
ATOM     43  H   NGK d 526      35.142  10.156  31.017  0.00  0.00     0.091 H 
ATOM     44  H   NGK d 526      37.487   7.872  27.600  0.00  0.00     0.078 H 
ATOM     45  H   NGK d 526      38.758   7.596  28.731  0.00  0.00     0.078 H 
ATOM     46  H   NGK d 526      36.186  11.860  28.789  0.00  0.00     0.084 H 
ATOM     47  H   NGK d 526      38.279  11.911  30.056  0.00  0.00     0.132 H 
ATOM     48  H   NGK d 526      35.071   8.400  29.193  0.00  0.00     0.093 H 
ATOM     49  H   NGK d 526      37.067   8.380  30.506  0.00  0.00     0.090 H 
ENDROOT
TORSDOF 12
ENDMDL
