MODEL 1
REMARK VINA RESULT:      -7.2      0.000      0.000
REMARK  0 active torsions:
REMARK  status: ('A' for Active; 'I' for Inactive)
REMARK       I    between atoms: C10_1  and  O15_19 
REMARK       I    between atoms: C7_2  and  O3_5 
REMARK       I    between atoms: C1_3  and  O3_5 
REMARK       I    between atoms: C8_4  and  N14_22 
REMARK       I    between atoms: C6_6  and  C2_9 
REMARK       I    between atoms: C6_6  and  O11_21 
REMARK       I    between atoms: O29_11  and  S20_31 
REMARK       I    between atoms: O9_13  and  C4_28 
REMARK       I    between atoms: C27_15  and  C19_29 
REMARK       I    between atoms: C17_16  and  O25_27 
REMARK       I    between atoms: S26_18  and  O18_24 
REMARK       I    between atoms: O30_20  and  S20_31 
REMARK       I    between atoms: N14_22  and  S20_31 
REMARK       I    between atoms: C12_23  and  O18_24 
REMARK       I    between atoms: O28_26  and  S20_31 
ROOT
ATOM      1  C10 H3S d 301      14.809  11.212  36.754  0.00  0.00     0.147 C 
ATOM      2  C7  H3S d 301      17.362   7.518  35.205  0.00  0.00     0.167 C 
ATOM      3  C1  H3S d 301      15.154   8.642  35.289  0.00  0.00     0.095 C 
ATOM      4  C8  H3S d 301      14.219   9.884  37.292  0.00  0.00     0.081 C 
ATOM      5  O3  H3S d 301      15.943   7.566  34.747  0.00  0.00    -0.348 OA
ATOM      6  C6  H3S d 301      15.720  10.108  33.227  0.00  0.00     0.043 C 
ATOM      7  C24 H3S d 301      18.278   6.208  32.812  0.00  0.00    -0.034 C 
ATOM      8  O34 H3S d 301      19.197   9.565  32.058  0.00  0.00    -0.642 OA
ATOM      9  C2  H3S d 301      15.681  10.060  34.777  0.00  0.00     0.089 C 
ATOM     10  O31 H3S d 301      20.801   5.885  37.682  0.00  0.00    -0.572 OA
ATOM     11  O29 H3S d 301      13.007   9.499  40.918  0.00  0.00    -0.296 OA
ATOM     12  O35 H3S d 301      18.915   7.938  30.531  0.00  0.00    -0.642 OA
ATOM     13  O9  H3S d 301      14.600   7.453  37.312  0.00  0.00    -0.391 OA
ATOM     14  O13 H3S d 301      18.240   8.162  34.194  0.00  0.00    -0.311 OA
ATOM     15  C27 H3S d 301      18.873   8.418  31.841  0.00  0.00     0.233 C 
ATOM     16  C17 H3S d 301      17.848   5.299  33.988  0.00  0.00     0.086 C 
ATOM     17  O32 H3S d 301      18.736   6.847  38.139  0.00  0.00    -0.572 OA
ATOM     18  S26 H3S d 301      19.409   5.826  37.378  0.00  0.00     0.252 S 
ATOM     19  O15 H3S d 301      16.129  11.432  37.321  0.00  0.00    -0.369 OA
ATOM     20  O30 H3S d 301      11.495  10.136  38.987  0.00  0.00    -0.296 OA
ATOM     21  O11 H3S d 301      14.395  10.152  32.666  0.00  0.00    -0.398 OA
ATOM     22  N14 H3S d 301      14.167   9.935  38.746  0.00  0.00    -0.210 NA
ATOM     23  C12 H3S d 301      17.868   6.036  35.394  0.00  0.00     0.135 C 
ATOM     24  O18 H3S d 301      19.248   6.073  35.851  0.00  0.00    -0.244 OA
ATOM     25  O33 H3S d 301      18.833   4.327  37.797  0.00  0.00    -0.572 OA
ATOM     26  O28 H3S d 301      12.713   7.939  39.229  0.00  0.00    -0.296 OA
ATOM     27  O25 H3S d 301      16.526   4.804  33.733  0.00  0.00    -0.389 OA
ATOM     28  C4  H3S d 301      15.104   8.707  36.827  0.00  0.00     0.083 C 
ATOM     29  C19 H3S d 301      18.451   7.561  32.966  0.00  0.00     0.147 C 
ATOM     30  O5  H3S d 301      14.893  11.185  35.289  0.00  0.00    -0.350 OA
ATOM     31  S20 H3S d 301      12.846   9.329  39.516  0.00  0.00     0.156 S 
ATOM     32  H   H3S d 301      14.162  12.014  37.043  0.00  0.00     0.131 H 
ATOM     33  H   H3S d 301      17.404   8.030  36.144  0.00  0.00     0.134 H 
ATOM     34  H   H3S d 301      14.167   8.429  34.937  0.00  0.00     0.091 H 
ATOM     35  H   H3S d 301      13.229   9.743  36.913  0.00  0.00     0.076 H 
ATOM     36  H   H3S d 301      16.221   9.235  32.864  0.00  0.00     0.078 H 
ATOM     37  H   H3S d 301      16.238  10.996  32.932  0.00  0.00     0.078 H 
ATOM     38  H   H3S d 301      18.440   5.785  31.885  0.00  0.00     0.085 H 
ATOM     39  H   H3S d 301      16.673  10.166  35.165  0.00  0.00     0.090 H 
ATOM     40  H   H3S d 301      13.099  10.444  41.120  0.00  0.00     0.231 HD
ATOM     41  H   H3S d 301      15.174   6.734  37.005  0.00  0.00     0.210 HD
ATOM     42  H   H3S d 301      18.559   4.502  34.046  0.00  0.00     0.093 H 
ATOM     43  H   H3S d 301      16.717  10.707  37.061  0.00  0.00     0.212 HD
ATOM     44  H   H3S d 301      11.586  11.081  39.182  0.00  0.00     0.231 HD
ATOM     45  H   H3S d 301      13.908   9.352  32.923  0.00  0.00     0.209 HD
ATOM     46  H   H3S d 301      14.246  10.916  39.014  0.00  0.00     0.140 HD
ATOM     47  H   H3S d 301      17.242   5.526  36.097  0.00  0.00     0.097 H 
ATOM     48  H   H3S d 301      11.932   7.588  39.685  0.00  0.00     0.231 HD
ATOM     49  H   H3S d 301      15.905   5.549  33.685  0.00  0.00     0.210 HD
ATOM     50  H   H3S d 301      16.084   8.875  37.223  0.00  0.00     0.089 H 
ENDROOT
TORSDOF 15
ENDMDL
MODEL 2
REMARK VINA RESULT:      -6.8      3.110      6.397
REMARK  0 active torsions:
REMARK  status: ('A' for Active; 'I' for Inactive)
REMARK       I    between atoms: C10_1  and  O15_19 
REMARK       I    between atoms: C7_2  and  O3_5 
REMARK       I    between atoms: C1_3  and  O3_5 
REMARK       I    between atoms: C8_4  and  N14_22 
REMARK       I    between atoms: C6_6  and  C2_9 
REMARK       I    between atoms: C6_6  and  O11_21 
REMARK       I    between atoms: O29_11  and  S20_31 
REMARK       I    between atoms: O9_13  and  C4_28 
REMARK       I    between atoms: C27_15  and  C19_29 
REMARK       I    between atoms: C17_16  and  O25_27 
REMARK       I    between atoms: S26_18  and  O18_24 
REMARK       I    between atoms: O30_20  and  S20_31 
REMARK       I    between atoms: N14_22  and  S20_31 
REMARK       I    between atoms: C12_23  and  O18_24 
REMARK       I    between atoms: O28_26  and  S20_31 
ROOT
ATOM      1  C10 H3S d 301      15.798  12.079  33.319  0.00  0.00     0.147 C 
ATOM      2  C7  H3S d 301      17.252   7.882  35.004  0.00  0.00     0.167 C 
ATOM      3  C1  H3S d 301      17.674  10.318  34.820  0.00  0.00     0.095 C 
ATOM      4  C8  H3S d 301      17.206  11.734  32.770  0.00  0.00     0.081 C 
ATOM      5  O3  H3S d 301      18.072   9.063  35.404  0.00  0.00    -0.348 OA
ATOM      6  C6  H3S d 301      16.197  10.823  36.890  0.00  0.00     0.043 C 
ATOM      7  C24 H3S d 301      17.793   6.455  37.445  0.00  0.00    -0.034 C 
ATOM      8  O34 H3S d 301      14.568   7.761  38.204  0.00  0.00    -0.642 OA
ATOM      9  C2  H3S d 301      16.231  10.766  35.340  0.00  0.00     0.089 C 
ATOM     10  O31 H3S d 301      16.457   4.060  32.684  0.00  0.00    -0.572 OA
ATOM     11  O29 H3S d 301      18.178  12.335  29.101  0.00  0.00    -0.296 OA
ATOM     12  O35 H3S d 301      16.065   7.070  39.733  0.00  0.00    -0.642 OA
ATOM     13  O9  H3S d 301      18.923   9.972  32.788  0.00  0.00    -0.391 OA
ATOM     14  O13 H3S d 301      16.228   7.605  36.044  0.00  0.00    -0.311 OA
ATOM     15  C27 H3S d 301      15.683   7.341  38.419  0.00  0.00     0.233 C 
ATOM     16  C17 H3S d 301      18.758   6.210  36.261  0.00  0.00     0.086 C 
ATOM     17  O32 H3S d 301      16.917   6.270  32.135  0.00  0.00    -0.572 OA
ATOM     18  S26 H3S d 301      17.343   5.149  32.931  0.00  0.00     0.252 S 
ATOM     19  O15 H3S d 301      14.822  11.134  32.804  0.00  0.00    -0.369 OA
ATOM     20  O30 H3S d 301      18.607  13.999  30.963  0.00  0.00    -0.296 OA
ATOM     21  O11 H3S d 301      16.965  11.930  37.396  0.00  0.00    -0.398 OA
ATOM     22  N14 H3S d 301      17.171  11.750  31.315  0.00  0.00    -0.210 NA
ATOM     23  C12 H3S d 301      18.132   6.582  34.849  0.00  0.00     0.135 C 
ATOM     24  O18 H3S d 301      17.268   5.484  34.448  0.00  0.00    -0.244 OA
ATOM     25  O33 H3S d 301      18.881   4.695  32.504  0.00  0.00    -0.572 OA
ATOM     26  O28 H3S d 301      19.633  11.699  30.791  0.00  0.00    -0.296 OA
ATOM     27  O25 H3S d 301      19.951   6.981  36.466  0.00  0.00    -0.389 OA
ATOM     28  C4  H3S d 301      17.626  10.338  33.281  0.00  0.00     0.083 C 
ATOM     29  C19 H3S d 301      16.603   7.123  37.286  0.00  0.00     0.147 C 
ATOM     30  O5  H3S d 301      15.794  12.051  34.787  0.00  0.00    -0.350 OA
ATOM     31  S20 H3S d 301      18.435  12.415  30.497  0.00  0.00     0.156 S 
ATOM     32  H   H3S d 301      15.539  13.065  32.996  0.00  0.00     0.131 H 
ATOM     33  H   H3S d 301      16.801   8.120  34.063  0.00  0.00     0.134 H 
ATOM     34  H   H3S d 301      18.442  10.994  35.134  0.00  0.00     0.091 H 
ATOM     35  H   H3S d 301      17.918  12.456  33.110  0.00  0.00     0.076 H 
ATOM     36  H   H3S d 301      16.601   9.912  37.281  0.00  0.00     0.078 H 
ATOM     37  H   H3S d 301      15.180  10.952  37.198  0.00  0.00     0.078 H 
ATOM     38  H   H3S d 301      18.050   6.108  38.381  0.00  0.00     0.085 H 
ATOM     39  H   H3S d 301      15.546  10.021  34.992  0.00  0.00     0.090 H 
ATOM     40  H   H3S d 301      17.364  12.820  28.894  0.00  0.00     0.231 HD
ATOM     41  H   H3S d 301      19.160   9.093  33.124  0.00  0.00     0.210 HD
ATOM     42  H   H3S d 301      18.969   5.162  36.238  0.00  0.00     0.093 H 
ATOM     43  H   H3S d 301      15.054  10.238  33.095  0.00  0.00     0.212 HD
ATOM     44  H   H3S d 301      17.793  14.485  30.763  0.00  0.00     0.231 HD
ATOM     45  H   H3S d 301      17.892  11.830  37.127  0.00  0.00     0.209 HD
ATOM     46  H   H3S d 301      16.334  12.265  31.041  0.00  0.00     0.140 HD
ATOM     47  H   H3S d 301      18.903   6.751  34.127  0.00  0.00     0.097 H 
ATOM     48  H   H3S d 301      20.373  12.096  30.307  0.00  0.00     0.231 HD
ATOM     49  H   H3S d 301      19.727   7.925  36.482  0.00  0.00     0.210 HD
ATOM     50  H   H3S d 301      16.897   9.640  32.923  0.00  0.00     0.089 H 
ENDROOT
TORSDOF 15
ENDMDL
MODEL 3
REMARK VINA RESULT:      -6.6      3.516      7.207
REMARK  0 active torsions:
REMARK  status: ('A' for Active; 'I' for Inactive)
REMARK       I    between atoms: C10_1  and  O15_19 
REMARK       I    between atoms: C7_2  and  O3_5 
REMARK       I    between atoms: C1_3  and  O3_5 
REMARK       I    between atoms: C8_4  and  N14_22 
REMARK       I    between atoms: C6_6  and  C2_9 
REMARK       I    between atoms: C6_6  and  O11_21 
REMARK       I    between atoms: O29_11  and  S20_31 
REMARK       I    between atoms: O9_13  and  C4_28 
REMARK       I    between atoms: C27_15  and  C19_29 
REMARK       I    between atoms: C17_16  and  O25_27 
REMARK       I    between atoms: S26_18  and  O18_24 
REMARK       I    between atoms: O30_20  and  S20_31 
REMARK       I    between atoms: N14_22  and  S20_31 
REMARK       I    between atoms: C12_23  and  O18_24 
REMARK       I    between atoms: O28_26  and  S20_31 
ROOT
ATOM      1  C10 H3S d 301      17.966   6.545  30.163  0.00  0.00     0.147 C 
ATOM      2  C7  H3S d 301      17.057  10.397  32.790  0.00  0.00     0.167 C 
ATOM      3  C1  H3S d 301      18.600   8.519  32.302  0.00  0.00     0.095 C 
ATOM      4  C8  H3S d 301      17.890   6.170  31.665  0.00  0.00     0.081 C 
ATOM      5  O3  H3S d 301      18.369   9.734  33.042  0.00  0.00    -0.348 OA
ATOM      6  C6  H3S d 301      19.802   9.869  30.443  0.00  0.00     0.043 C 
ATOM      7  C24 H3S d 301      18.056  13.018  33.437  0.00  0.00    -0.034 C 
ATOM      8  O34 H3S d 301      18.207  13.170  29.883  0.00  0.00    -0.642 OA
ATOM      9  C2  H3S d 301      18.707   8.808  30.735  0.00  0.00     0.089 C 
ATOM     10  O31 H3S d 301      12.784  11.526  33.834  0.00  0.00    -0.572 OA
ATOM     11  O29 H3S d 301      16.084   3.011  32.898  0.00  0.00    -0.296 OA
ATOM     12  O35 H3S d 301      19.385  14.486  31.275  0.00  0.00    -0.642 OA
ATOM     13  O9  H3S d 301      17.438   7.124  33.888  0.00  0.00    -0.391 OA
ATOM     14  O13 H3S d 301      17.227  11.487  31.794  0.00  0.00    -0.311 OA
ATOM     15  C27 H3S d 301      18.505  13.432  31.027  0.00  0.00     0.233 C 
ATOM     16  C17 H3S d 301      17.440  12.197  34.595  0.00  0.00     0.086 C 
ATOM     17  O32 H3S d 301      13.947   9.539  33.521  0.00  0.00    -0.572 OA
ATOM     18  S26 H3S d 301      13.958  10.806  34.204  0.00  0.00     0.252 S 
ATOM     19  O15 H3S d 301      16.664   6.991  29.698  0.00  0.00    -0.369 OA
ATOM     20  O30 H3S d 301      18.564   3.107  32.388  0.00  0.00    -0.296 OA
ATOM     21  O11 H3S d 301      21.122   9.339  30.659  0.00  0.00    -0.398 OA
ATOM     22  N14 H3S d 301      16.881   5.137  31.851  0.00  0.00    -0.210 NA
ATOM     23  C12 H3S d 301      16.465  11.044  34.101  0.00  0.00     0.135 C 
ATOM     24  O18 H3S d 301      15.187  11.658  33.778  0.00  0.00    -0.244 OA
ATOM     25  O33 H3S d 301      13.945  10.571  35.847  0.00  0.00    -0.572 OA
ATOM     26  O28 H3S d 301      17.392   4.408  34.206  0.00  0.00    -0.296 OA
ATOM     27  O25 H3S d 301      18.500  11.619  35.370  0.00  0.00    -0.389 OA
ATOM     28  C4  H3S d 301      17.530   7.427  32.488  0.00  0.00     0.083 C 
ATOM     29  C19 H3S d 301      17.924  12.636  32.125  0.00  0.00     0.147 C 
ATOM     30  O5  H3S d 301      18.963   7.601  29.944  0.00  0.00    -0.350 OA
ATOM     31  S20 H3S d 301      17.194   3.899  32.888  0.00  0.00     0.156 S 
ATOM     32  H   H3S d 301      18.262   5.678  29.610  0.00  0.00     0.131 H 
ATOM     33  H   H3S d 301      16.388   9.642  32.433  0.00  0.00     0.134 H 
ATOM     34  H   H3S d 301      19.518   8.151  32.707  0.00  0.00     0.091 H 
ATOM     35  H   H3S d 301      18.836   5.798  31.998  0.00  0.00     0.076 H 
ATOM     36  H   H3S d 301      19.655  10.708  31.091  0.00  0.00     0.078 H 
ATOM     37  H   H3S d 301      19.721  10.160  29.417  0.00  0.00     0.078 H 
ATOM     38  H   H3S d 301      18.582  13.878  33.658  0.00  0.00     0.085 H 
ATOM     39  H   H3S d 301      17.752   9.187  30.436  0.00  0.00     0.090 H 
ATOM     40  H   H3S d 301      15.943   2.660  32.005  0.00  0.00     0.231 HD
ATOM     41  H   H3S d 301      17.211   7.929  34.378  0.00  0.00     0.210 HD
ATOM     42  H   H3S d 301      16.850  12.871  35.179  0.00  0.00     0.093 H 
ATOM     43  H   H3S d 301      16.394   7.776  30.198  0.00  0.00     0.212 HD
ATOM     44  H   H3S d 301      18.429   2.761  31.493  0.00  0.00     0.231 HD
ATOM     45  H   H3S d 301      21.215   9.069  31.587  0.00  0.00     0.209 HD
ATOM     46  H   H3S d 301      16.704   4.723  30.936  0.00  0.00     0.140 HD
ATOM     47  H   H3S d 301      16.354  10.294  34.856  0.00  0.00     0.097 H 
ATOM     48  H   H3S d 301      17.576   3.674  34.812  0.00  0.00     0.231 HD
ATOM     49  H   H3S d 301      19.015  11.014  34.813  0.00  0.00     0.210 HD
ATOM     50  H   H3S d 301      16.581   7.773  32.134  0.00  0.00     0.089 H 
ENDROOT
TORSDOF 15
ENDMDL
MODEL 4
REMARK VINA RESULT:      -6.4      3.182      6.214
REMARK  0 active torsions:
REMARK  status: ('A' for Active; 'I' for Inactive)
REMARK       I    between atoms: C10_1  and  O15_19 
REMARK       I    between atoms: C7_2  and  O3_5 
REMARK       I    between atoms: C1_3  and  O3_5 
REMARK       I    between atoms: C8_4  and  N14_22 
REMARK       I    between atoms: C6_6  and  C2_9 
REMARK       I    between atoms: C6_6  and  O11_21 
REMARK       I    between atoms: O29_11  and  S20_31 
REMARK       I    between atoms: O9_13  and  C4_28 
REMARK       I    between atoms: C27_15  and  C19_29 
REMARK       I    between atoms: C17_16  and  O25_27 
REMARK       I    between atoms: S26_18  and  O18_24 
REMARK       I    between atoms: O30_20  and  S20_31 
REMARK       I    between atoms: N14_22  and  S20_31 
REMARK       I    between atoms: C12_23  and  O18_24 
REMARK       I    between atoms: O28_26  and  S20_31 
ROOT
ATOM      1  C10 H3S d 301      16.019  11.594  34.386  0.00  0.00     0.147 C 
ATOM      2  C7  H3S d 301      17.615   7.227  35.360  0.00  0.00     0.167 C 
ATOM      3  C1  H3S d 301      18.072   9.663  35.351  0.00  0.00     0.095 C 
ATOM      4  C8  H3S d 301      17.300  11.290  33.567  0.00  0.00     0.081 C 
ATOM      5  O3  H3S d 301      18.527   8.349  35.727  0.00  0.00    -0.348 OA
ATOM      6  C6  H3S d 301      16.992   9.968  37.688  0.00  0.00     0.043 C 
ATOM      7  C24 H3S d 301      18.526   5.547  37.512  0.00  0.00    -0.034 C 
ATOM      8  O34 H3S d 301      15.523   6.806  38.953  0.00  0.00    -0.642 OA
ATOM      9  C2  H3S d 301      16.756  10.072  36.158  0.00  0.00     0.089 C 
ATOM     10  O31 H3S d 301      16.313   3.677  32.844  0.00  0.00    -0.572 OA
ATOM     11  O29 H3S d 301      17.640  12.258  29.864  0.00  0.00    -0.296 OA
ATOM     12  O35 H3S d 301      17.240   5.941  40.118  0.00  0.00    -0.642 OA
ATOM     13  O9  H3S d 301      18.939   9.515  33.106  0.00  0.00    -0.391 OA
ATOM     14  O13 H3S d 301      16.778   6.856  36.530  0.00  0.00    -0.311 OA
ATOM     15  C27 H3S d 301      16.645   6.353  38.926  0.00  0.00     0.233 C 
ATOM     16  C17 H3S d 301      19.263   5.414  36.159  0.00  0.00     0.086 C 
ATOM     17  O32 H3S d 301      16.738   5.927  32.447  0.00  0.00    -0.572 OA
ATOM     18  S26 H3S d 301      17.261   4.724  33.040  0.00  0.00     0.252 S 
ATOM     19  O15 H3S d 301      14.940  10.720  33.959  0.00  0.00    -0.369 OA
ATOM     20  O30 H3S d 301      18.436  13.714  31.779  0.00  0.00    -0.296 OA
ATOM     21  O11 H3S d 301      17.870  11.006  38.160  0.00  0.00    -0.398 OA
ATOM     22  N14 H3S d 301      17.014  11.459  32.150  0.00  0.00    -0.210 NA
ATOM     23  C12 H3S d 301      18.414   5.939  34.924  0.00  0.00     0.135 C 
ATOM     24  O18 H3S d 301      17.460   4.899  34.572  0.00  0.00    -0.244 OA
ATOM     25  O33 H3S d 301      18.687   4.298  32.306  0.00  0.00    -0.572 OA
ATOM     26  O28 H3S d 301      19.345  11.432  31.200  0.00  0.00    -0.296 OA
ATOM     27  O25 H3S d 301      20.497   6.144  36.228  0.00  0.00    -0.389 OA
ATOM     28  C4  H3S d 301      17.759   9.844  33.854  0.00  0.00     0.083 C 
ATOM     29  C19 H3S d 301      17.347   6.242  37.632  0.00  0.00     0.147 C 
ATOM     30  O5  H3S d 301      16.270  11.414  35.822  0.00  0.00    -0.350 OA
ATOM     31  S20 H3S d 301      18.137  12.189  31.194  0.00  0.00     0.156 S 
ATOM     32  H   H3S d 301      15.739  12.612  34.215  0.00  0.00     0.131 H 
ATOM     33  H   H3S d 301      17.014   7.567  34.542  0.00  0.00     0.134 H 
ATOM     34  H   H3S d 301      18.903  10.293  35.591  0.00  0.00     0.091 H 
ATOM     35  H   H3S d 301      18.082  11.964  33.847  0.00  0.00     0.076 H 
ATOM     36  H   H3S d 301      17.430   9.017  37.908  0.00  0.00     0.078 H 
ATOM     37  H   H3S d 301      16.049  10.077  38.181  0.00  0.00     0.078 H 
ATOM     38  H   H3S d 301      18.931   5.100  38.350  0.00  0.00     0.085 H 
ATOM     39  H   H3S d 301      15.998   9.377  35.863  0.00  0.00     0.090 H 
ATOM     40  H   H3S d 301      16.817  12.772  29.853  0.00  0.00     0.231 HD
ATOM     41  H   H3S d 301      19.204   8.603  33.306  0.00  0.00     0.210 HD
ATOM     42  H   H3S d 301      19.435   4.371  35.995  0.00  0.00     0.093 H 
ATOM     43  H   H3S d 301      15.192   9.797  34.112  0.00  0.00     0.212 HD
ATOM     44  H   H3S d 301      17.614  14.229  31.775  0.00  0.00     0.231 HD
ATOM     45  H   H3S d 301      18.733  10.924  37.723  0.00  0.00     0.209 HD
ATOM     46  H   H3S d 301      16.158  12.010  32.080  0.00  0.00     0.140 HD
ATOM     47  H   H3S d 301      19.053   6.172  34.098  0.00  0.00     0.097 H 
ATOM     48  H   H3S d 301      20.002  11.867  30.635  0.00  0.00     0.231 HD
ATOM     49  H   H3S d 301      20.308   7.084  36.377  0.00  0.00     0.210 HD
ATOM     50  H   H3S d 301      16.959   9.196  33.561  0.00  0.00     0.089 H 
ENDROOT
TORSDOF 15
ENDMDL
MODEL 5
REMARK VINA RESULT:      -6.1      3.070      7.497
REMARK  0 active torsions:
REMARK  status: ('A' for Active; 'I' for Inactive)
REMARK       I    between atoms: C10_1  and  O15_19 
REMARK       I    between atoms: C7_2  and  O3_5 
REMARK       I    between atoms: C1_3  and  O3_5 
REMARK       I    between atoms: C8_4  and  N14_22 
REMARK       I    between atoms: C6_6  and  C2_9 
REMARK       I    between atoms: C6_6  and  O11_21 
REMARK       I    between atoms: O29_11  and  S20_31 
REMARK       I    between atoms: O9_13  and  C4_28 
REMARK       I    between atoms: C27_15  and  C19_29 
REMARK       I    between atoms: C17_16  and  O25_27 
REMARK       I    between atoms: S26_18  and  O18_24 
REMARK       I    between atoms: O30_20  and  S20_31 
REMARK       I    between atoms: N14_22  and  S20_31 
REMARK       I    between atoms: C12_23  and  O18_24 
REMARK       I    between atoms: O28_26  and  S20_31 
ROOT
ATOM      1  C10 H3S d 301      20.205   5.963  33.861  0.00  0.00     0.147 C 
ATOM      2  C7  H3S d 301      16.558   8.342  35.760  0.00  0.00     0.167 C 
ATOM      3  C1  H3S d 301      17.838   6.221  35.650  0.00  0.00     0.095 C 
ATOM      4  C8  H3S d 301      18.868   5.241  33.552  0.00  0.00     0.081 C 
ATOM      5  O3  H3S d 301      16.784   6.966  36.291  0.00  0.00    -0.348 OA
ATOM      6  C6  H3S d 301      19.519   7.036  37.448  0.00  0.00     0.043 C 
ATOM      7  C24 H3S d 301      15.515   9.326  38.255  0.00  0.00    -0.034 C 
ATOM      8  O34 H3S d 301      18.856  10.539  38.472  0.00  0.00    -0.642 OA
ATOM      9  C2  H3S d 301      19.264   6.885  35.925  0.00  0.00     0.089 C 
ATOM     10  O31 H3S d 301      14.328  11.469  33.337  0.00  0.00    -0.572 OA
ATOM     11  O29 H3S d 301      18.096   3.751  30.095  0.00  0.00    -0.296 OA
ATOM     12  O35 H3S d 301      17.480  10.247  40.227  0.00  0.00    -0.642 OA
ATOM     13  O9  H3S d 301      16.435   5.441  33.852  0.00  0.00    -0.391 OA
ATOM     14  O13 H3S d 301      17.260   9.333  36.616  0.00  0.00    -0.311 OA
ATOM     15  C27 H3S d 301      17.780  10.148  38.868  0.00  0.00     0.233 C 
ATOM     16  C17 H3S d 301      14.493   8.749  37.246  0.00  0.00     0.086 C 
ATOM     17  O32 H3S d 301      15.384   9.453  32.873  0.00  0.00    -0.572 OA
ATOM     18  S26 H3S d 301      14.425  10.101  33.728  0.00  0.00     0.252 S 
ATOM     19  O15 H3S d 301      20.237   7.251  33.191  0.00  0.00    -0.369 OA
ATOM     20  O30 H3S d 301      19.111   2.429  32.003  0.00  0.00    -0.296 OA
ATOM     21  O11 H3S d 301      19.747   5.761  38.075  0.00  0.00    -0.398 OA
ATOM     22  N14 H3S d 301      18.726   5.090  32.111  0.00  0.00    -0.210 NA
ATOM     23  C12 H3S d 301      15.028   8.724  35.752  0.00  0.00     0.135 C 
ATOM     24  O18 H3S d 301      14.889  10.067  35.212  0.00  0.00    -0.244 OA
ATOM     25  O33 H3S d 301      12.935   9.390  33.560  0.00  0.00    -0.572 OA
ATOM     26  O28 H3S d 301      16.808   3.463  32.001  0.00  0.00    -0.296 OA
ATOM     27  O25 H3S d 301      14.147   7.415  37.647  0.00  0.00    -0.389 OA
ATOM     28  C4  H3S d 301      17.697   6.068  34.124  0.00  0.00     0.083 C 
ATOM     29  C19 H3S d 301      16.816   9.586  37.902  0.00  0.00     0.147 C 
ATOM     30  O5  H3S d 301      20.370   6.147  35.308  0.00  0.00    -0.350 OA
ATOM     31  S20 H3S d 301      18.131   3.677  31.514  0.00  0.00     0.156 S 
ATOM     32  H   H3S d 301      21.010   5.357  33.501  0.00  0.00     0.131 H 
ATOM     33  H   H3S d 301      16.933   8.355  34.757  0.00  0.00     0.134 H 
ATOM     34  H   H3S d 301      17.756   5.248  36.087  0.00  0.00     0.091 H 
ATOM     35  H   H3S d 301      18.862   4.272  34.005  0.00  0.00     0.076 H 
ATOM     36  H   H3S d 301      18.665   7.497  37.899  0.00  0.00     0.078 H 
ATOM     37  H   H3S d 301      20.393   7.638  37.583  0.00  0.00     0.078 H 
ATOM     38  H   H3S d 301      15.209   9.522  39.221  0.00  0.00     0.085 H 
ATOM     39  H   H3S d 301      19.235   7.853  35.468  0.00  0.00     0.090 H 
ATOM     40  H   H3S d 301      18.993   3.897  29.756  0.00  0.00     0.231 HD
ATOM     41  H   H3S d 301      15.719   5.981  34.222  0.00  0.00     0.210 HD
ATOM     42  H   H3S d 301      13.640   9.394  37.258  0.00  0.00     0.093 H 
ATOM     43  H   H3S d 301      19.508   7.802  33.515  0.00  0.00     0.212 HD
ATOM     44  H   H3S d 301      20.010   2.575  31.672  0.00  0.00     0.231 HD
ATOM     45  H   H3S d 301      18.963   5.201  37.962  0.00  0.00     0.209 HD
ATOM     46  H   H3S d 301      19.651   5.222  31.703  0.00  0.00     0.140 HD
ATOM     47  H   H3S d 301      14.481   8.014  35.167  0.00  0.00     0.097 H 
ATOM     48  H   H3S d 301      16.464   2.629  31.646  0.00  0.00     0.231 HD
ATOM     49  H   H3S d 301      14.940   6.856  37.626  0.00  0.00     0.210 HD
ATOM     50  H   H3S d 301      17.729   7.027  33.651  0.00  0.00     0.089 H 
ENDROOT
TORSDOF 15
ENDMDL
MODEL 6
REMARK VINA RESULT:      -6.1      2.948      6.123
REMARK  0 active torsions:
REMARK  status: ('A' for Active; 'I' for Inactive)
REMARK       I    between atoms: C10_1  and  O15_19 
REMARK       I    between atoms: C7_2  and  O3_5 
REMARK       I    between atoms: C1_3  and  O3_5 
REMARK       I    between atoms: C8_4  and  N14_22 
REMARK       I    between atoms: C6_6  and  C2_9 
REMARK       I    between atoms: C6_6  and  O11_21 
REMARK       I    between atoms: O29_11  and  S20_31 
REMARK       I    between atoms: O9_13  and  C4_28 
REMARK       I    between atoms: C27_15  and  C19_29 
REMARK       I    between atoms: C17_16  and  O25_27 
REMARK       I    between atoms: S26_18  and  O18_24 
REMARK       I    between atoms: O30_20  and  S20_31 
REMARK       I    between atoms: N14_22  and  S20_31 
REMARK       I    between atoms: C12_23  and  O18_24 
REMARK       I    between atoms: O28_26  and  S20_31 
ROOT
ATOM      1  C10 H3S d 301      16.014   8.295  40.322  0.00  0.00     0.147 C 
ATOM      2  C7  H3S d 301      15.646  10.471  36.116  0.00  0.00     0.167 C 
ATOM      3  C1  H3S d 301      14.913   8.604  37.572  0.00  0.00     0.095 C 
ATOM      4  C8  H3S d 301      16.403   7.327  39.176  0.00  0.00     0.081 C 
ATOM      5  O3  H3S d 301      14.735   9.309  36.328  0.00  0.00    -0.348 OA
ATOM      6  C6  H3S d 301      13.074  10.063  38.672  0.00  0.00     0.043 C 
ATOM      7  C24 H3S d 301      13.787  11.844  34.400  0.00  0.00    -0.034 C 
ATOM      8  O34 H3S d 301      13.179  13.566  37.458  0.00  0.00    -0.642 OA
ATOM      9  C2  H3S d 301      14.521   9.522  38.818  0.00  0.00     0.089 C 
ATOM     10  O31 H3S d 301      19.232  12.569  34.279  0.00  0.00    -0.572 OA
ATOM     11  O29 H3S d 301      19.427   4.969  39.425  0.00  0.00    -0.296 OA
ATOM     12  O35 H3S d 301      11.750  13.488  35.723  0.00  0.00    -0.642 OA
ATOM     13  O9  H3S d 301      16.701   7.220  36.736  0.00  0.00    -0.391 OA
ATOM     14  O13 H3S d 301      14.951  11.731  36.489  0.00  0.00    -0.311 OA
ATOM     15  C27 H3S d 301      12.937  13.120  36.358  0.00  0.00     0.233 C 
ATOM     16  C17 H3S d 301      14.804  10.898  33.718  0.00  0.00     0.086 C 
ATOM     17  O32 H3S d 301      18.907  10.684  35.598  0.00  0.00    -0.572 OA
ATOM     18  S26 H3S d 301      18.482  11.362  34.402  0.00  0.00     0.252 S 
ATOM     19  O15 H3S d 301      16.976   9.380  40.401  0.00  0.00    -0.369 OA
ATOM     20  O30 H3S d 301      17.065   4.301  40.052  0.00  0.00    -0.296 OA
ATOM     21  O11 H3S d 301      12.099   9.020  38.854  0.00  0.00    -0.398 OA
ATOM     22  N14 H3S d 301      17.749   6.823  39.410  0.00  0.00    -0.210 NA
ATOM     23  C12 H3S d 301      16.086  10.605  34.608  0.00  0.00     0.135 C 
ATOM     24  O18 H3S d 301      16.978  11.747  34.484  0.00  0.00    -0.244 OA
ATOM     25  O33 H3S d 301      18.775  10.413  33.072  0.00  0.00    -0.572 OA
ATOM     26  O28 H3S d 301      17.838   4.944  37.737  0.00  0.00    -0.296 OA
ATOM     27  O25 H3S d 301      14.150   9.659  33.408  0.00  0.00    -0.389 OA
ATOM     28  C4  H3S d 301      16.337   8.078  37.829  0.00  0.00     0.083 C 
ATOM     29  C19 H3S d 301      13.905  12.208  35.719  0.00  0.00     0.147 C 
ATOM     30  O5  H3S d 301      14.666   8.836  40.106  0.00  0.00    -0.350 OA
ATOM     31  S20 H3S d 301      18.066   5.236  39.114  0.00  0.00     0.156 S 
ATOM     32  H   H3S d 301      16.018   7.751  41.244  0.00  0.00     0.131 H 
ATOM     33  H   H3S d 301      16.511  10.306  36.725  0.00  0.00     0.134 H 
ATOM     34  H   H3S d 301      14.264   7.760  37.474  0.00  0.00     0.091 H 
ATOM     35  H   H3S d 301      15.723   6.502  39.147  0.00  0.00     0.076 H 
ATOM     36  H   H3S d 301      12.956  10.481  37.694  0.00  0.00     0.078 H 
ATOM     37  H   H3S d 301      12.916  10.804  39.427  0.00  0.00     0.078 H 
ATOM     38  H   H3S d 301      12.996  12.212  33.849  0.00  0.00     0.085 H 
ATOM     39  H   H3S d 301      15.212  10.339  38.815  0.00  0.00     0.090 H 
ATOM     40  H   H3S d 301      19.589   5.165  40.361  0.00  0.00     0.231 HD
ATOM     41  H   H3S d 301      16.651   7.717  35.905  0.00  0.00     0.210 HD
ATOM     42  H   H3S d 301      15.148  11.391  32.834  0.00  0.00     0.093 H 
ATOM     43  H   H3S d 301      16.975   9.875  39.567  0.00  0.00     0.212 HD
ATOM     44  H   H3S d 301      17.220   4.499  40.988  0.00  0.00     0.231 HD
ATOM     45  H   H3S d 301      12.227   8.336  38.177  0.00  0.00     0.209 HD
ATOM     46  H   H3S d 301      17.966   6.994  40.392  0.00  0.00     0.140 HD
ATOM     47  H   H3S d 301      16.568   9.703  34.290  0.00  0.00     0.097 H 
ATOM     48  H   H3S d 301      18.026   4.007  37.569  0.00  0.00     0.231 HD
ATOM     49  H   H3S d 301      13.851   9.237  34.229  0.00  0.00     0.210 HD
ATOM     50  H   H3S d 301      17.029   8.893  37.889  0.00  0.00     0.089 H 
ENDROOT
TORSDOF 15
ENDMDL
MODEL 7
REMARK VINA RESULT:      -6.0      3.238      7.034
REMARK  0 active torsions:
REMARK  status: ('A' for Active; 'I' for Inactive)
REMARK       I    between atoms: C10_1  and  O15_19 
REMARK       I    between atoms: C7_2  and  O3_5 
REMARK       I    between atoms: C1_3  and  O3_5 
REMARK       I    between atoms: C8_4  and  N14_22 
REMARK       I    between atoms: C6_6  and  C2_9 
REMARK       I    between atoms: C6_6  and  O11_21 
REMARK       I    between atoms: O29_11  and  S20_31 
REMARK       I    between atoms: O9_13  and  C4_28 
REMARK       I    between atoms: C27_15  and  C19_29 
REMARK       I    between atoms: C17_16  and  O25_27 
REMARK       I    between atoms: S26_18  and  O18_24 
REMARK       I    between atoms: O30_20  and  S20_31 
REMARK       I    between atoms: N14_22  and  S20_31 
REMARK       I    between atoms: C12_23  and  O18_24 
REMARK       I    between atoms: O28_26  and  S20_31 
ROOT
ATOM      1  C10 H3S d 301      13.930  10.861  33.225  0.00  0.00     0.147 C 
ATOM      2  C7  H3S d 301      15.027  10.097  37.783  0.00  0.00     0.167 C 
ATOM      3  C1  H3S d 301      15.097  11.647  35.850  0.00  0.00     0.095 C 
ATOM      4  C8  H3S d 301      15.462  10.963  33.437  0.00  0.00     0.081 C 
ATOM      5  O3  H3S d 301      15.354  11.453  37.254  0.00  0.00    -0.348 OA
ATOM      6  C6  H3S d 301      12.745  12.588  36.403  0.00  0.00     0.043 C 
ATOM      7  C24 H3S d 301      14.537  11.060  40.451  0.00  0.00    -0.034 C 
ATOM      8  O34 H3S d 301      11.188  10.818  39.266  0.00  0.00    -0.642 OA
ATOM      9  C2  H3S d 301      13.533  11.573  35.534  0.00  0.00     0.089 C 
ATOM     10  O31 H3S d 301      16.062   5.922  39.242  0.00  0.00    -0.572 OA
ATOM     11  O29 H3S d 301      17.978   9.423  30.974  0.00  0.00    -0.296 OA
ATOM     12  O35 H3S d 301      11.847  12.089  41.000  0.00  0.00    -0.642 OA
ATOM     13  O9  H3S d 301      17.209  10.719  35.153  0.00  0.00    -0.391 OA
ATOM     14  O13 H3S d 301      13.686  10.116  38.422  0.00  0.00    -0.311 OA
ATOM     15  C27 H3S d 301      12.110  11.228  39.934  0.00  0.00     0.233 C 
ATOM     16  C17 H3S d 301      15.979  10.605  40.123  0.00  0.00     0.086 C 
ATOM     17  O32 H3S d 301      16.377   7.119  37.275  0.00  0.00    -0.572 OA
ATOM     18  S26 H3S d 301      16.535   7.156  38.706  0.00  0.00     0.252 S 
ATOM     19  O15 H3S d 301      13.487   9.500  33.471  0.00  0.00    -0.369 OA
ATOM     20  O30 H3S d 301      17.187  11.828  30.861  0.00  0.00    -0.296 OA
ATOM     21  O11 H3S d 301      12.988  13.943  35.985  0.00  0.00    -0.398 OA
ATOM     22  N14 H3S d 301      16.133  10.020  32.553  0.00  0.00    -0.210 NA
ATOM     23  C12 H3S d 301      16.063   9.627  38.875  0.00  0.00     0.135 C 
ATOM     24  O18 H3S d 301      15.685   8.298  39.331  0.00  0.00    -0.244 OA
ATOM     25  O33 H3S d 301      18.138   7.331  39.100  0.00  0.00    -0.572 OA
ATOM     26  O28 H3S d 301      18.514  10.811  32.752  0.00  0.00    -0.296 OA
ATOM     27  O25 H3S d 301      16.786  11.764  39.871  0.00  0.00    -0.389 OA
ATOM     28  C4  H3S d 301      15.796  10.647  34.911  0.00  0.00     0.083 C 
ATOM     29  C19 H3S d 301      13.484  10.800  39.608  0.00  0.00     0.147 C 
ATOM     30  O5  H3S d 301      13.223  11.787  34.117  0.00  0.00    -0.350 OA
ATOM     31  S20 H3S d 301      17.512  10.491  31.790  0.00  0.00     0.156 S 
ATOM     32  H   H3S d 301      13.708  11.127  32.213  0.00  0.00     0.131 H 
ATOM     33  H   H3S d 301      15.055   9.422  36.953  0.00  0.00     0.134 H 
ATOM     34  H   H3S d 301      15.501  12.618  35.655  0.00  0.00     0.091 H 
ATOM     35  H   H3S d 301      15.798  11.953  33.210  0.00  0.00     0.076 H 
ATOM     36  H   H3S d 301      13.048  12.480  37.424  0.00  0.00     0.078 H 
ATOM     37  H   H3S d 301      11.701  12.385  36.291  0.00  0.00     0.078 H 
ATOM     38  H   H3S d 301      14.361  11.574  41.328  0.00  0.00     0.085 H 
ATOM     39  H   H3S d 301      13.227  10.577  35.779  0.00  0.00     0.090 H 
ATOM     40  H   H3S d 301      17.301   9.199  30.317  0.00  0.00     0.231 HD
ATOM     41  H   H3S d 301      17.388  10.516  36.084  0.00  0.00     0.210 HD
ATOM     42  H   H3S d 301      16.336  10.056  40.970  0.00  0.00     0.093 H 
ATOM     43  H   H3S d 301      13.687   9.256  34.388  0.00  0.00     0.212 HD
ATOM     44  H   H3S d 301      16.506  11.609  30.207  0.00  0.00     0.231 HD
ATOM     45  H   H3S d 301      13.933  14.147  36.080  0.00  0.00     0.209 HD
ATOM     46  H   H3S d 301      15.464   9.761  31.829  0.00  0.00     0.140 HD
ATOM     47  H   H3S d 301      17.050   9.627  38.462  0.00  0.00     0.097 H 
ATOM     48  H   H3S d 301      19.324  11.088  32.296  0.00  0.00     0.231 HD
ATOM     49  H   H3S d 301      16.438  12.238  39.100  0.00  0.00     0.210 HD
ATOM     50  H   H3S d 301      15.451   9.652  35.106  0.00  0.00     0.089 H 
ENDROOT
TORSDOF 15
ENDMDL
MODEL 8
REMARK VINA RESULT:      -6.0      2.760      3.700
REMARK  0 active torsions:
REMARK  status: ('A' for Active; 'I' for Inactive)
REMARK       I    between atoms: C10_1  and  O15_19 
REMARK       I    between atoms: C7_2  and  O3_5 
REMARK       I    between atoms: C1_3  and  O3_5 
REMARK       I    between atoms: C8_4  and  N14_22 
REMARK       I    between atoms: C6_6  and  C2_9 
REMARK       I    between atoms: C6_6  and  O11_21 
REMARK       I    between atoms: O29_11  and  S20_31 
REMARK       I    between atoms: O9_13  and  C4_28 
REMARK       I    between atoms: C27_15  and  C19_29 
REMARK       I    between atoms: C17_16  and  O25_27 
REMARK       I    between atoms: S26_18  and  O18_24 
REMARK       I    between atoms: O30_20  and  S20_31 
REMARK       I    between atoms: N14_22  and  S20_31 
REMARK       I    between atoms: C12_23  and  O18_24 
REMARK       I    between atoms: O28_26  and  S20_31 
ROOT
ATOM      1  C10 H3S d 301      17.051  12.044  34.805  0.00  0.00     0.147 C 
ATOM      2  C7  H3S d 301      17.979   8.065  32.382  0.00  0.00     0.167 C 
ATOM      3  C1  H3S d 301      16.813  10.252  32.438  0.00  0.00     0.095 C 
ATOM      4  C8  H3S d 301      15.737  11.285  34.488  0.00  0.00     0.081 C 
ATOM      5  O3  H3S d 301      17.160   9.087  31.665  0.00  0.00    -0.348 OA
ATOM      6  C6  H3S d 301      18.897  11.492  31.522  0.00  0.00     0.043 C 
ATOM      7  C24 H3S d 301      19.196   7.086  29.964  0.00  0.00    -0.034 C 
ATOM      8  O34 H3S d 301      21.799   9.214  31.135  0.00  0.00    -0.642 OA
ATOM      9  C2  H3S d 301      18.108  11.111  32.803  0.00  0.00     0.089 C 
ATOM     10  O31 H3S d 301      18.611   4.129  34.557  0.00  0.00    -0.572 OA
ATOM     11  O29 H3S d 301      12.927  10.883  37.077  0.00  0.00    -0.296 OA
ATOM     12  O35 H3S d 301      21.560   8.532  29.006  0.00  0.00    -0.642 OA
ATOM     13  O9  H3S d 301      14.884   9.222  33.453  0.00  0.00    -0.391 OA
ATOM     14  O13 H3S d 301      19.416   8.247  32.046  0.00  0.00    -0.311 OA
ATOM     15  C27 H3S d 301      21.129   8.607  30.330  0.00  0.00     0.233 C 
ATOM     16  C17 H3S d 301      17.892   6.391  30.425  0.00  0.00     0.086 C 
ATOM     17  O32 H3S d 301      17.297   6.017  34.888  0.00  0.00    -0.572 OA
ATOM     18  S26 H3S d 301      17.688   5.017  33.929  0.00  0.00     0.252 S 
ATOM     19  O15 H3S d 301      17.868  11.260  35.714  0.00  0.00    -0.369 OA
ATOM     20  O30 H3S d 301      13.012  12.753  35.370  0.00  0.00    -0.296 OA
ATOM     21  O11 H3S d 301      18.196  12.476  30.741  0.00  0.00    -0.398 OA
ATOM     22  N14 H3S d 301      15.030  11.010  35.730  0.00  0.00    -0.210 NA
ATOM     23  C12 H3S d 301      17.580   6.597  31.968  0.00  0.00     0.135 C 
ATOM     24  O18 H3S d 301      18.410   5.664  32.713  0.00  0.00    -0.244 OA
ATOM     25  O33 H3S d 301      16.363   4.149  33.435  0.00  0.00    -0.572 OA
ATOM     26  O28 H3S d 301      12.786  10.296  34.839  0.00  0.00    -0.296 OA
ATOM     27  O25 H3S d 301      16.797   6.897  29.649  0.00  0.00    -0.389 OA
ATOM     28  C4  H3S d 301      16.073   9.966  33.758  0.00  0.00     0.083 C 
ATOM     29  C19 H3S d 301      19.880   7.958  30.775  0.00  0.00     0.147 C 
ATOM     30  O5  H3S d 301      17.798  12.321  33.572  0.00  0.00    -0.350 OA
ATOM     31  S20 H3S d 301      13.395  11.189  35.770  0.00  0.00     0.156 S 
ATOM     32  H   H3S d 301      16.802  12.976  35.268  0.00  0.00     0.131 H 
ATOM     33  H   H3S d 301      17.802   8.201  33.428  0.00  0.00     0.134 H 
ATOM     34  H   H3S d 301      16.144  10.785  31.796  0.00  0.00     0.091 H 
ATOM     35  H   H3S d 301      15.113  11.881  33.856  0.00  0.00     0.076 H 
ATOM     36  H   H3S d 301      19.039  10.613  30.927  0.00  0.00     0.078 H 
ATOM     37  H   H3S d 301      19.837  11.908  31.819  0.00  0.00     0.078 H 
ATOM     38  H   H3S d 301      19.562   6.889  29.019  0.00  0.00     0.085 H 
ATOM     39  H   H3S d 301      18.714  10.486  33.426  0.00  0.00     0.090 H 
ATOM     40  H   H3S d 301      13.337  11.487  37.717  0.00  0.00     0.231 HD
ATOM     41  H   H3S d 301      15.125   8.401  32.996  0.00  0.00     0.210 HD
ATOM     42  H   H3S d 301      18.026   5.340  30.274  0.00  0.00     0.093 H 
ATOM     43  H   H3S d 301      18.095  10.414  35.297  0.00  0.00     0.212 HD
ATOM     44  H   H3S d 301      13.426  13.360  36.003  0.00  0.00     0.231 HD
ATOM     45  H   H3S d 301      17.339  12.116  30.462  0.00  0.00     0.209 HD
ATOM     46  H   H3S d 301      15.417  11.633  36.439  0.00  0.00     0.140 HD
ATOM     47  H   H3S d 301      16.541   6.435  32.168  0.00  0.00     0.097 H 
ATOM     48  H   H3S d 301      11.823  10.407  34.867  0.00  0.00     0.231 HD
ATOM     49  H   H3S d 301      16.702   7.849  29.807  0.00  0.00     0.210 HD
ATOM     50  H   H3S d 301      16.694   9.393  34.414  0.00  0.00     0.089 H 
ENDROOT
TORSDOF 15
ENDMDL
MODEL 9
REMARK VINA RESULT:      -6.0      3.032      7.578
REMARK  0 active torsions:
REMARK  status: ('A' for Active; 'I' for Inactive)
REMARK       I    between atoms: C10_1  and  O15_19 
REMARK       I    between atoms: C7_2  and  O3_5 
REMARK       I    between atoms: C1_3  and  O3_5 
REMARK       I    between atoms: C8_4  and  N14_22 
REMARK       I    between atoms: C6_6  and  C2_9 
REMARK       I    between atoms: C6_6  and  O11_21 
REMARK       I    between atoms: O29_11  and  S20_31 
REMARK       I    between atoms: O9_13  and  C4_28 
REMARK       I    between atoms: C27_15  and  C19_29 
REMARK       I    between atoms: C17_16  and  O25_27 
REMARK       I    between atoms: S26_18  and  O18_24 
REMARK       I    between atoms: O30_20  and  S20_31 
REMARK       I    between atoms: N14_22  and  S20_31 
REMARK       I    between atoms: C12_23  and  O18_24 
REMARK       I    between atoms: O28_26  and  S20_31 
ROOT
ATOM      1  C10 H3S d 301      14.458  10.399  33.165  0.00  0.00     0.147 C 
ATOM      2  C7  H3S d 301      13.661  11.218  37.776  0.00  0.00     0.167 C 
ATOM      3  C1  H3S d 301      15.042  11.707  35.776  0.00  0.00     0.095 C 
ATOM      4  C8  H3S d 301      15.703  10.018  34.006  0.00  0.00     0.081 C 
ATOM      5  O3  H3S d 301      14.751  12.023  37.152  0.00  0.00    -0.348 OA
ATOM      6  C6  H3S d 301      13.418  13.571  34.996  0.00  0.00     0.043 C 
ATOM      7  C24 H3S d 301      12.962  13.290  39.648  0.00  0.00    -0.034 C 
ATOM      8  O34 H3S d 301      10.438  13.814  37.191  0.00  0.00    -0.642 OA
ATOM      9  C2  H3S d 301      13.815  12.080  34.826  0.00  0.00     0.089 C 
ATOM     10  O31 H3S d 301      12.027   7.937  40.457  0.00  0.00    -0.572 OA
ATOM     11  O29 H3S d 301      17.719   6.815  33.342  0.00  0.00    -0.296 OA
ATOM     12  O35 H3S d 301      11.104  15.348  38.693  0.00  0.00    -0.642 OA
ATOM     13  O9  H3S d 301      16.519   9.881  36.323  0.00  0.00    -0.391 OA
ATOM     14  O13 H3S d 301      12.385  11.979  37.729  0.00  0.00    -0.311 OA
ATOM     15  C27 H3S d 301      11.204  14.097  38.085  0.00  0.00     0.233 C 
ATOM     16  C17 H3S d 301      14.014  12.254  40.109  0.00  0.00     0.086 C 
ATOM     17  O32 H3S d 301      13.445   8.026  38.618  0.00  0.00    -0.572 OA
ATOM     18  S26 H3S d 301      13.179   8.583  39.919  0.00  0.00     0.252 S 
ATOM     19  O15 H3S d 301      13.351   9.518  33.494  0.00  0.00    -0.369 OA
ATOM     20  O30 H3S d 301      18.290   9.071  32.341  0.00  0.00    -0.296 OA
ATOM     21  O11 H3S d 301      14.407  14.449  34.431  0.00  0.00    -0.398 OA
ATOM     22  N14 H3S d 301      16.044   8.625  33.754  0.00  0.00    -0.210 NA
ATOM     23  C12 H3S d 301      13.962  10.895  39.289  0.00  0.00     0.135 C 
ATOM     24  O18 H3S d 301      12.865  10.103  39.821  0.00  0.00    -0.244 OA
ATOM     25  O33 H3S d 301      14.466   8.311  40.932  0.00  0.00    -0.572 OA
ATOM     26  O28 H3S d 301      18.330   8.510  34.801  0.00  0.00    -0.296 OA
ATOM     27  O25 H3S d 301      15.321  12.832  39.982  0.00  0.00    -0.389 OA
ATOM     28  C4  H3S d 301      15.394  10.232  35.503  0.00  0.00     0.083 C 
ATOM     29  C19 H3S d 301      12.214  13.109  38.510  0.00  0.00     0.147 C 
ATOM     30  O5  H3S d 301      14.076  11.795  33.411  0.00  0.00    -0.350 OA
ATOM     31  S20 H3S d 301      17.628   8.211  33.596  0.00  0.00     0.156 S 
ATOM     32  H   H3S d 301      14.700  10.291  32.128  0.00  0.00     0.131 H 
ATOM     33  H   H3S d 301      13.591  10.304  37.224  0.00  0.00     0.134 H 
ATOM     34  H   H3S d 301      15.909  12.296  35.564  0.00  0.00     0.091 H 
ATOM     35  H   H3S d 301      16.533  10.634  33.731  0.00  0.00     0.076 H 
ATOM     36  H   H3S d 301      13.318  13.787  36.039  0.00  0.00     0.078 H 
ATOM     37  H   H3S d 301      12.494  13.732  34.482  0.00  0.00     0.078 H 
ATOM     38  H   H3S d 301      12.817  14.142  40.212  0.00  0.00     0.085 H 
ATOM     39  H   H3S d 301      13.002  11.455  35.130  0.00  0.00     0.090 H 
ATOM     40  H   H3S d 301      17.244   6.604  32.523  0.00  0.00     0.231 HD
ATOM     41  H   H3S d 301      16.296  10.026  37.255  0.00  0.00     0.210 HD
ATOM     42  H   H3S d 301      13.791  12.010  41.126  0.00  0.00     0.093 H 
ATOM     43  H   H3S d 301      13.129   9.614  34.433  0.00  0.00     0.212 HD
ATOM     44  H   H3S d 301      17.813   8.868  31.522  0.00  0.00     0.231 HD
ATOM     45  H   H3S d 301      15.255  14.317  34.885  0.00  0.00     0.209 HD
ATOM     46  H   H3S d 301      15.576   8.354  32.889  0.00  0.00     0.140 HD
ATOM     47  H   H3S d 301      14.891  10.370  39.369  0.00  0.00     0.097 H 
ATOM     48  H   H3S d 301      19.262   8.264  34.702  0.00  0.00     0.231 HD
ATOM     49  H   H3S d 301      15.493  13.042  39.051  0.00  0.00     0.210 HD
ATOM     50  H   H3S d 301      14.564   9.602  35.746  0.00  0.00     0.089 H 
ENDROOT
TORSDOF 15
ENDMDL
MODEL 10
REMARK VINA RESULT:      -6.0      2.567      5.016
REMARK  0 active torsions:
REMARK  status: ('A' for Active; 'I' for Inactive)
REMARK       I    between atoms: C10_1  and  O15_19 
REMARK       I    between atoms: C7_2  and  O3_5 
REMARK       I    between atoms: C1_3  and  O3_5 
REMARK       I    between atoms: C8_4  and  N14_22 
REMARK       I    between atoms: C6_6  and  C2_9 
REMARK       I    between atoms: C6_6  and  O11_21 
REMARK       I    between atoms: O29_11  and  S20_31 
REMARK       I    between atoms: O9_13  and  C4_28 
REMARK       I    between atoms: C27_15  and  C19_29 
REMARK       I    between atoms: C17_16  and  O25_27 
REMARK       I    between atoms: S26_18  and  O18_24 
REMARK       I    between atoms: O30_20  and  S20_31 
REMARK       I    between atoms: N14_22  and  S20_31 
REMARK       I    between atoms: C12_23  and  O18_24 
REMARK       I    between atoms: O28_26  and  S20_31 
ROOT
ATOM      1  C10 H3S d 301      14.772   9.032  37.120  0.00  0.00     0.147 C 
ATOM      2  C7  H3S d 301      18.351   6.456  35.352  0.00  0.00     0.167 C 
ATOM      3  C1  H3S d 301      17.430   8.711  35.814  0.00  0.00     0.095 C 
ATOM      4  C8  H3S d 301      14.988   9.362  35.621  0.00  0.00     0.081 C 
ATOM      5  O3  H3S d 301      18.553   7.935  35.355  0.00  0.00    -0.348 OA
ATOM      6  C6  H3S d 301      18.404   8.718  38.216  0.00  0.00     0.043 C 
ATOM      7  C24 H3S d 301      21.153   5.892  35.688  0.00  0.00    -0.034 C 
ATOM      8  O34 H3S d 301      20.045   5.498  39.050  0.00  0.00    -0.642 OA
ATOM      9  C2  H3S d 301      17.138   8.447  37.361  0.00  0.00     0.089 C 
ATOM     10  O31 H3S d 301      17.554   2.447  33.373  0.00  0.00    -0.572 OA
ATOM     11  O29 H3S d 301      12.054   9.795  33.176  0.00  0.00    -0.296 OA
ATOM     12  O35 H3S d 301      22.172   5.900  38.438  0.00  0.00    -0.642 OA
ATOM     13  O9  H3S d 301      16.339   8.730  33.664  0.00  0.00    -0.391 OA
ATOM     14  O13 H3S d 301      18.933   5.866  36.585  0.00  0.00    -0.311 OA
ATOM     15  C27 H3S d 301      20.817   5.735  38.147  0.00  0.00     0.233 C 
ATOM     16  C17 H3S d 301      20.626   5.986  34.237  0.00  0.00     0.086 C 
ATOM     17  O32 H3S d 301      16.427   4.473  33.533  0.00  0.00    -0.572 OA
ATOM     18  S26 H3S d 301      17.688   3.857  33.212  0.00  0.00     0.252 S 
ATOM     19  O15 H3S d 301      14.323   7.658  37.264  0.00  0.00    -0.369 OA
ATOM     20  O30 H3S d 301      13.148  11.714  34.417  0.00  0.00    -0.296 OA
ATOM     21  O11 H3S d 301      18.704  10.123  38.287  0.00  0.00    -0.398 OA
ATOM     22  N14 H3S d 301      13.746   9.134  34.895  0.00  0.00    -0.210 NA
ATOM     23  C12 H3S d 301      19.057   5.770  34.121  0.00  0.00     0.135 C 
ATOM     24  O18 H3S d 301      18.805   4.339  34.181  0.00  0.00    -0.244 OA
ATOM     25  O33 H3S d 301      18.097   4.179  31.636  0.00  0.00    -0.572 OA
ATOM     26  O28 H3S d 301      14.278  10.248  32.702  0.00  0.00    -0.296 OA
ATOM     27  O25 H3S d 301      20.966   7.273  33.701  0.00  0.00    -0.389 OA
ATOM     28  C4  H3S d 301      16.111   8.466  35.056  0.00  0.00     0.083 C 
ATOM     29  C19 H3S d 301      20.305   5.836  36.767  0.00  0.00     0.147 C 
ATOM     30  O5  H3S d 301      16.014   9.235  37.877  0.00  0.00    -0.350 OA
ATOM     31  S20 H3S d 301      13.295  10.208  33.734  0.00  0.00     0.156 S 
ATOM     32  H   H3S d 301      14.025   9.691  37.510  0.00  0.00     0.131 H 
ATOM     33  H   H3S d 301      17.296   6.286  35.297  0.00  0.00     0.134 H 
ATOM     34  H   H3S d 301      17.732   9.720  35.628  0.00  0.00     0.091 H 
ATOM     35  H   H3S d 301      15.273  10.387  35.509  0.00  0.00     0.076 H 
ATOM     36  H   H3S d 301      19.236   8.207  37.777  0.00  0.00     0.078 H 
ATOM     37  H   H3S d 301      18.220   8.363  39.209  0.00  0.00     0.078 H 
ATOM     38  H   H3S d 301      22.172   5.871  35.851  0.00  0.00     0.085 H 
ATOM     39  H   H3S d 301      16.865   7.415  37.440  0.00  0.00     0.090 H 
ATOM     40  H   H3S d 301      11.380   9.766  33.873  0.00  0.00     0.231 HD
ATOM     41  H   H3S d 301      17.048   8.155  33.338  0.00  0.00     0.210 HD
ATOM     42  H   H3S d 301      21.088   5.197  33.682  0.00  0.00     0.093 H 
ATOM     43  H   H3S d 301      14.998   7.059  36.911  0.00  0.00     0.212 HD
ATOM     44  H   H3S d 301      12.480  11.687  35.119  0.00  0.00     0.231 HD
ATOM     45  H   H3S d 301      18.874  10.463  37.395  0.00  0.00     0.209 HD
ATOM     46  H   H3S d 301      12.996   9.108  35.586  0.00  0.00     0.140 HD
ATOM     47  H   H3S d 301      18.684   6.189  33.209  0.00  0.00     0.097 H 
ATOM     48  H   H3S d 301      14.007  10.883  32.020  0.00  0.00     0.231 HD
ATOM     49  H   H3S d 301      20.532   7.966  34.224  0.00  0.00     0.210 HD
ATOM     50  H   H3S d 301      15.796   7.451  35.180  0.00  0.00     0.089 H 
ENDROOT
TORSDOF 15
ENDMDL
MODEL 11
REMARK VINA RESULT:      -5.9      1.987      2.436
REMARK  0 active torsions:
REMARK  status: ('A' for Active; 'I' for Inactive)
REMARK       I    between atoms: C10_1  and  O15_19 
REMARK       I    between atoms: C7_2  and  O3_5 
REMARK       I    between atoms: C1_3  and  O3_5 
REMARK       I    between atoms: C8_4  and  N14_22 
REMARK       I    between atoms: C6_6  and  C2_9 
REMARK       I    between atoms: C6_6  and  O11_21 
REMARK       I    between atoms: O29_11  and  S20_31 
REMARK       I    between atoms: O9_13  and  C4_28 
REMARK       I    between atoms: C27_15  and  C19_29 
REMARK       I    between atoms: C17_16  and  O25_27 
REMARK       I    between atoms: S26_18  and  O18_24 
REMARK       I    between atoms: O30_20  and  S20_31 
REMARK       I    between atoms: N14_22  and  S20_31 
REMARK       I    between atoms: C12_23  and  O18_24 
REMARK       I    between atoms: O28_26  and  S20_31 
ROOT
ATOM      1  C10 H3S d 301      14.083  11.320  36.891  0.00  0.00     0.147 C 
ATOM      2  C7  H3S d 301      17.725   9.570  34.392  0.00  0.00     0.167 C 
ATOM      3  C1  H3S d 301      15.308   9.442  34.930  0.00  0.00     0.095 C 
ATOM      4  C8  H3S d 301      14.298   9.821  37.224  0.00  0.00     0.081 C 
ATOM      5  O3  H3S d 301      16.391   8.965  34.108  0.00  0.00    -0.348 OA
ATOM      6  C6  H3S d 301      14.721  11.222  33.139  0.00  0.00     0.043 C 
ATOM      7  C24 H3S d 301      18.678   9.168  31.706  0.00  0.00    -0.034 C 
ATOM      8  O34 H3S d 301      17.757  12.602  31.517  0.00  0.00    -0.642 OA
ATOM      9  C2  H3S d 301      15.003  10.984  34.646  0.00  0.00     0.089 C 
ATOM     10  O31 H3S d 301      21.925   9.573  36.119  0.00  0.00    -0.572 OA
ATOM     11  O29 H3S d 301      14.116   8.475  40.818  0.00  0.00    -0.296 OA
ATOM     12  O35 H3S d 301      17.987  11.236  29.745  0.00  0.00    -0.642 OA
ATOM     13  O9  H3S d 301      15.769   7.911  36.734  0.00  0.00    -0.391 OA
ATOM     14  O13 H3S d 301      17.990  10.675  33.434  0.00  0.00    -0.311 OA
ATOM     15  C27 H3S d 301      17.972  11.479  31.119  0.00  0.00     0.233 C 
ATOM     16  C17 H3S d 301      18.953   8.037  32.725  0.00  0.00     0.086 C 
ATOM     17  O32 H3S d 301      19.778   9.331  36.975  0.00  0.00    -0.572 OA
ATOM     18  S26 H3S d 301      20.694   8.871  35.963  0.00  0.00     0.252 S 
ATOM     19  O15 H3S d 301      15.226  12.095  37.342  0.00  0.00    -0.369 OA
ATOM     20  O30 H3S d 301      12.148   8.501  39.223  0.00  0.00    -0.296 OA
ATOM     21  O11 H3S d 301      13.451  10.671  32.745  0.00  0.00    -0.398 OA
ATOM     22  N14 H3S d 301      14.503   9.673  38.657  0.00  0.00    -0.210 NA
ATOM     23  C12 H3S d 301      18.891   8.520  34.236  0.00  0.00     0.135 C 
ATOM     24  O18 H3S d 301      20.151   9.180  34.539  0.00  0.00    -0.244 OA
ATOM     25  O33 H3S d 301      20.978   7.246  36.146  0.00  0.00    -0.572 OA
ATOM     26  O28 H3S d 301      14.274   7.178  38.903  0.00  0.00    -0.296 OA
ATOM     27  O25 H3S d 301      17.996   6.987  32.525  0.00  0.00    -0.389 OA
ATOM     28  C4  H3S d 301      15.525   9.296  36.448  0.00  0.00     0.083 C 
ATOM     29  C19 H3S d 301      18.222  10.403  32.097  0.00  0.00     0.147 C 
ATOM     30  O5  H3S d 301      13.891  11.506  35.448  0.00  0.00    -0.350 OA
ATOM     31  S20 H3S d 301      13.792   8.410  39.436  0.00  0.00     0.156 S 
ATOM     32  H   H3S d 301      13.204  11.659  37.398  0.00  0.00     0.131 H 
ATOM     33  H   H3S d 301      17.698   9.925  35.401  0.00  0.00     0.134 H 
ATOM     34  H   H3S d 301      14.489   8.812  34.654  0.00  0.00     0.091 H 
ATOM     35  H   H3S d 301      13.437   9.256  36.935  0.00  0.00     0.076 H 
ATOM     36  H   H3S d 301      15.494  10.758  32.563  0.00  0.00     0.078 H 
ATOM     37  H   H3S d 301      14.697  12.277  32.966  0.00  0.00     0.078 H 
ATOM     38  H   H3S d 301      18.840   8.989  30.703  0.00  0.00     0.085 H 
ATOM     39  H   H3S d 301      15.882  11.519  34.936  0.00  0.00     0.090 H 
ATOM     40  H   H3S d 301      13.791   9.311  41.188  0.00  0.00     0.231 HD
ATOM     41  H   H3S d 301      16.543   7.609  36.235  0.00  0.00     0.210 HD
ATOM     42  H   H3S d 301      19.952   7.694  32.551  0.00  0.00     0.093 H 
ATOM     43  H   H3S d 301      16.025  11.789  36.885  0.00  0.00     0.212 HD
ATOM     44  H   H3S d 301      11.820   9.338  39.585  0.00  0.00     0.231 HD
ATOM     45  H   H3S d 301      13.454   9.712  32.895  0.00  0.00     0.209 HD
ATOM     46  H   H3S d 301      14.163  10.527  39.099  0.00  0.00     0.140 HD
ATOM     47  H   H3S d 301      18.722   7.691  34.891  0.00  0.00     0.097 H 
ATOM     48  H   H3S d 301      13.850   6.438  39.366  0.00  0.00     0.231 HD
ATOM     49  H   H3S d 301      17.103   7.329  32.689  0.00  0.00     0.210 HD
ATOM     50  H   H3S d 301      16.367   9.879  36.760  0.00  0.00     0.089 H 
ENDROOT
TORSDOF 15
ENDMDL
MODEL 12
REMARK VINA RESULT:      -5.9      3.623      7.262
REMARK  0 active torsions:
REMARK  status: ('A' for Active; 'I' for Inactive)
REMARK       I    between atoms: C10_1  and  O15_19 
REMARK       I    between atoms: C7_2  and  O3_5 
REMARK       I    between atoms: C1_3  and  O3_5 
REMARK       I    between atoms: C8_4  and  N14_22 
REMARK       I    between atoms: C6_6  and  C2_9 
REMARK       I    between atoms: C6_6  and  O11_21 
REMARK       I    between atoms: O29_11  and  S20_31 
REMARK       I    between atoms: O9_13  and  C4_28 
REMARK       I    between atoms: C27_15  and  C19_29 
REMARK       I    between atoms: C17_16  and  O25_27 
REMARK       I    between atoms: S26_18  and  O18_24 
REMARK       I    between atoms: O30_20  and  S20_31 
REMARK       I    between atoms: N14_22  and  S20_31 
REMARK       I    between atoms: C12_23  and  O18_24 
REMARK       I    between atoms: O28_26  and  S20_31 
ROOT
ATOM      1  C10 H3S d 301      18.355  12.153  30.514  0.00  0.00     0.147 C 
ATOM      2  C7  H3S d 301      16.947   9.056  33.829  0.00  0.00     0.167 C 
ATOM      3  C1  H3S d 301      18.188  11.138  33.309  0.00  0.00     0.095 C 
ATOM      4  C8  H3S d 301      19.581  11.530  31.228  0.00  0.00     0.081 C 
ATOM      5  O3  H3S d 301      17.692  10.248  34.328  0.00  0.00    -0.348 OA
ATOM      6  C6  H3S d 301      16.041  12.577  33.508  0.00  0.00     0.043 C 
ATOM      7  C24 H3S d 301      15.364   8.822  36.222  0.00  0.00    -0.034 C 
ATOM      8  O34 H3S d 301      13.033  10.494  34.113  0.00  0.00    -0.642 OA
ATOM      9  C2  H3S d 301      16.990  11.842  32.524  0.00  0.00     0.089 C 
ATOM     10  O31 H3S d 301      16.488   4.650  32.829  0.00  0.00    -0.572 OA
ATOM     11  O29 H3S d 301      22.715  10.405  29.309  0.00  0.00    -0.296 OA
ATOM     12  O35 H3S d 301      12.942  10.469  36.359  0.00  0.00    -0.642 OA
ATOM     13  O9  H3S d 301      20.203   9.868  32.933  0.00  0.00    -0.391 OA
ATOM     14  O13 H3S d 301      15.485   9.318  33.883  0.00  0.00    -0.311 OA
ATOM     15  C27 H3S d 301      13.560  10.154  35.149  0.00  0.00     0.233 C 
ATOM     16  C17 H3S d 301      16.694   8.032  36.180  0.00  0.00     0.086 C 
ATOM     17  O32 H3S d 301      17.903   6.366  32.158  0.00  0.00    -0.572 OA
ATOM     18  S26 H3S d 301      17.343   5.690  33.298  0.00  0.00     0.252 S 
ATOM     19  O15 H3S d 301      17.647  11.131  29.764  0.00  0.00    -0.369 OA
ATOM     20  O30 H3S d 301      22.456  12.693  30.365  0.00  0.00    -0.296 OA
ATOM     21  O11 H3S d 301      16.660  13.752  34.061  0.00  0.00    -0.398 OA
ATOM     22  N14 H3S d 301      20.447  10.906  30.237  0.00  0.00    -0.210 NA
ATOM     23  C12 H3S d 301      17.230   7.777  34.707  0.00  0.00     0.135 C 
ATOM     24  O18 H3S d 301      16.480   6.660  34.153  0.00  0.00    -0.244 OA
ATOM     25  O33 H3S d 301      18.552   5.015  34.213  0.00  0.00    -0.572 OA
ATOM     26  O28 H3S d 301      22.514  10.502  31.616  0.00  0.00    -0.296 OA
ATOM     27  O25 H3S d 301      17.686   8.751  36.926  0.00  0.00    -0.389 OA
ATOM     28  C4  H3S d 301      19.097  10.481  32.253  0.00  0.00     0.083 C 
ATOM     29  C19 H3S d 301      14.834   9.412  35.101  0.00  0.00     0.147 C 
ATOM     30  O5  H3S d 301      17.450  12.774  31.489  0.00  0.00    -0.350 OA
ATOM     31  S20 H3S d 301      22.077  11.077  30.387  0.00  0.00     0.156 S 
ATOM     32  H   H3S d 301      18.700  12.910  29.841  0.00  0.00     0.131 H 
ATOM     33  H   H3S d 301      17.276   8.879  32.827  0.00  0.00     0.134 H 
ATOM     34  H   H3S d 301      18.778  11.841  33.858  0.00  0.00     0.091 H 
ATOM     35  H   H3S d 301      20.131  12.289  31.742  0.00  0.00     0.076 H 
ATOM     36  H   H3S d 301      15.785  11.911  34.305  0.00  0.00     0.078 H 
ATOM     37  H   H3S d 301      15.169  12.881  32.968  0.00  0.00     0.078 H 
ATOM     38  H   H3S d 301      14.861   8.909  37.119  0.00  0.00     0.085 H 
ATOM     39  H   H3S d 301      16.457  11.058  32.029  0.00  0.00     0.090 H 
ATOM     40  H   H3S d 301      22.422  10.791  28.468  0.00  0.00     0.231 HD
ATOM     41  H   H3S d 301      19.870   9.216  33.569  0.00  0.00     0.210 HD
ATOM     42  H   H3S d 301      16.502   7.071  36.609  0.00  0.00     0.093 H 
ATOM     43  H   H3S d 301      17.332  10.443  30.371  0.00  0.00     0.212 HD
ATOM     44  H   H3S d 301      22.158  13.084  29.529  0.00  0.00     0.231 HD
ATOM     45  H   H3S d 301      17.455  13.496  34.556  0.00  0.00     0.209 HD
ATOM     46  H   H3S d 301      20.188  11.291  29.329  0.00  0.00     0.140 HD
ATOM     47  H   H3S d 301      18.280   7.570  34.718  0.00  0.00     0.097 H 
ATOM     48  H   H3S d 301      23.475  10.606  31.699  0.00  0.00     0.231 HD
ATOM     49  H   H3S d 301      17.837   9.616  36.513  0.00  0.00     0.210 HD
ATOM     50  H   H3S d 301      18.555   9.736  31.709  0.00  0.00     0.089 H 
ENDROOT
TORSDOF 15
ENDMDL
MODEL 13
REMARK VINA RESULT:      -5.9      1.169      1.191
REMARK  0 active torsions:
REMARK  status: ('A' for Active; 'I' for Inactive)
REMARK       I    between atoms: C10_1  and  O15_19 
REMARK       I    between atoms: C7_2  and  O3_5 
REMARK       I    between atoms: C1_3  and  O3_5 
REMARK       I    between atoms: C8_4  and  N14_22 
REMARK       I    between atoms: C6_6  and  C2_9 
REMARK       I    between atoms: C6_6  and  O11_21 
REMARK       I    between atoms: O29_11  and  S20_31 
REMARK       I    between atoms: O9_13  and  C4_28 
REMARK       I    between atoms: C27_15  and  C19_29 
REMARK       I    between atoms: C17_16  and  O25_27 
REMARK       I    between atoms: S26_18  and  O18_24 
REMARK       I    between atoms: O30_20  and  S20_31 
REMARK       I    between atoms: N14_22  and  S20_31 
REMARK       I    between atoms: C12_23  and  O18_24 
REMARK       I    between atoms: O28_26  and  S20_31 
ROOT
ATOM      1  C10 H3S d 301      16.112  10.940  36.521  0.00  0.00     0.147 C 
ATOM      2  C7  H3S d 301      17.836   6.905  34.700  0.00  0.00     0.167 C 
ATOM      3  C1  H3S d 301      15.847   8.324  35.122  0.00  0.00     0.095 C 
ATOM      4  C8  H3S d 301      15.456   9.714  37.206  0.00  0.00     0.081 C 
ATOM      5  O3  H3S d 301      16.377   7.140  34.494  0.00  0.00    -0.348 OA
ATOM      6  C6  H3S d 301      16.225   9.664  32.936  0.00  0.00     0.043 C 
ATOM      7  C24 H3S d 301      18.129   5.443  32.238  0.00  0.00    -0.034 C 
ATOM      8  O34 H3S d 301      19.336   8.629  31.202  0.00  0.00    -0.642 OA
ATOM      9  C2  H3S d 301      16.458   9.647  34.470  0.00  0.00     0.089 C 
ATOM     10  O31 H3S d 301      21.413   4.855  36.603  0.00  0.00    -0.572 OA
ATOM     11  O29 H3S d 301      14.869   9.558  41.000  0.00  0.00    -0.296 OA
ATOM     12  O35 H3S d 301      18.573   7.033  29.814  0.00  0.00    -0.642 OA
ATOM     13  O9  H3S d 301      15.509   7.255  37.256  0.00  0.00    -0.391 OA
ATOM     14  O13 H3S d 301      18.597   7.406  33.527  0.00  0.00    -0.311 OA
ATOM     15  C27 H3S d 301      18.829   7.535  31.090  0.00  0.00     0.233 C 
ATOM     16  C17 H3S d 301      17.798   4.621  33.507  0.00  0.00     0.086 C 
ATOM     17  O32 H3S d 301      19.609   6.098  37.374  0.00  0.00    -0.572 OA
ATOM     18  S26 H3S d 301      19.994   4.983  36.550  0.00  0.00     0.252 S 
ATOM     19  O15 H3S d 301      17.529  10.985  36.840  0.00  0.00    -0.369 OA
ATOM     20  O30 H3S d 301      13.135  10.365  39.339  0.00  0.00    -0.296 OA
ATOM     21  O11 H3S d 301      14.840   9.881  32.613  0.00  0.00    -0.398 OA
ATOM     22  N14 H3S d 301      15.672   9.795  38.643  0.00  0.00    -0.210 NA
ATOM     23  C12 H3S d 301      18.166   5.371  34.857  0.00  0.00     0.135 C 
ATOM     24  O18 H3S d 301      19.598   5.225  35.065  0.00  0.00    -0.244 OA
ATOM     25  O33 H3S d 301      19.309   3.584  37.122  0.00  0.00    -0.572 OA
ATOM     26  O28 H3S d 301      14.075   8.026  39.453  0.00  0.00    -0.296 OA
ATOM     27  O25 H3S d 301      16.398   4.309  33.506  0.00  0.00    -0.389 OA
ATOM     28  C4  H3S d 301      16.081   8.419  36.642  0.00  0.00     0.083 C 
ATOM     29  C19 H3S d 301      18.505   6.763  32.305  0.00  0.00     0.147 C 
ATOM     30  O5  H3S d 301      15.929  10.878  35.066  0.00  0.00    -0.350 OA
ATOM     31  S20 H3S d 301      14.440   9.389  39.655  0.00  0.00     0.156 S 
ATOM     32  H   H3S d 301      15.639  11.828  36.886  0.00  0.00     0.131 H 
ATOM     33  H   H3S d 301      18.112   7.422  35.596  0.00  0.00     0.134 H 
ATOM     34  H   H3S d 301      14.793   8.243  34.957  0.00  0.00     0.091 H 
ATOM     35  H   H3S d 301      14.405   9.705  37.011  0.00  0.00     0.076 H 
ATOM     36  H   H3S d 301      16.534   8.725  32.527  0.00  0.00     0.078 H 
ATOM     37  H   H3S d 301      16.796  10.468  32.520  0.00  0.00     0.078 H 
ATOM     38  H   H3S d 301      18.066   4.987  31.315  0.00  0.00     0.085 H 
ATOM     39  H   H3S d 301      17.508   9.622  34.674  0.00  0.00     0.090 H 
ATOM     40  H   H3S d 301      15.120  10.484  41.145  0.00  0.00     0.231 HD
ATOM     41  H   H3S d 301      15.919   6.459  36.884  0.00  0.00     0.210 HD
ATOM     42  H   H3S d 301      18.397   3.735  33.472  0.00  0.00     0.093 H 
ATOM     43  H   H3S d 301      17.960  10.182  36.510  0.00  0.00     0.212 HD
ATOM     44  H   H3S d 301      13.384  11.292  39.476  0.00  0.00     0.231 HD
ATOM     45  H   H3S d 301      14.305   9.161  32.983  0.00  0.00     0.209 HD
ATOM     46  H   H3S d 301      15.926  10.760  38.854  0.00  0.00     0.140 HD
ATOM     47  H   H3S d 301      17.613   4.964  35.678  0.00  0.00     0.097 H 
ATOM     48  H   H3S d 301      13.348   7.793  40.051  0.00  0.00     0.231 HD
ATOM     49  H   H3S d 301      15.884   5.131  33.537  0.00  0.00     0.210 HD
ATOM     50  H   H3S d 301      17.129   8.457  36.854  0.00  0.00     0.089 H 
ENDROOT
TORSDOF 15
ENDMDL
MODEL 14
REMARK VINA RESULT:      -5.8      2.770      5.299
REMARK  0 active torsions:
REMARK  status: ('A' for Active; 'I' for Inactive)
REMARK       I    between atoms: C10_1  and  O15_19 
REMARK       I    between atoms: C7_2  and  O3_5 
REMARK       I    between atoms: C1_3  and  O3_5 
REMARK       I    between atoms: C8_4  and  N14_22 
REMARK       I    between atoms: C6_6  and  C2_9 
REMARK       I    between atoms: C6_6  and  O11_21 
REMARK       I    between atoms: O29_11  and  S20_31 
REMARK       I    between atoms: O9_13  and  C4_28 
REMARK       I    between atoms: C27_15  and  C19_29 
REMARK       I    between atoms: C17_16  and  O25_27 
REMARK       I    between atoms: S26_18  and  O18_24 
REMARK       I    between atoms: O30_20  and  S20_31 
REMARK       I    between atoms: N14_22  and  S20_31 
REMARK       I    between atoms: C12_23  and  O18_24 
REMARK       I    between atoms: O28_26  and  S20_31 
ROOT
ATOM      1  C10 H3S d 301      15.691   8.706  36.977  0.00  0.00     0.147 C 
ATOM      2  C7  H3S d 301      18.518   5.479  34.935  0.00  0.00     0.167 C 
ATOM      3  C1  H3S d 301      18.070   7.875  35.387  0.00  0.00     0.095 C 
ATOM      4  C8  H3S d 301      15.774   8.949  35.448  0.00  0.00     0.081 C 
ATOM      5  O3  H3S d 301      18.974   6.897  34.841  0.00  0.00    -0.348 OA
ATOM      6  C6  H3S d 301      19.320   7.776  37.657  0.00  0.00     0.043 C 
ATOM      7  C24 H3S d 301      21.198   4.431  34.971  0.00  0.00    -0.034 C 
ATOM      8  O34 H3S d 301      20.463   4.338  38.454  0.00  0.00    -0.642 OA
ATOM      9  C2  H3S d 301      17.930   7.712  36.970  0.00  0.00     0.089 C 
ATOM     10  O31 H3S d 301      16.794   1.623  33.267  0.00  0.00    -0.572 OA
ATOM     11  O29 H3S d 301      12.682   9.831  33.344  0.00  0.00    -0.296 OA
ATOM     12  O35 H3S d 301      22.534   4.334  37.579  0.00  0.00    -0.642 OA
ATOM     13  O9  H3S d 301      16.742   8.028  33.381  0.00  0.00    -0.391 OA
ATOM     14  O13 H3S d 301      19.136   4.829  36.120  0.00  0.00    -0.311 OA
ATOM     15  C27 H3S d 301      21.147   4.408  37.457  0.00  0.00     0.233 C 
ATOM     16  C17 H3S d 301      20.520   4.576  33.588  0.00  0.00     0.086 C 
ATOM     17  O32 H3S d 301      16.067   3.822  33.455  0.00  0.00    -0.572 OA
ATOM     18  S26 H3S d 301      17.152   2.981  33.021  0.00  0.00     0.252 S 
ATOM     19  O15 H3S d 301      15.030   7.440  37.241  0.00  0.00    -0.369 OA
ATOM     20  O30 H3S d 301      14.240  11.557  34.351  0.00  0.00    -0.296 OA
ATOM     21  O11 H3S d 301      19.867   9.106  37.622  0.00  0.00    -0.398 OA
ATOM     22  N14 H3S d 301      14.432   8.926  34.885  0.00  0.00    -0.210 NA
ATOM     23  C12 H3S d 301      18.935   4.642  33.666  0.00  0.00     0.135 C 
ATOM     24  O18 H3S d 301      18.447   3.282  33.828  0.00  0.00    -0.244 OA
ATOM     25  O33 H3S d 301      17.412   3.179  31.394  0.00  0.00    -0.572 OA
ATOM     26  O28 H3S d 301      14.874   9.863  32.591  0.00  0.00    -0.296 OA
ATOM     27  O25 H3S d 301      21.011   5.765  32.952  0.00  0.00    -0.389 OA
ATOM     28  C4  H3S d 301      16.645   7.849  34.802  0.00  0.00     0.083 C 
ATOM     29  C19 H3S d 301      20.493   4.559  36.142  0.00  0.00     0.147 C 
ATOM     30  O5  H3S d 301      17.033   8.703  37.573  0.00  0.00    -0.350 OA
ATOM     31  S20 H3S d 301      14.035  10.030  33.732  0.00  0.00     0.156 S 
ATOM     32  H   H3S d 301      15.125   9.499  37.417  0.00  0.00     0.131 H 
ATOM     33  H   H3S d 301      17.451   5.499  35.013  0.00  0.00     0.134 H 
ATOM     34  H   H3S d 301      18.519   8.808  35.117  0.00  0.00     0.091 H 
ATOM     35  H   H3S d 301      16.218   9.902  35.252  0.00  0.00     0.076 H 
ATOM     36  H   H3S d 301      19.988   7.112  37.149  0.00  0.00     0.078 H 
ATOM     37  H   H3S d 301      19.200   7.489  38.681  0.00  0.00     0.078 H 
ATOM     38  H   H3S d 301      22.210   4.232  35.014  0.00  0.00     0.085 H 
ATOM     39  H   H3S d 301      17.492   6.749  37.132  0.00  0.00     0.090 H 
ATOM     40  H   H3S d 301      12.105   9.943  34.115  0.00  0.00     0.231 HD
ATOM     41  H   H3S d 301      17.293   7.326  33.004  0.00  0.00     0.210 HD
ATOM     42  H   H3S d 301      20.765   3.701  33.023  0.00  0.00     0.093 H 
ATOM     43  H   H3S d 301      15.541   6.718  36.842  0.00  0.00     0.212 HD
ATOM     44  H   H3S d 301      13.669  11.671  35.126  0.00  0.00     0.231 HD
ATOM     45  H   H3S d 301      19.982   9.384  36.699  0.00  0.00     0.209 HD
ATOM     46  H   H3S d 301      13.780   9.055  35.659  0.00  0.00     0.140 HD
ATOM     47  H   H3S d 301      18.532   5.095  32.784  0.00  0.00     0.097 H 
ATOM     48  H   H3S d 301      14.636  10.516  31.915  0.00  0.00     0.231 HD
ATOM     49  H   H3S d 301      20.773   6.539  33.487  0.00  0.00     0.210 HD
ATOM     50  H   H3S d 301      16.175   6.911  35.013  0.00  0.00     0.089 H 
ENDROOT
TORSDOF 15
ENDMDL
MODEL 15
REMARK VINA RESULT:      -5.8      2.072      3.093
REMARK  0 active torsions:
REMARK  status: ('A' for Active; 'I' for Inactive)
REMARK       I    between atoms: C10_1  and  O15_19 
REMARK       I    between atoms: C7_2  and  O3_5 
REMARK       I    between atoms: C1_3  and  O3_5 
REMARK       I    between atoms: C8_4  and  N14_22 
REMARK       I    between atoms: C6_6  and  C2_9 
REMARK       I    between atoms: C6_6  and  O11_21 
REMARK       I    between atoms: O29_11  and  S20_31 
REMARK       I    between atoms: O9_13  and  C4_28 
REMARK       I    between atoms: C27_15  and  C19_29 
REMARK       I    between atoms: C17_16  and  O25_27 
REMARK       I    between atoms: S26_18  and  O18_24 
REMARK       I    between atoms: O30_20  and  S20_31 
REMARK       I    between atoms: N14_22  and  S20_31 
REMARK       I    between atoms: C12_23  and  O18_24 
REMARK       I    between atoms: O28_26  and  S20_31 
ROOT
ATOM      1  C10 H3S d 301      16.098  11.542  39.024  0.00  0.00     0.147 C 
ATOM      2  C7  H3S d 301      17.169   9.526  34.859  0.00  0.00     0.167 C 
ATOM      3  C1  H3S d 301      15.671  11.047  36.119  0.00  0.00     0.095 C 
ATOM      4  C8  H3S d 301      14.905  10.697  38.509  0.00  0.00     0.081 C 
ATOM      5  O3  H3S d 301      16.044  10.505  34.837  0.00  0.00    -0.348 OA
ATOM      6  C6  H3S d 301      17.247  13.069  35.732  0.00  0.00     0.043 C 
ATOM      7  C24 H3S d 301      17.980  10.127  32.163  0.00  0.00    -0.034 C 
ATOM      8  O34 H3S d 301      20.353  12.080  33.961  0.00  0.00    -0.642 OA
ATOM      9  C2  H3S d 301      16.840  11.949  36.726  0.00  0.00     0.089 C 
ATOM     10  O31 H3S d 301      18.958   5.354  34.703  0.00  0.00    -0.572 OA
ATOM     11  O29 H3S d 301      12.851   8.426  40.831  0.00  0.00    -0.296 OA
ATOM     12  O35 H3S d 301      19.778  12.416  31.813  0.00  0.00    -0.642 OA
ATOM     13  O9  H3S d 301      14.229   9.198  36.679  0.00  0.00    -0.391 OA
ATOM     14  O13 H3S d 301      18.441  10.212  34.511  0.00  0.00    -0.311 OA
ATOM     15  C27 H3S d 301      19.642  11.758  33.036  0.00  0.00     0.233 C 
ATOM     16  C17 H3S d 301      16.956   8.982  32.349  0.00  0.00     0.086 C 
ATOM     17  O32 H3S d 301      17.432   6.457  36.066  0.00  0.00    -0.572 OA
ATOM     18  S26 H3S d 301      17.776   6.153  34.701  0.00  0.00     0.252 S 
ATOM     19  O15 H3S d 301      17.223  10.675  39.331  0.00  0.00    -0.369 OA
ATOM     20  O30 H3S d 301      12.223  10.819  40.284  0.00  0.00    -0.296 OA
ATOM     21  O11 H3S d 301      16.227  14.077  35.623  0.00  0.00    -0.398 OA
ATOM     22  N14 H3S d 301      14.549   9.707  39.515  0.00  0.00    -0.210 NA
ATOM     23  C12 H3S d 301      16.958   8.365  33.812  0.00  0.00     0.135 C 
ATOM     24  O18 H3S d 301      18.085   7.450  33.902  0.00  0.00    -0.244 OA
ATOM     25  O33 H3S d 301      16.552   5.294  33.981  0.00  0.00    -0.572 OA
ATOM     26  O28 H3S d 301      12.330   8.919  38.626  0.00  0.00    -0.296 OA
ATOM     27  O25 H3S d 301      15.644   9.478  32.047  0.00  0.00    -0.389 OA
ATOM     28  C4  H3S d 301      15.303  10.003  37.189  0.00  0.00     0.083 C 
ATOM     29  C19 H3S d 301      18.658  10.674  33.224  0.00  0.00     0.147 C 
ATOM     30  O5  H3S d 301      16.495  12.540  38.023  0.00  0.00    -0.350 OA
ATOM     31  S20 H3S d 301      12.958   9.409  39.809  0.00  0.00     0.156 S 
ATOM     32  H   H3S d 301      15.795  12.054  39.913  0.00  0.00     0.131 H 
ATOM     33  H   H3S d 301      17.205   9.113  35.845  0.00  0.00     0.134 H 
ATOM     34  H   H3S d 301      14.793  11.618  35.902  0.00  0.00     0.091 H 
ATOM     35  H   H3S d 301      14.061  11.328  38.328  0.00  0.00     0.076 H 
ATOM     36  H   H3S d 301      17.410  12.634  34.767  0.00  0.00     0.078 H 
ATOM     37  H   H3S d 301      18.140  13.533  36.097  0.00  0.00     0.078 H 
ATOM     38  H   H3S d 301      18.159  10.490  31.214  0.00  0.00     0.085 H 
ATOM     39  H   H3S d 301      17.670  11.293  36.888  0.00  0.00     0.090 H 
ATOM     40  H   H3S d 301      13.277   8.752  41.639  0.00  0.00     0.231 HD
ATOM     41  H   H3S d 301      14.507   8.775  35.852  0.00  0.00     0.210 HD
ATOM     42  H   H3S d 301      17.239   8.195  31.682  0.00  0.00     0.093 H 
ATOM     43  H   H3S d 301      17.500  10.209  38.527  0.00  0.00     0.212 HD
ATOM     44  H   H3S d 301      12.650  11.152  41.088  0.00  0.00     0.231 HD
ATOM     45  H   H3S d 301      15.408  13.674  35.293  0.00  0.00     0.209 HD
ATOM     46  H   H3S d 301      14.964  10.011  40.396  0.00  0.00     0.140 HD
ATOM     47  H   H3S d 301      16.035   7.862  34.011  0.00  0.00     0.097 H 
ATOM     48  H   H3S d 301      11.393   8.746  38.806  0.00  0.00     0.231 HD
ATOM     49  H   H3S d 301      15.417  10.189  32.668  0.00  0.00     0.210 HD
ATOM     50  H   H3S d 301      16.146   9.379  37.403  0.00  0.00     0.089 H 
ENDROOT
TORSDOF 15
ENDMDL
MODEL 16
REMARK VINA RESULT:      -5.8      2.712      5.464
REMARK  0 active torsions:
REMARK  status: ('A' for Active; 'I' for Inactive)
REMARK       I    between atoms: C10_1  and  O15_19 
REMARK       I    between atoms: C7_2  and  O3_5 
REMARK       I    between atoms: C1_3  and  O3_5 
REMARK       I    between atoms: C8_4  and  N14_22 
REMARK       I    between atoms: C6_6  and  C2_9 
REMARK       I    between atoms: C6_6  and  O11_21 
REMARK       I    between atoms: O29_11  and  S20_31 
REMARK       I    between atoms: O9_13  and  C4_28 
REMARK       I    between atoms: C27_15  and  C19_29 
REMARK       I    between atoms: C17_16  and  O25_27 
REMARK       I    between atoms: S26_18  and  O18_24 
REMARK       I    between atoms: O30_20  and  S20_31 
REMARK       I    between atoms: N14_22  and  S20_31 
REMARK       I    between atoms: C12_23  and  O18_24 
REMARK       I    between atoms: O28_26  and  S20_31 
ROOT
ATOM      1  C10 H3S d 301      14.950   8.907  37.084  0.00  0.00     0.147 C 
ATOM      2  C7  H3S d 301      18.267   5.762  35.793  0.00  0.00     0.167 C 
ATOM      3  C1  H3S d 301      17.707   8.129  36.271  0.00  0.00     0.095 C 
ATOM      4  C8  H3S d 301      15.517   9.262  35.685  0.00  0.00     0.081 C 
ATOM      5  O3  H3S d 301      18.736   7.168  35.963  0.00  0.00    -0.348 OA
ATOM      6  C6  H3S d 301      18.167   7.822  38.804  0.00  0.00     0.043 C 
ATOM      7  C24 H3S d 301      20.792   4.635  36.594  0.00  0.00    -0.034 C 
ATOM      8  O34 H3S d 301      18.982   4.302  39.642  0.00  0.00    -0.642 OA
ATOM      9  C2  H3S d 301      17.069   7.851  37.709  0.00  0.00     0.089 C 
ATOM     10  O31 H3S d 301      17.151   2.095  33.357  0.00  0.00    -0.572 OA
ATOM     11  O29 H3S d 301      13.262  10.392  32.786  0.00  0.00    -0.296 OA
ATOM     12  O35 H3S d 301      21.225   4.302  39.475  0.00  0.00    -0.642 OA
ATOM     13  O9  H3S d 301      17.090   8.473  33.967  0.00  0.00    -0.391 OA
ATOM     14  O13 H3S d 301      18.472   5.007  37.056  0.00  0.00    -0.311 OA
ATOM     15  C27 H3S d 301      19.949   4.426  38.924  0.00  0.00     0.233 C 
ATOM     16  C17 H3S d 301      20.591   4.905  35.083  0.00  0.00     0.086 C 
ATOM     17  O32 H3S d 301      16.411   4.294  33.481  0.00  0.00    -0.572 OA
ATOM     18  S26 H3S d 301      17.574   3.457  33.347  0.00  0.00     0.252 S 
ATOM     19  O15 H3S d 301      14.233   7.645  37.020  0.00  0.00    -0.369 OA
ATOM     20  O30 H3S d 301      14.423  11.990  34.372  0.00  0.00    -0.296 OA
ATOM     21  O11 H3S d 301      18.702   9.134  39.053  0.00  0.00    -0.398 OA
ATOM     22  N14 H3S d 301      14.424   9.322  34.725  0.00  0.00    -0.210 NA
ATOM     23  C12 H3S d 301      19.065   5.011  34.659  0.00  0.00     0.135 C 
ATOM     24  O18 H3S d 301      18.545   3.657  34.546  0.00  0.00    -0.244 OA
ATOM     25  O33 H3S d 301      18.342   3.769  31.909  0.00  0.00    -0.572 OA
ATOM     26  O28 H3S d 301      15.580  10.416  32.775  0.00  0.00    -0.296 OA
ATOM     27  O25 H3S d 301      21.264   6.123  34.735  0.00  0.00    -0.389 OA
ATOM     28  C4  H3S d 301      16.544   8.190  35.264  0.00  0.00     0.083 C 
ATOM     29  C19 H3S d 301      19.750   4.696  37.487  0.00  0.00     0.147 C 
ATOM     30  O5  H3S d 301      16.030   8.820  38.073  0.00  0.00    -0.350 OA
ATOM     31  S20 H3S d 301      14.421  10.521  33.599  0.00  0.00     0.156 S 
ATOM     32  H   H3S d 301      14.275   9.682  37.384  0.00  0.00     0.131 H 
ATOM     33  H   H3S d 301      17.231   5.808  35.528  0.00  0.00     0.134 H 
ATOM     34  H   H3S d 301      18.223   9.066  36.235  0.00  0.00     0.091 H 
ATOM     35  H   H3S d 301      16.004  10.214  35.719  0.00  0.00     0.076 H 
ATOM     36  H   H3S d 301      18.960   7.178  38.484  0.00  0.00     0.078 H 
ATOM     37  H   H3S d 301      17.726   7.462  39.710  0.00  0.00     0.078 H 
ATOM     38  H   H3S d 301      21.736   4.404  36.940  0.00  0.00     0.085 H 
ATOM     39  H   H3S d 301      16.599   6.892  37.645  0.00  0.00     0.090 H 
ATOM     40  H   H3S d 301      12.469  10.463  33.340  0.00  0.00     0.231 HD
ATOM     41  H   H3S d 301      17.730   7.784  33.728  0.00  0.00     0.210 HD
ATOM     42  H   H3S d 301      21.001   4.068  34.557  0.00  0.00     0.093 H 
ATOM     43  H   H3S d 301      14.843   6.941  36.748  0.00  0.00     0.212 HD
ATOM     44  H   H3S d 301      13.635  12.062  34.933  0.00  0.00     0.231 HD
ATOM     45  H   H3S d 301      19.107   9.477  38.241  0.00  0.00     0.209 HD
ATOM     46  H   H3S d 301      13.560   9.412  35.260  0.00  0.00     0.140 HD
ATOM     47  H   H3S d 301      18.966   5.541  33.734  0.00  0.00     0.097 H 
ATOM     48  H   H3S d 301      15.573  11.125  32.113  0.00  0.00     0.231 HD
ATOM     49  H   H3S d 301      20.871   6.861  35.227  0.00  0.00     0.210 HD
ATOM     50  H   H3S d 301      16.028   7.253  35.237  0.00  0.00     0.089 H 
ENDROOT
TORSDOF 15
ENDMDL
MODEL 17
REMARK VINA RESULT:      -5.7      3.522      7.238
REMARK  0 active torsions:
REMARK  status: ('A' for Active; 'I' for Inactive)
REMARK       I    between atoms: C10_1  and  O15_19 
REMARK       I    between atoms: C7_2  and  O3_5 
REMARK       I    between atoms: C1_3  and  O3_5 
REMARK       I    between atoms: C8_4  and  N14_22 
REMARK       I    between atoms: C6_6  and  C2_9 
REMARK       I    between atoms: C6_6  and  O11_21 
REMARK       I    between atoms: O29_11  and  S20_31 
REMARK       I    between atoms: O9_13  and  C4_28 
REMARK       I    between atoms: C27_15  and  C19_29 
REMARK       I    between atoms: C17_16  and  O25_27 
REMARK       I    between atoms: S26_18  and  O18_24 
REMARK       I    between atoms: O30_20  and  S20_31 
REMARK       I    between atoms: N14_22  and  S20_31 
REMARK       I    between atoms: C12_23  and  O18_24 
REMARK       I    between atoms: O28_26  and  S20_31 
ROOT
ATOM      1  C10 H3S d 301      17.091   9.542  32.129  0.00  0.00     0.147 C 
ATOM      2  C7  H3S d 301      16.428  10.816  36.657  0.00  0.00     0.167 C 
ATOM      3  C1  H3S d 301      15.765  11.110  34.286  0.00  0.00     0.095 C 
ATOM      4  C8  H3S d 301      17.347  11.061  32.307  0.00  0.00     0.081 C 
ATOM      5  O3  H3S d 301      15.502  11.436  35.665  0.00  0.00    -0.348 OA
ATOM      6  C6  H3S d 301      14.076   9.147  34.420  0.00  0.00     0.043 C 
ATOM      7  C24 H3S d 301      14.471  10.842  38.768  0.00  0.00    -0.034 C 
ATOM      8  O34 H3S d 301      14.188   7.451  37.717  0.00  0.00    -0.642 OA
ATOM      9  C2  H3S d 301      15.513   9.559  34.001  0.00  0.00     0.089 C 
ATOM     10  O31 H3S d 301      19.905  10.855  39.578  0.00  0.00    -0.572 OA
ATOM     11  O29 H3S d 301      20.303  12.850  30.626  0.00  0.00    -0.296 OA
ATOM     12  O35 H3S d 301      12.612   8.576  38.860  0.00  0.00    -0.642 OA
ATOM     13  O9  H3S d 301      17.428  12.833  34.011  0.00  0.00    -0.391 OA
ATOM     14  O13 H3S d 301      15.810   9.591  37.226  0.00  0.00    -0.311 OA
ATOM     15  C27 H3S d 301      13.837   8.506  38.195  0.00  0.00     0.233 C 
ATOM     16  C17 H3S d 301      15.394  12.078  38.651  0.00  0.00     0.086 C 
ATOM     17  O32 H3S d 301      19.636  11.289  37.311  0.00  0.00    -0.572 OA
ATOM     18  S26 H3S d 301      19.131  11.582  38.627  0.00  0.00     0.252 S 
ATOM     19  O15 H3S d 301      18.091   8.783  32.859  0.00  0.00    -0.369 OA
ATOM     20  O30 H3S d 301      17.985  12.707  29.615  0.00  0.00    -0.296 OA
ATOM     21  O11 H3S d 301      13.088   9.696  33.530  0.00  0.00    -0.398 OA
ATOM     22  N14 H3S d 301      18.691  11.378  31.846  0.00  0.00    -0.210 NA
ATOM     23  C12 H3S d 301      16.739  11.789  37.858  0.00  0.00     0.135 C 
ATOM     24  O18 H3S d 301      17.653  11.121  38.771  0.00  0.00    -0.244 OA
ATOM     25  O33 H3S d 301      19.276  13.204  38.948  0.00  0.00    -0.572 OA
ATOM     26  O28 H3S d 301      18.574  13.891  31.765  0.00  0.00    -0.296 OA
ATOM     27  O25 H3S d 301      14.676  13.133  37.995  0.00  0.00    -0.389 OA
ATOM     28  C4  H3S d 301      17.188  11.434  33.797  0.00  0.00     0.083 C 
ATOM     29  C19 H3S d 301      14.716   9.685  38.069  0.00  0.00     0.147 C 
ATOM     30  O5  H3S d 301      15.748   9.186  32.603  0.00  0.00    -0.350 OA
ATOM     31  S20 H3S d 301      18.930  12.755  30.979  0.00  0.00     0.156 S 
ATOM     32  H   H3S d 301      17.158   9.305  31.087  0.00  0.00     0.131 H 
ATOM     33  H   H3S d 301      17.337  10.591  36.138  0.00  0.00     0.134 H 
ATOM     34  H   H3S d 301      15.082  11.734  33.749  0.00  0.00     0.091 H 
ATOM     35  H   H3S d 301      16.641  11.621  31.732  0.00  0.00     0.076 H 
ATOM     36  H   H3S d 301      13.888   9.503  35.411  0.00  0.00     0.078 H 
ATOM     37  H   H3S d 301      14.009   8.080  34.379  0.00  0.00     0.078 H 
ATOM     38  H   H3S d 301      13.648  10.887  39.388  0.00  0.00     0.085 H 
ATOM     39  H   H3S d 301      16.227   9.027  34.595  0.00  0.00     0.090 H 
ATOM     40  H   H3S d 301      20.553  12.080  30.091  0.00  0.00     0.231 HD
ATOM     41  H   H3S d 301      17.321  13.038  34.953  0.00  0.00     0.210 HD
ATOM     42  H   H3S d 301      15.675  12.356  39.645  0.00  0.00     0.093 H 
ATOM     43  H   H3S d 301      18.033   8.996  33.803  0.00  0.00     0.212 HD
ATOM     44  H   H3S d 301      18.227  11.935  29.081  0.00  0.00     0.231 HD
ATOM     45  H   H3S d 301      13.134  10.665  33.554  0.00  0.00     0.209 HD
ATOM     46  H   H3S d 301      18.999  10.600  31.262  0.00  0.00     0.140 HD
ATOM     47  H   H3S d 301      17.161  12.700  37.487  0.00  0.00     0.097 H 
ATOM     48  H   H3S d 301      18.716  14.699  31.249  0.00  0.00     0.231 HD
ATOM     49  H   H3S d 301      14.436  12.852  37.098  0.00  0.00     0.210 HD
ATOM     50  H   H3S d 301      17.908  10.861  34.343  0.00  0.00     0.089 H 
ENDROOT
TORSDOF 15
ENDMDL
MODEL 18
REMARK VINA RESULT:      -5.7      2.926      5.506
REMARK  0 active torsions:
REMARK  status: ('A' for Active; 'I' for Inactive)
REMARK       I    between atoms: C10_1  and  O15_19 
REMARK       I    between atoms: C7_2  and  O3_5 
REMARK       I    between atoms: C1_3  and  O3_5 
REMARK       I    between atoms: C8_4  and  N14_22 
REMARK       I    between atoms: C6_6  and  C2_9 
REMARK       I    between atoms: C6_6  and  O11_21 
REMARK       I    between atoms: O29_11  and  S20_31 
REMARK       I    between atoms: O9_13  and  C4_28 
REMARK       I    between atoms: C27_15  and  C19_29 
REMARK       I    between atoms: C17_16  and  O25_27 
REMARK       I    between atoms: S26_18  and  O18_24 
REMARK       I    between atoms: O30_20  and  S20_31 
REMARK       I    between atoms: N14_22  and  S20_31 
REMARK       I    between atoms: C12_23  and  O18_24 
REMARK       I    between atoms: O28_26  and  S20_31 
ROOT
ATOM      1  C10 H3S d 301      14.304   9.232  35.017  0.00  0.00     0.147 C 
ATOM      2  C7  H3S d 301      18.156   9.710  32.280  0.00  0.00     0.167 C 
ATOM      3  C1  H3S d 301      17.237   9.142  34.511  0.00  0.00     0.095 C 
ATOM      4  C8  H3S d 301      15.266  10.289  35.617  0.00  0.00     0.081 C 
ATOM      5  O3  H3S d 301      18.399   9.203  33.662  0.00  0.00    -0.348 OA
ATOM      6  C6  H3S d 301      16.855   6.671  33.826  0.00  0.00     0.043 C 
ATOM      7  C24 H3S d 301      20.369   8.248  31.162  0.00  0.00    -0.034 C 
ATOM      8  O34 H3S d 301      17.690   6.082  30.260  0.00  0.00    -0.642 OA
ATOM      9  C2  H3S d 301      16.187   8.063  33.977  0.00  0.00     0.089 C 
ATOM     10  O31 H3S d 301      18.285  12.849  29.000  0.00  0.00    -0.572 OA
ATOM     11  O29 H3S d 301      14.006  13.608  37.086  0.00  0.00    -0.296 OA
ATOM     12  O35 H3S d 301      19.848   5.466  30.394  0.00  0.00    -0.642 OA
ATOM     13  O9  H3S d 301      17.392  11.450  35.188  0.00  0.00    -0.391 OA
ATOM     14  O13 H3S d 301      18.003   8.567  31.343  0.00  0.00    -0.311 OA
ATOM     15  C27 H3S d 301      18.823   6.400  30.543  0.00  0.00     0.233 C 
ATOM     16  C17 H3S d 301      20.657   9.684  31.659  0.00  0.00     0.086 C 
ATOM     17  O32 H3S d 301      17.331  12.694  31.113  0.00  0.00    -0.572 OA
ATOM     18  S26 H3S d 301      18.550  12.530  30.364  0.00  0.00     0.252 S 
ATOM     19  O15 H3S d 301      13.778   9.706  33.749  0.00  0.00    -0.369 OA
ATOM     20  O30 H3S d 301      14.407  11.521  38.464  0.00  0.00    -0.296 OA
ATOM     21  O11 H3S d 301      17.143   6.080  35.106  0.00  0.00    -0.398 OA
ATOM     22  N14 H3S d 301      14.556  11.550  35.778  0.00  0.00    -0.210 NA
ATOM     23  C12 H3S d 301      19.357  10.590  31.758  0.00  0.00     0.135 C 
ATOM     24  O18 H3S d 301      19.041  11.055  30.417  0.00  0.00    -0.244 OA
ATOM     25  O33 H3S d 301      19.717  13.560  30.938  0.00  0.00    -0.572 OA
ATOM     26  O28 H3S d 301      16.180  12.818  37.222  0.00  0.00    -0.296 OA
ATOM     27  O25 H3S d 301      21.283   9.613  32.948  0.00  0.00    -0.389 OA
ATOM     28  C4  H3S d 301      16.476  10.471  34.676  0.00  0.00     0.083 C 
ATOM     29  C19 H3S d 301      19.089   7.768  31.029  0.00  0.00     0.147 C 
ATOM     30  O5  H3S d 301      14.996   7.952  34.825  0.00  0.00    -0.350 OA
ATOM     31  S20 H3S d 301      14.809  12.437  37.140  0.00  0.00     0.156 S 
ATOM     32  H   H3S d 301      13.494   9.082  35.701  0.00  0.00     0.131 H 
ATOM     33  H   H3S d 301      17.269  10.307  32.318  0.00  0.00     0.134 H 
ATOM     34  H   H3S d 301      17.640   8.873  35.465  0.00  0.00     0.091 H 
ATOM     35  H   H3S d 301      15.617   9.963  36.574  0.00  0.00     0.076 H 
ATOM     36  H   H3S d 301      17.769   6.781  33.280  0.00  0.00     0.078 H 
ATOM     37  H   H3S d 301      16.175   6.029  33.305  0.00  0.00     0.078 H 
ATOM     38  H   H3S d 301      21.161   7.632  30.923  0.00  0.00     0.085 H 
ATOM     39  H   H3S d 301      15.863   8.413  33.019  0.00  0.00     0.090 H 
ATOM     40  H   H3S d 301      13.070  13.357  37.030  0.00  0.00     0.231 HD
ATOM     41  H   H3S d 301      18.140  11.543  34.578  0.00  0.00     0.210 HD
ATOM     42  H   H3S d 301      21.299  10.144  30.937  0.00  0.00     0.093 H 
ATOM     43  H   H3S d 301      14.510   9.844  33.127  0.00  0.00     0.212 HD
ATOM     44  H   H3S d 301      13.475  11.262  38.408  0.00  0.00     0.231 HD
ATOM     45  H   H3S d 301      17.760   6.650  35.593  0.00  0.00     0.209 HD
ATOM     46  H   H3S d 301      13.559  11.338  35.739  0.00  0.00     0.140 HD
ATOM     47  H   H3S d 301      19.519  11.412  32.424  0.00  0.00     0.097 H 
ATOM     48  H   H3S d 301      16.323  13.340  38.027  0.00  0.00     0.231 HD
ATOM     49  H   H3S d 301      20.677   9.193  33.578  0.00  0.00     0.210 HD
ATOM     50  H   H3S d 301      16.094  10.799  33.732  0.00  0.00     0.089 H 
ENDROOT
TORSDOF 15
ENDMDL
MODEL 19
REMARK VINA RESULT:      -5.6      3.347      5.713
REMARK  0 active torsions:
REMARK  status: ('A' for Active; 'I' for Inactive)
REMARK       I    between atoms: C10_1  and  O15_19 
REMARK       I    between atoms: C7_2  and  O3_5 
REMARK       I    between atoms: C1_3  and  O3_5 
REMARK       I    between atoms: C8_4  and  N14_22 
REMARK       I    between atoms: C6_6  and  C2_9 
REMARK       I    between atoms: C6_6  and  O11_21 
REMARK       I    between atoms: O29_11  and  S20_31 
REMARK       I    between atoms: O9_13  and  C4_28 
REMARK       I    between atoms: C27_15  and  C19_29 
REMARK       I    between atoms: C17_16  and  O25_27 
REMARK       I    between atoms: S26_18  and  O18_24 
REMARK       I    between atoms: O30_20  and  S20_31 
REMARK       I    between atoms: N14_22  and  S20_31 
REMARK       I    between atoms: C12_23  and  O18_24 
REMARK       I    between atoms: O28_26  and  S20_31 
ROOT
ATOM      1  C10 H3S d 301      13.507   9.934  34.547  0.00  0.00     0.147 C 
ATOM      2  C7  H3S d 301      17.914  10.348  32.823  0.00  0.00     0.167 C 
ATOM      3  C1  H3S d 301      16.464  10.157  34.824  0.00  0.00     0.095 C 
ATOM      4  C8  H3S d 301      14.179  11.223  35.083  0.00  0.00     0.081 C 
ATOM      5  O3  H3S d 301      17.807  10.196  34.303  0.00  0.00    -0.348 OA
ATOM      6  C6  H3S d 301      16.485   7.567  34.706  0.00  0.00     0.043 C 
ATOM      7  C24 H3S d 301      20.459   9.009  32.692  0.00  0.00    -0.034 C 
ATOM      8  O34 H3S d 301      18.315   6.336  31.724  0.00  0.00    -0.642 OA
ATOM      9  C2  H3S d 301      15.692   8.848  34.334  0.00  0.00     0.089 C 
ATOM     10  O31 H3S d 301      18.691  12.674  29.000  0.00  0.00    -0.572 OA
ATOM     11  O29 H3S d 301      12.301  14.568  35.314  0.00  0.00    -0.296 OA
ATOM     12  O35 H3S d 301      20.395   6.081  32.540  0.00  0.00    -0.642 OA
ATOM     13  O9  H3S d 301      16.241  12.555  34.919  0.00  0.00    -0.391 OA
ATOM     14  O13 H3S d 301      18.117   9.017  32.194  0.00  0.00    -0.311 OA
ATOM     15  C27 H3S d 301      19.297   6.868  32.191  0.00  0.00     0.233 C 
ATOM     16  C17 H3S d 301      20.483  10.546  32.869  0.00  0.00     0.086 C 
ATOM     17  O32 H3S d 301      17.207  12.852  30.780  0.00  0.00    -0.572 OA
ATOM     18  S26 H3S d 301      18.594  12.704  30.423  0.00  0.00     0.252 S 
ATOM     19  O15 H3S d 301      13.316  10.037  33.110  0.00  0.00    -0.369 OA
ATOM     20  O30 H3S d 301      12.473  12.914  37.226  0.00  0.00    -0.296 OA
ATOM     21  O11 H3S d 301      16.456   7.320  36.123  0.00  0.00    -0.398 OA
ATOM     22  N14 H3S d 301      13.354  12.373  34.741  0.00  0.00    -0.210 NA
ATOM     23  C12 H3S d 301      19.138  11.254  32.413  0.00  0.00     0.135 C 
ATOM     24  O18 H3S d 301      19.168  11.363  30.963  0.00  0.00    -0.244 OA
ATOM     25  O33 H3S d 301      19.472  13.992  30.992  0.00  0.00    -0.572 OA
ATOM     26  O28 H3S d 301      14.410  14.148  36.179  0.00  0.00    -0.296 OA
ATOM     27  O25 H3S d 301      20.733  10.850  34.249  0.00  0.00    -0.389 OA
ATOM     28  C4  H3S d 301      15.584  11.366  34.457  0.00  0.00     0.083 C 
ATOM     29  C19 H3S d 301      19.308   8.333  32.370  0.00  0.00     0.147 C 
ATOM     30  O5  H3S d 301      14.326   8.756  34.859  0.00  0.00    -0.350 OA
ATOM     31  S20 H3S d 301      13.150  13.564  35.857  0.00  0.00     0.156 S 
ATOM     32  H   H3S d 301      12.555   9.822  35.023  0.00  0.00     0.131 H 
ATOM     33  H   H3S d 301      17.006  10.804  32.488  0.00  0.00     0.134 H 
ATOM     34  H   H3S d 301      16.608  10.165  35.884  0.00  0.00     0.091 H 
ATOM     35  H   H3S d 301      14.278  11.169  36.147  0.00  0.00     0.076 H 
ATOM     36  H   H3S d 301      17.502   7.686  34.395  0.00  0.00     0.078 H 
ATOM     37  H   H3S d 301      16.029   6.735  34.211  0.00  0.00     0.078 H 
ATOM     38  H   H3S d 301      21.333   8.476  32.819  0.00  0.00     0.085 H 
ATOM     39  H   H3S d 301      15.618   8.928  33.269  0.00  0.00     0.090 H 
ATOM     40  H   H3S d 301      11.441  14.178  35.092  0.00  0.00     0.231 HD
ATOM     41  H   H3S d 301      17.118  12.619  34.510  0.00  0.00     0.210 HD
ATOM     42  H   H3S d 301      21.260  10.923  32.238  0.00  0.00     0.093 H 
ATOM     43  H   H3S d 301      14.178  10.138  32.676  0.00  0.00     0.212 HD
ATOM     44  H   H3S d 301      11.616  12.518  37.006  0.00  0.00     0.231 HD
ATOM     45  H   H3S d 301      16.866   8.065  36.590  0.00  0.00     0.209 HD
ATOM     46  H   H3S d 301      12.426  12.017  34.511  0.00  0.00     0.140 HD
ATOM     47  H   H3S d 301      19.044  12.217  32.870  0.00  0.00     0.097 H 
ATOM     48  H   H3S d 301      14.284  14.849  36.837  0.00  0.00     0.231 HD
ATOM     49  H   H3S d 301      20.013  10.496  34.794  0.00  0.00     0.210 HD
ATOM     50  H   H3S d 301      15.451  11.420  33.396  0.00  0.00     0.089 H 
ENDROOT
TORSDOF 15
ENDMDL
MODEL 20
REMARK VINA RESULT:      -5.6      3.696      8.075
REMARK  0 active torsions:
REMARK  status: ('A' for Active; 'I' for Inactive)
REMARK       I    between atoms: C10_1  and  O15_19 
REMARK       I    between atoms: C7_2  and  O3_5 
REMARK       I    between atoms: C1_3  and  O3_5 
REMARK       I    between atoms: C8_4  and  N14_22 
REMARK       I    between atoms: C6_6  and  C2_9 
REMARK       I    between atoms: C6_6  and  O11_21 
REMARK       I    between atoms: O29_11  and  S20_31 
REMARK       I    between atoms: O9_13  and  C4_28 
REMARK       I    between atoms: C27_15  and  C19_29 
REMARK       I    between atoms: C17_16  and  O25_27 
REMARK       I    between atoms: S26_18  and  O18_24 
REMARK       I    between atoms: O30_20  and  S20_31 
REMARK       I    between atoms: N14_22  and  S20_31 
REMARK       I    between atoms: C12_23  and  O18_24 
REMARK       I    between atoms: O28_26  and  S20_31 
ROOT
ATOM      1  C10 H3S d 301      19.929  10.329  32.961  0.00  0.00     0.147 C 
ATOM      2  C7  H3S d 301      15.644  11.242  34.796  0.00  0.00     0.167 C 
ATOM      3  C1  H3S d 301      16.958  10.121  33.018  0.00  0.00     0.095 C 
ATOM      4  C8  H3S d 301      19.041  11.064  31.924  0.00  0.00     0.081 C 
ATOM      5  O3  H3S d 301      15.665  10.325  33.620  0.00  0.00    -0.348 OA
ATOM      6  C6  H3S d 301      17.320   8.015  34.486  0.00  0.00     0.043 C 
ATOM      7  C24 H3S d 301      13.334   9.981  35.963  0.00  0.00    -0.034 C 
ATOM      8  O34 H3S d 301      15.906   8.443  37.888  0.00  0.00    -0.642 OA
ATOM      9  C2  H3S d 301      17.944   9.354  34.013  0.00  0.00     0.089 C 
ATOM     10  O31 H3S d 301      14.817  15.191  36.882  0.00  0.00    -0.572 OA
ATOM     11  O29 H3S d 301      20.396  13.896  29.707  0.00  0.00    -0.296 OA
ATOM     12  O35 H3S d 301      13.831   7.617  37.625  0.00  0.00    -0.642 OA
ATOM     13  O9  H3S d 301      16.826  12.097  31.644  0.00  0.00    -0.391 OA
ATOM     14  O13 H3S d 301      15.681  10.450  36.053  0.00  0.00    -0.311 OA
ATOM     15  C27 H3S d 301      14.826   8.555  37.351  0.00  0.00     0.233 C 
ATOM     16  C17 H3S d 301      13.076  11.170  35.007  0.00  0.00     0.086 C 
ATOM     17  O32 H3S d 301      16.128  14.502  35.092  0.00  0.00    -0.572 OA
ATOM     18  S26 H3S d 301      14.806  14.455  35.660  0.00  0.00     0.252 S 
ATOM     19  O15 H3S d 301      20.206  11.207  34.084  0.00  0.00    -0.369 OA
ATOM     20  O30 H3S d 301      20.327  11.464  29.000  0.00  0.00    -0.296 OA
ATOM     21  O11 H3S d 301      17.282   7.045  33.424  0.00  0.00    -0.398 OA
ATOM     22  N14 H3S d 301      19.715  12.280  31.490  0.00  0.00    -0.210 NA
ATOM     23  C12 H3S d 301      14.335  12.122  34.831  0.00  0.00     0.135 C 
ATOM     24  O18 H3S d 301      14.394  12.994  35.994  0.00  0.00    -0.244 OA
ATOM     25  O33 H3S d 301      13.713  15.154  34.625  0.00  0.00    -0.572 OA
ATOM     26  O28 H3S d 301      18.313  12.902  29.495  0.00  0.00    -0.296 OA
ATOM     27  O25 H3S d 301      12.687  10.659  33.725  0.00  0.00    -0.389 OA
ATOM     28  C4  H3S d 301      17.680  11.405  32.567  0.00  0.00     0.083 C 
ATOM     29  C19 H3S d 301      14.591   9.685  36.431  0.00  0.00     0.147 C 
ATOM     30  O5  H3S d 301      19.268   9.107  33.433  0.00  0.00    -0.350 OA
ATOM     31  S20 H3S d 301      19.664  12.692  29.899  0.00  0.00     0.156 S 
ATOM     32  H   H3S d 301      20.850  10.058  32.489  0.00  0.00     0.131 H 
ATOM     33  H   H3S d 301      16.499  11.880  34.711  0.00  0.00     0.134 H 
ATOM     34  H   H3S d 301      16.739   9.544  32.145  0.00  0.00     0.091 H 
ATOM     35  H   H3S d 301      18.875  10.436  31.074  0.00  0.00     0.076 H 
ATOM     36  H   H3S d 301      16.321   8.198  34.824  0.00  0.00     0.078 H 
ATOM     37  H   H3S d 301      17.925   7.624  35.276  0.00  0.00     0.078 H 
ATOM     38  H   H3S d 301      12.539   9.393  36.258  0.00  0.00     0.085 H 
ATOM     39  H   H3S d 301      18.083  10.003  34.853  0.00  0.00     0.090 H 
ATOM     40  H   H3S d 301      21.318  13.760  29.981  0.00  0.00     0.231 HD
ATOM     41  H   H3S d 301      15.981  12.298  32.074  0.00  0.00     0.210 HD
ATOM     42  H   H3S d 301      12.301  11.763  35.445  0.00  0.00     0.093 H 
ATOM     43  H   H3S d 301      19.373  11.456  34.514  0.00  0.00     0.212 HD
ATOM     44  H   H3S d 301      21.246  11.321  29.275  0.00  0.00     0.231 HD
ATOM     45  H   H3S d 301      16.736   7.383  32.696  0.00  0.00     0.209 HD
ATOM     46  H   H3S d 301      20.699  12.183  31.743  0.00  0.00     0.140 HD
ATOM     47  H   H3S d 301      14.256  12.689  33.927  0.00  0.00     0.097 H 
ATOM     48  H   H3S d 301      18.290  13.144  28.556  0.00  0.00     0.231 HD
ATOM     49  H   H3S d 301      13.410  10.128  33.355  0.00  0.00     0.210 HD
ATOM     50  H   H3S d 301      17.879  12.034  33.410  0.00  0.00     0.089 H 
ENDROOT
TORSDOF 15
ENDMDL
MODEL 21
REMARK VINA RESULT:      -5.6      2.874      6.627
REMARK  0 active torsions:
REMARK  status: ('A' for Active; 'I' for Inactive)
REMARK       I    between atoms: C10_1  and  O15_19 
REMARK       I    between atoms: C7_2  and  O3_5 
REMARK       I    between atoms: C1_3  and  O3_5 
REMARK       I    between atoms: C8_4  and  N14_22 
REMARK       I    between atoms: C6_6  and  C2_9 
REMARK       I    between atoms: C6_6  and  O11_21 
REMARK       I    between atoms: O29_11  and  S20_31 
REMARK       I    between atoms: O9_13  and  C4_28 
REMARK       I    between atoms: C27_15  and  C19_29 
REMARK       I    between atoms: C17_16  and  O25_27 
REMARK       I    between atoms: S26_18  and  O18_24 
REMARK       I    between atoms: O30_20  and  S20_31 
REMARK       I    between atoms: N14_22  and  S20_31 
REMARK       I    between atoms: C12_23  and  O18_24 
REMARK       I    between atoms: O28_26  and  S20_31 
ROOT
ATOM      1  C10 H3S d 301      17.173   7.951  39.379  0.00  0.00     0.147 C 
ATOM      2  C7  H3S d 301      15.443  10.442  35.722  0.00  0.00     0.167 C 
ATOM      3  C1  H3S d 301      15.283   8.401  37.120  0.00  0.00     0.095 C 
ATOM      4  C8  H3S d 301      17.254   7.121  38.072  0.00  0.00     0.081 C 
ATOM      5  O3  H3S d 301      14.703   9.193  36.066  0.00  0.00    -0.348 OA
ATOM      6  C6  H3S d 301      13.781   9.600  38.860  0.00  0.00     0.043 C 
ATOM      7  C24 H3S d 301      13.083  11.795  34.783  0.00  0.00    -0.034 C 
ATOM      8  O34 H3S d 301      13.325  13.190  38.051  0.00  0.00    -0.642 OA
ATOM      9  C2  H3S d 301      15.233   9.173  38.518  0.00  0.00     0.089 C 
ATOM     10  O31 H3S d 301      18.192  12.984  33.152  0.00  0.00    -0.572 OA
ATOM     11  O29 H3S d 301      20.338   5.014  37.171  0.00  0.00    -0.296 OA
ATOM     12  O35 H3S d 301      11.449  13.142  36.812  0.00  0.00    -0.642 OA
ATOM     13  O9  H3S d 301      16.812   7.250  35.655  0.00  0.00    -0.391 OA
ATOM     14  O13 H3S d 301      14.824  11.601  36.415  0.00  0.00    -0.311 OA
ATOM     15  C27 H3S d 301      12.789  12.822  37.029  0.00  0.00     0.233 C 
ATOM     16  C17 H3S d 301      13.899  11.000  33.736  0.00  0.00     0.086 C 
ATOM     17  O32 H3S d 301      18.382  10.972  34.299  0.00  0.00    -0.572 OA
ATOM     18  S26 H3S d 301      17.582  11.712  33.359  0.00  0.00     0.252 S 
ATOM     19  O15 H3S d 301      18.054   9.102  39.288  0.00  0.00    -0.369 OA
ATOM     20  O30 H3S d 301      18.312   4.097  38.386  0.00  0.00    -0.296 OA
ATOM     21  O11 H3S d 301      12.964   8.467  39.207  0.00  0.00    -0.398 OA
ATOM     22  N14 H3S d 301      18.633   6.714  37.846  0.00  0.00    -0.210 NA
ATOM     23  C12 H3S d 301      15.403  10.740  34.174  0.00  0.00     0.135 C 
ATOM     24  O18 H3S d 301      16.152  11.960  33.919  0.00  0.00    -0.244 OA
ATOM     25  O33 H3S d 301      17.514  10.909  31.908  0.00  0.00    -0.572 OA
ATOM     26  O28 H3S d 301      18.321   5.000  36.030  0.00  0.00    -0.296 OA
ATOM     27  O25 H3S d 301      13.252   9.742  33.500  0.00  0.00    -0.389 OA
ATOM     28  C4  H3S d 301      16.746   7.976  36.891  0.00  0.00     0.083 C 
ATOM     29  C19 H3S d 301      13.570  12.053  36.041  0.00  0.00     0.147 C 
ATOM     30  O5  H3S d 301      15.795   8.393  39.625  0.00  0.00    -0.350 OA
ATOM     31  S20 H3S d 301      18.934   5.191  37.303  0.00  0.00     0.156 S 
ATOM     32  H   H3S d 301      17.483   7.332  40.195  0.00  0.00     0.131 H 
ATOM     33  H   H3S d 301      16.458  10.298  36.030  0.00  0.00     0.134 H 
ATOM     34  H   H3S d 301      14.682   7.516  37.127  0.00  0.00     0.091 H 
ATOM     35  H   H3S d 301      16.642   6.247  38.155  0.00  0.00     0.076 H 
ATOM     36  H   H3S d 301      13.353  10.089  38.011  0.00  0.00     0.078 H 
ATOM     37  H   H3S d 301      13.816  10.258  39.703  0.00  0.00     0.078 H 
ATOM     38  H   H3S d 301      12.144  12.141  34.530  0.00  0.00     0.085 H 
ATOM     39  H   H3S d 301      15.845  10.042  38.400  0.00  0.00     0.090 H 
ATOM     40  H   H3S d 301      20.762   5.142  38.034  0.00  0.00     0.231 HD
ATOM     41  H   H3S d 301      16.489   7.810  34.933  0.00  0.00     0.210 HD
ATOM     42  H   H3S d 301      13.934  11.595  32.848  0.00  0.00     0.093 H 
ATOM     43  H   H3S d 301      17.775   9.665  38.549  0.00  0.00     0.212 HD
ATOM     44  H   H3S d 301      18.729   4.227  39.252  0.00  0.00     0.231 HD
ATOM     45  H   H3S d 301      12.921   7.857  38.453  0.00  0.00     0.209 HD
ATOM     46  H   H3S d 301      19.125   6.818  38.734  0.00  0.00     0.140 HD
ATOM     47  H   H3S d 301      15.816   9.913  33.635  0.00  0.00     0.097 H 
ATOM     48  H   H3S d 301      18.501   4.100  35.715  0.00  0.00     0.231 HD
ATOM     49  H   H3S d 301      13.235   9.227  34.323  0.00  0.00     0.210 HD
ATOM     50  H   H3S d 301      17.378   8.839  36.833  0.00  0.00     0.089 H 
ENDROOT
TORSDOF 15
ENDMDL
MODEL 22
REMARK VINA RESULT:      -5.6      2.782      5.978
REMARK  0 active torsions:
REMARK  status: ('A' for Active; 'I' for Inactive)
REMARK       I    between atoms: C10_1  and  O15_19 
REMARK       I    between atoms: C7_2  and  O3_5 
REMARK       I    between atoms: C1_3  and  O3_5 
REMARK       I    between atoms: C8_4  and  N14_22 
REMARK       I    between atoms: C6_6  and  C2_9 
REMARK       I    between atoms: C6_6  and  O11_21 
REMARK       I    between atoms: O29_11  and  S20_31 
REMARK       I    between atoms: O9_13  and  C4_28 
REMARK       I    between atoms: C27_15  and  C19_29 
REMARK       I    between atoms: C17_16  and  O25_27 
REMARK       I    between atoms: S26_18  and  O18_24 
REMARK       I    between atoms: O30_20  and  S20_31 
REMARK       I    between atoms: N14_22  and  S20_31 
REMARK       I    between atoms: C12_23  and  O18_24 
REMARK       I    between atoms: O28_26  and  S20_31 
ROOT
ATOM      1  C10 H3S d 301      18.585   5.879  35.191  0.00  0.00     0.147 C 
ATOM      2  C7  H3S d 301      16.756   9.975  33.629  0.00  0.00     0.167 C 
ATOM      3  C1  H3S d 301      18.514   8.848  34.965  0.00  0.00     0.095 C 
ATOM      4  C8  H3S d 301      18.170   6.777  36.385  0.00  0.00     0.081 C 
ATOM      5  O3  H3S d 301      18.013  10.086  34.424  0.00  0.00    -0.348 OA
ATOM      6  C6  H3S d 301      20.028   8.541  32.883  0.00  0.00     0.043 C 
ATOM      7  C24 H3S d 301      17.356  12.290  32.025  0.00  0.00    -0.034 C 
ATOM      8  O34 H3S d 301      18.367   9.716  29.782  0.00  0.00    -0.642 OA
ATOM      9  C2  H3S d 301      18.982   7.857  33.803  0.00  0.00     0.089 C 
ATOM     10  O31 H3S d 301      12.282  10.410  32.979  0.00  0.00    -0.572 OA
ATOM     11  O29 H3S d 301      16.369   5.371  39.475  0.00  0.00    -0.296 OA
ATOM     12  O35 H3S d 301      19.058  11.853  29.678  0.00  0.00    -0.642 OA
ATOM     13  O9  H3S d 301      17.109   8.931  36.923  0.00  0.00    -0.391 OA
ATOM     14  O13 H3S d 301      17.080   9.916  32.180  0.00  0.00    -0.311 OA
ATOM     15  C27 H3S d 301      18.352  10.816  30.288  0.00  0.00     0.233 C 
ATOM     16  C17 H3S d 301      16.539  12.525  33.318  0.00  0.00     0.086 C 
ATOM     17  O32 H3S d 301      13.639   9.258  34.473  0.00  0.00    -0.572 OA
ATOM     18  S26 H3S d 301      13.381  10.543  33.878  0.00  0.00     0.252 S 
ATOM     19  O15 H3S d 301      17.407   5.477  34.442  0.00  0.00    -0.369 OA
ATOM     20  O30 H3S d 301      18.882   5.645  39.312  0.00  0.00    -0.296 OA
ATOM     21  O11 H3S d 301      21.291   8.707  33.551  0.00  0.00    -0.398 OA
ATOM     22  N14 H3S d 301      17.230   6.050  37.227  0.00  0.00    -0.210 NA
ATOM     23  C12 H3S d 301      15.810  11.218  33.850  0.00  0.00     0.135 C 
ATOM     24  O18 H3S d 301      14.607  11.031  33.054  0.00  0.00    -0.244 OA
ATOM     25  O33 H3S d 301      12.982  11.647  35.051  0.00  0.00    -0.572 OA
ATOM     26  O28 H3S d 301      17.200   7.525  39.267  0.00  0.00    -0.296 OA
ATOM     27  O25 H3S d 301      17.416  13.024  34.337  0.00  0.00    -0.389 OA
ATOM     28  C4  H3S d 301      17.520   8.071  35.849  0.00  0.00     0.083 C 
ATOM     29  C19 H3S d 301      17.582  11.029  31.528  0.00  0.00     0.147 C 
ATOM     30  O5  H3S d 301      19.519   6.591  34.310  0.00  0.00    -0.350 OA
ATOM     31  S20 H3S d 301      17.373   6.169  38.862  0.00  0.00     0.156 S 
ATOM     32  H   H3S d 301      19.075   5.008  35.574  0.00  0.00     0.131 H 
ATOM     33  H   H3S d 301      16.257   9.087  33.955  0.00  0.00     0.134 H 
ATOM     34  H   H3S d 301      19.330   9.158  35.583  0.00  0.00     0.091 H 
ATOM     35  H   H3S d 301      19.030   7.035  36.965  0.00  0.00     0.076 H 
ATOM     36  H   H3S d 301      19.660   9.503  32.593  0.00  0.00     0.078 H 
ATOM     37  H   H3S d 301      20.180   7.916  32.028  0.00  0.00     0.078 H 
ATOM     38  H   H3S d 301      17.742  13.103  31.522  0.00  0.00     0.085 H 
ATOM     39  H   H3S d 301      18.103   7.626  33.238  0.00  0.00     0.090 H 
ATOM     40  H   H3S d 301      16.480   4.447  39.203  0.00  0.00     0.231 HD
ATOM     41  H   H3S d 301      16.706   9.733  36.558  0.00  0.00     0.210 HD
ATOM     42  H   H3S d 301      15.772  13.232  33.082  0.00  0.00     0.093 H 
ATOM     43  H   H3S d 301      16.960   6.265  34.094  0.00  0.00     0.212 HD
ATOM     44  H   H3S d 301      19.000   4.723  39.037  0.00  0.00     0.231 HD
ATOM     45  H   H3S d 301      21.173   9.272  34.331  0.00  0.00     0.209 HD
ATOM     46  H   H3S d 301      17.318   5.062  36.990  0.00  0.00     0.140 HD
ATOM     47  H   H3S d 301      15.575  11.313  34.889  0.00  0.00     0.097 H 
ATOM     48  H   H3S d 301      17.285   7.589  40.231  0.00  0.00     0.231 HD
ATOM     49  H   H3S d 301      18.099  12.362  34.529  0.00  0.00     0.210 HD
ATOM     50  H   H3S d 301      16.664   7.780  35.277  0.00  0.00     0.089 H 
ENDROOT
TORSDOF 15
ENDMDL
MODEL 23
REMARK VINA RESULT:      -5.6      2.934      7.084
REMARK  0 active torsions:
REMARK  status: ('A' for Active; 'I' for Inactive)
REMARK       I    between atoms: C10_1  and  O15_19 
REMARK       I    between atoms: C7_2  and  O3_5 
REMARK       I    between atoms: C1_3  and  O3_5 
REMARK       I    between atoms: C8_4  and  N14_22 
REMARK       I    between atoms: C6_6  and  C2_9 
REMARK       I    between atoms: C6_6  and  O11_21 
REMARK       I    between atoms: O29_11  and  S20_31 
REMARK       I    between atoms: O9_13  and  C4_28 
REMARK       I    between atoms: C27_15  and  C19_29 
REMARK       I    between atoms: C17_16  and  O25_27 
REMARK       I    between atoms: S26_18  and  O18_24 
REMARK       I    between atoms: O30_20  and  S20_31 
REMARK       I    between atoms: N14_22  and  S20_31 
REMARK       I    between atoms: C12_23  and  O18_24 
REMARK       I    between atoms: O28_26  and  S20_31 
ROOT
ATOM      1  C10 H3S d 301      17.962   6.624  37.053  0.00  0.00     0.147 C 
ATOM      2  C7  H3S d 301      15.962  10.304  34.813  0.00  0.00     0.167 C 
ATOM      3  C1  H3S d 301      15.838   7.899  35.400  0.00  0.00     0.095 C 
ATOM      4  C8  H3S d 301      17.818   6.323  35.540  0.00  0.00     0.081 C 
ATOM      5  O3  H3S d 301      15.186   9.030  34.792  0.00  0.00    -0.348 OA
ATOM      6  C6  H3S d 301      14.656   8.415  37.649  0.00  0.00     0.043 C 
ATOM      7  C24 H3S d 301      13.602  11.952  34.766  0.00  0.00    -0.034 C 
ATOM      8  O34 H3S d 301      14.354  12.063  38.245  0.00  0.00    -0.642 OA
ATOM      9  C2  H3S d 301      16.020   8.113  36.972  0.00  0.00     0.089 C 
ATOM     10  O31 H3S d 301      18.534  13.550  32.950  0.00  0.00    -0.572 OA
ATOM     11  O29 H3S d 301      20.608   4.625  33.515  0.00  0.00    -0.296 OA
ATOM     12  O35 H3S d 301      12.337  12.504  37.354  0.00  0.00    -0.642 OA
ATOM     13  O9  H3S d 301      17.085   7.328  33.417  0.00  0.00    -0.391 OA
ATOM     14  O13 H3S d 301      15.518  11.146  35.954  0.00  0.00    -0.311 OA
ATOM     15  C27 H3S d 301      13.669  12.100  37.248  0.00  0.00     0.233 C 
ATOM     16  C17 H3S d 301      14.221  11.574  33.399  0.00  0.00     0.086 C 
ATOM     17  O32 H3S d 301      18.727  11.256  33.265  0.00  0.00    -0.572 OA
ATOM     18  S26 H3S d 301      17.867  12.302  32.775  0.00  0.00     0.252 S 
ATOM     19  O15 H3S d 301      18.903   7.713  37.253  0.00  0.00    -0.369 OA
ATOM     20  O30 H3S d 301      18.694   3.371  34.601  0.00  0.00    -0.296 OA
ATOM     21  O11 H3S d 301      13.813   7.250  37.683  0.00  0.00    -0.398 OA
ATOM     22  N14 H3S d 301      19.126   5.999  34.988  0.00  0.00    -0.210 NA
ATOM     23  C12 H3S d 301      15.747  11.144  33.495  0.00  0.00     0.135 C 
ATOM     24  O18 H3S d 301      16.541  12.359  33.586  0.00  0.00    -0.244 OA
ATOM     25  O33 H3S d 301      17.560  12.081  31.159  0.00  0.00    -0.572 OA
ATOM     26  O28 H3S d 301      18.466   5.066  32.745  0.00  0.00    -0.296 OA
ATOM     27  O25 H3S d 301      13.463  10.500  32.826  0.00  0.00    -0.389 OA
ATOM     28  C4  H3S d 301      17.227   7.558  34.827  0.00  0.00     0.083 C 
ATOM     29  C19 H3S d 301      14.262  11.727  35.950  0.00  0.00     0.147 C 
ATOM     30  O5  H3S d 301      16.662   6.974  37.637  0.00  0.00    -0.350 OA
ATOM     31  S20 H3S d 301      19.248   4.770  33.901  0.00  0.00     0.156 S 
ATOM     32  H   H3S d 301      18.329   5.746  37.542  0.00  0.00     0.131 H 
ATOM     33  H   H3S d 301      16.995  10.039  34.900  0.00  0.00     0.134 H 
ATOM     34  H   H3S d 301      15.182   7.084  35.178  0.00  0.00     0.091 H 
ATOM     35  H   H3S d 301      17.163   5.491  35.393  0.00  0.00     0.076 H 
ATOM     36  H   H3S d 301      14.160   9.187  37.100  0.00  0.00     0.078 H 
ATOM     37  H   H3S d 301      14.844   8.722  38.657  0.00  0.00     0.078 H 
ATOM     38  H   H3S d 301      12.666  12.384  34.790  0.00  0.00     0.085 H 
ATOM     39  H   H3S d 301      16.671   8.954  37.085  0.00  0.00     0.090 H 
ATOM     40  H   H3S d 301      21.147   4.424  34.296  0.00  0.00     0.231 HD
ATOM     41  H   H3S d 301      16.712   8.118  32.997  0.00  0.00     0.210 HD
ATOM     42  H   H3S d 301      14.185  12.450  32.786  0.00  0.00     0.093 H 
ATOM     43  H   H3S d 301      18.573   8.510  36.811  0.00  0.00     0.212 HD
ATOM     44  H   H3S d 301      19.226   3.170  35.387  0.00  0.00     0.231 HD
ATOM     45  H   H3S d 301      13.631   6.956  36.776  0.00  0.00     0.209 HD
ATOM     46  H   H3S d 301      19.733   5.764  35.774  0.00  0.00     0.140 HD
ATOM     47  H   H3S d 301      16.029  10.561  32.644  0.00  0.00     0.097 H 
ATOM     48  H   H3S d 301      18.542   4.338  32.109  0.00  0.00     0.231 HD
ATOM     49  H   H3S d 301      13.515   9.723  33.405  0.00  0.00     0.210 HD
ATOM     50  H   H3S d 301      17.904   8.370  34.990  0.00  0.00     0.089 H 
ENDROOT
TORSDOF 15
ENDMDL
MODEL 24
REMARK VINA RESULT:      -5.6      3.219      7.108
REMARK  0 active torsions:
REMARK  status: ('A' for Active; 'I' for Inactive)
REMARK       I    between atoms: C10_1  and  O15_19 
REMARK       I    between atoms: C7_2  and  O3_5 
REMARK       I    between atoms: C1_3  and  O3_5 
REMARK       I    between atoms: C8_4  and  N14_22 
REMARK       I    between atoms: C6_6  and  C2_9 
REMARK       I    between atoms: C6_6  and  O11_21 
REMARK       I    between atoms: O29_11  and  S20_31 
REMARK       I    between atoms: O9_13  and  C4_28 
REMARK       I    between atoms: C27_15  and  C19_29 
REMARK       I    between atoms: C17_16  and  O25_27 
REMARK       I    between atoms: S26_18  and  O18_24 
REMARK       I    between atoms: O30_20  and  S20_31 
REMARK       I    between atoms: N14_22  and  S20_31 
REMARK       I    between atoms: C12_23  and  O18_24 
REMARK       I    between atoms: O28_26  and  S20_31 
ROOT
ATOM      1  C10 H3S d 301      18.251   5.785  35.933  0.00  0.00     0.147 C 
ATOM      2  C7  H3S d 301      16.948  10.018  34.216  0.00  0.00     0.167 C 
ATOM      3  C1  H3S d 301      16.273   7.708  34.810  0.00  0.00     0.095 C 
ATOM      4  C8  H3S d 301      17.701   5.638  34.491  0.00  0.00     0.081 C 
ATOM      5  O3  H3S d 301      15.855   9.014  34.369  0.00  0.00    -0.348 OA
ATOM      6  C6  H3S d 301      15.807   8.379  37.271  0.00  0.00     0.043 C 
ATOM      7  C24 H3S d 301      15.206  12.255  34.712  0.00  0.00    -0.034 C 
ATOM      8  O34 H3S d 301      16.697  11.918  37.929  0.00  0.00    -0.642 OA
ATOM      9  C2  H3S d 301      16.845   7.756  36.300  0.00  0.00     0.089 C 
ATOM     10  O31 H3S d 301      19.871  12.540  31.824  0.00  0.00    -0.572 OA
ATOM     11  O29 H3S d 301      19.379   3.373  31.880  0.00  0.00    -0.296 OA
ATOM     12  O35 H3S d 301      14.747  12.961  37.521  0.00  0.00    -0.642 OA
ATOM     13  O9  H3S d 301      16.841   6.948  32.594  0.00  0.00    -0.391 OA
ATOM     14  O13 H3S d 301      17.023  10.870  35.430  0.00  0.00    -0.311 OA
ATOM     15  C27 H3S d 301      15.851  12.212  37.114  0.00  0.00     0.233 C 
ATOM     16  C17 H3S d 301      15.379  11.814  33.239  0.00  0.00     0.086 C 
ATOM     17  O32 H3S d 301      19.463  10.267  32.081  0.00  0.00    -0.572 OA
ATOM     18  S26 H3S d 301      18.853  11.541  31.803  0.00  0.00     0.252 S 
ATOM     19  O15 H3S d 301      19.484   6.553  35.916  0.00  0.00    -0.369 OA
ATOM     20  O30 H3S d 301      17.471   2.629  33.371  0.00  0.00    -0.296 OA
ATOM     21  O11 H3S d 301      14.694   7.494  37.493  0.00  0.00    -0.398 OA
ATOM     22  N14 H3S d 301      18.709   5.001  33.655  0.00  0.00    -0.210 NA
ATOM     23  C12 H3S d 301      16.701  10.971  32.984  0.00  0.00     0.135 C 
ATOM     24  O18 H3S d 301      17.809  11.908  32.895  0.00  0.00    -0.244 OA
ATOM     25  O33 H3S d 301      18.152  11.523  30.299  0.00  0.00    -0.572 OA
ATOM     26  O28 H3S d 301      17.338   4.442  31.620  0.00  0.00    -0.296 OA
ATOM     27  O25 H3S d 301      14.239  11.033  32.852  0.00  0.00    -0.389 OA
ATOM     28  C4  H3S d 301      17.347   7.034  33.935  0.00  0.00     0.083 C 
ATOM     29  C19 H3S d 301      16.016  11.776  35.713  0.00  0.00     0.147 C 
ATOM     30  O5  H3S d 301      17.264   6.442  36.798  0.00  0.00    -0.350 OA
ATOM     31  S20 H3S d 301      18.235   3.863  32.566  0.00  0.00     0.156 S 
ATOM     32  H   H3S d 301      18.449   4.808  36.323  0.00  0.00     0.131 H 
ATOM     33  H   H3S d 301      17.856   9.471  34.065  0.00  0.00     0.134 H 
ATOM     34  H   H3S d 301      15.379   7.124  34.741  0.00  0.00     0.091 H 
ATOM     35  H   H3S d 301      16.820   5.032  34.496  0.00  0.00     0.076 H 
ATOM     36  H   H3S d 301      15.445   9.294  36.851  0.00  0.00     0.078 H 
ATOM     37  H   H3S d 301      16.289   8.553  38.210  0.00  0.00     0.078 H 
ATOM     38  H   H3S d 301      14.461  12.928  34.950  0.00  0.00     0.085 H 
ATOM     39  H   H3S d 301      17.719   8.374  36.263  0.00  0.00     0.090 H 
ATOM     40  H   H3S d 301      19.994   2.978  32.518  0.00  0.00     0.231 HD
ATOM     41  H   H3S d 301      16.628   7.837  32.272  0.00  0.00     0.210 HD
ATOM     42  H   H3S d 301      15.462  12.704  32.652  0.00  0.00     0.093 H 
ATOM     43  H   H3S d 301      19.307   7.439  35.562  0.00  0.00     0.212 HD
ATOM     44  H   H3S d 301      18.080   2.236  34.014  0.00  0.00     0.231 HD
ATOM     45  H   H3S d 301      14.243   7.324  36.650  0.00  0.00     0.209 HD
ATOM     46  H   H3S d 301      19.379   4.555  34.282  0.00  0.00     0.140 HD
ATOM     47  H   H3S d 301      16.612  10.391  32.089  0.00  0.00     0.097 H 
ATOM     48  H   H3S d 301      17.062   3.766  30.981  0.00  0.00     0.231 HD
ATOM     49  H   H3S d 301      14.192  10.235  33.401  0.00  0.00     0.210 HD
ATOM     50  H   H3S d 301      18.247   7.613  33.941  0.00  0.00     0.089 H 
ENDROOT
TORSDOF 15
ENDMDL
MODEL 25
REMARK VINA RESULT:      -5.5      2.035      6.495
REMARK  0 active torsions:
REMARK  status: ('A' for Active; 'I' for Inactive)
REMARK       I    between atoms: C10_1  and  O15_19 
REMARK       I    between atoms: C7_2  and  O3_5 
REMARK       I    between atoms: C1_3  and  O3_5 
REMARK       I    between atoms: C8_4  and  N14_22 
REMARK       I    between atoms: C6_6  and  C2_9 
REMARK       I    between atoms: C6_6  and  O11_21 
REMARK       I    between atoms: O29_11  and  S20_31 
REMARK       I    between atoms: O9_13  and  C4_28 
REMARK       I    between atoms: C27_15  and  C19_29 
REMARK       I    between atoms: C17_16  and  O25_27 
REMARK       I    between atoms: S26_18  and  O18_24 
REMARK       I    between atoms: O30_20  and  S20_31 
REMARK       I    between atoms: N14_22  and  S20_31 
REMARK       I    between atoms: C12_23  and  O18_24 
REMARK       I    between atoms: O28_26  and  S20_31 
ROOT
ATOM      1  C10 H3S d 301      17.794   6.012  33.707  0.00  0.00     0.147 C 
ATOM      2  C7  H3S d 301      15.751   9.220  36.552  0.00  0.00     0.167 C 
ATOM      3  C1  H3S d 301      17.808   8.469  35.390  0.00  0.00     0.095 C 
ATOM      4  C8  H3S d 301      18.514   6.054  35.079  0.00  0.00     0.081 C 
ATOM      5  O3  H3S d 301      17.172   9.490  36.183  0.00  0.00    -0.348 OA
ATOM      6  C6  H3S d 301      17.156   9.734  33.223  0.00  0.00     0.043 C 
ATOM      7  C24 H3S d 301      15.087  12.014  36.751  0.00  0.00    -0.034 C 
ATOM      8  O34 H3S d 301      13.812  11.315  33.500  0.00  0.00    -0.642 OA
ATOM      9  C2  H3S d 301      17.139   8.360  33.944  0.00  0.00     0.089 C 
ATOM     10  O31 H3S d 301      12.433   8.000  39.402  0.00  0.00    -0.572 OA
ATOM     11  O29 H3S d 301      19.622   2.863  36.910  0.00  0.00    -0.296 OA
ATOM     12  O35 H3S d 301      14.341  13.365  34.258  0.00  0.00    -0.642 OA
ATOM     13  O9  H3S d 301      18.418   7.122  37.293  0.00  0.00    -0.391 OA
ATOM     14  O13 H3S d 301      14.844   9.924  35.609  0.00  0.00    -0.311 OA
ATOM     15  C27 H3S d 301      14.276  11.979  34.400  0.00  0.00     0.233 C 
ATOM     16  C17 H3S d 301      15.575  11.315  38.042  0.00  0.00     0.086 C 
ATOM     17  O32 H3S d 301      14.353   6.996  38.563  0.00  0.00    -0.572 OA
ATOM     18  S26 H3S d 301      13.833   8.178  39.199  0.00  0.00     0.252 S 
ATOM     19  O15 H3S d 301      16.437   5.521  33.875  0.00  0.00    -0.369 OA
ATOM     20  O30 H3S d 301      21.123   4.190  35.359  0.00  0.00    -0.296 OA
ATOM     21  O11 H3S d 301      18.487  10.104  32.820  0.00  0.00    -0.398 OA
ATOM     22  N14 H3S d 301      18.503   4.723  35.668  0.00  0.00    -0.210 NA
ATOM     23  C12 H3S d 301      15.414   9.736  38.004  0.00  0.00     0.135 C 
ATOM     24  O18 H3S d 301      14.023   9.428  38.293  0.00  0.00    -0.244 OA
ATOM     25  O33 H3S d 301      14.563   8.403  40.673  0.00  0.00    -0.572 OA
ATOM     26  O28 H3S d 301      20.161   5.029  37.537  0.00  0.00    -0.296 OA
ATOM     27  O25 H3S d 301      16.954  11.645  38.256  0.00  0.00    -0.389 OA
ATOM     28  C4  H3S d 301      17.791   7.057  36.004  0.00  0.00     0.083 C 
ATOM     29  C19 H3S d 301      14.751  11.305  35.624  0.00  0.00     0.147 C 
ATOM     30  O5  H3S d 301      17.771   7.346  33.094  0.00  0.00    -0.350 OA
ATOM     31  S20 H3S d 301      19.856   4.181  36.431  0.00  0.00     0.156 S 
ATOM     32  H   H3S d 301      18.332   5.350  33.060  0.00  0.00     0.131 H 
ATOM     33  H   H3S d 301      15.613   8.160  36.510  0.00  0.00     0.134 H 
ATOM     34  H   H3S d 301      18.826   8.792  35.339  0.00  0.00     0.091 H 
ATOM     35  H   H3S d 301      19.528   6.370  34.950  0.00  0.00     0.076 H 
ATOM     36  H   H3S d 301      16.774  10.480  33.888  0.00  0.00     0.078 H 
ATOM     37  H   H3S d 301      16.549   9.658  32.345  0.00  0.00     0.078 H 
ATOM     38  H   H3S d 301      15.011  13.043  36.736  0.00  0.00     0.085 H 
ATOM     39  H   H3S d 301      16.128   8.051  34.107  0.00  0.00     0.090 H 
ATOM     40  H   H3S d 301      19.413   2.280  36.163  0.00  0.00     0.231 HD
ATOM     41  H   H3S d 301      17.944   7.757  37.852  0.00  0.00     0.210 HD
ATOM     42  H   H3S d 301      14.959  11.669  38.843  0.00  0.00     0.093 H 
ATOM     43  H   H3S d 301      15.948   6.119  34.461  0.00  0.00     0.212 HD
ATOM     44  H   H3S d 301      20.915   3.614  34.608  0.00  0.00     0.231 HD
ATOM     45  H   H3S d 301      19.053  10.178  33.605  0.00  0.00     0.209 HD
ATOM     46  H   H3S d 301      18.300   4.065  34.916  0.00  0.00     0.140 HD
ATOM     47  H   H3S d 301      16.068   9.273  38.713  0.00  0.00     0.097 H 
ATOM     48  H   H3S d 301      20.959   4.705  37.983  0.00  0.00     0.231 HD
ATOM     49  H   H3S d 301      17.485  11.312  37.516  0.00  0.00     0.210 HD
ATOM     50  H   H3S d 301      16.783   6.713  36.114  0.00  0.00     0.089 H 
ENDROOT
TORSDOF 15
ENDMDL
MODEL 26
REMARK VINA RESULT:      -5.5      2.326      2.877
REMARK  0 active torsions:
REMARK  status: ('A' for Active; 'I' for Inactive)
REMARK       I    between atoms: C10_1  and  O15_19 
REMARK       I    between atoms: C7_2  and  O3_5 
REMARK       I    between atoms: C1_3  and  O3_5 
REMARK       I    between atoms: C8_4  and  N14_22 
REMARK       I    between atoms: C6_6  and  C2_9 
REMARK       I    between atoms: C6_6  and  O11_21 
REMARK       I    between atoms: O29_11  and  S20_31 
REMARK       I    between atoms: O9_13  and  C4_28 
REMARK       I    between atoms: C27_15  and  C19_29 
REMARK       I    between atoms: C17_16  and  O25_27 
REMARK       I    between atoms: S26_18  and  O18_24 
REMARK       I    between atoms: O30_20  and  S20_31 
REMARK       I    between atoms: N14_22  and  S20_31 
REMARK       I    between atoms: C12_23  and  O18_24 
REMARK       I    between atoms: O28_26  and  S20_31 
ROOT
ATOM      1  C10 H3S d 301      16.759  11.561  33.395  0.00  0.00     0.147 C 
ATOM      2  C7  H3S d 301      18.074   7.067  34.196  0.00  0.00     0.167 C 
ATOM      3  C1  H3S d 301      16.413   8.609  33.192  0.00  0.00     0.095 C 
ATOM      4  C8  H3S d 301      15.666  10.812  34.199  0.00  0.00     0.081 C 
ATOM      5  O3  H3S d 301      16.852   7.248  33.359  0.00  0.00    -0.348 OA
ATOM      6  C6  H3S d 301      17.772   8.787  30.992  0.00  0.00     0.043 C 
ATOM      7  C24 H3S d 301      18.842   4.632  32.867  0.00  0.00    -0.034 C 
ATOM      8  O34 H3S d 301      20.980   6.938  31.196  0.00  0.00    -0.642 OA
ATOM      9  C2  H3S d 301      17.475   9.461  32.358  0.00  0.00     0.089 C 
ATOM     10  O31 H3S d 301      20.291   5.952  38.000  0.00  0.00    -0.572 OA
ATOM     11  O29 H3S d 301      13.839  12.430  37.168  0.00  0.00    -0.296 OA
ATOM     12  O35 H3S d 301      20.394   4.920  30.396  0.00  0.00    -0.642 OA
ATOM     13  O9  H3S d 301      15.167   8.647  35.256  0.00  0.00    -0.391 OA
ATOM     14  O13 H3S d 301      19.269   6.944  33.322  0.00  0.00    -0.311 OA
ATOM     15  C27 H3S d 301      20.315   5.937  31.348  0.00  0.00     0.233 C 
ATOM     16  C17 H3S d 301      17.942   4.495  34.118  0.00  0.00     0.086 C 
ATOM     17  O32 H3S d 301      18.646   7.490  37.427  0.00  0.00    -0.572 OA
ATOM     18  S26 H3S d 301      19.032   6.106  37.347  0.00  0.00     0.252 S 
ATOM     19  O15 H3S d 301      17.965  11.683  34.195  0.00  0.00    -0.369 OA
ATOM     20  O30 H3S d 301      12.969  12.468  34.789  0.00  0.00    -0.296 OA
ATOM     21  O11 H3S d 301      16.652   8.895  30.095  0.00  0.00    -0.398 OA
ATOM     22  N14 H3S d 301      15.406  11.530  35.439  0.00  0.00    -0.210 NA
ATOM     23  C12 H3S d 301      17.995   5.760  35.076  0.00  0.00     0.135 C 
ATOM     24  O18 H3S d 301      19.211   5.662  35.868  0.00  0.00    -0.244 OA
ATOM     25  O33 H3S d 301      17.912   5.154  38.117  0.00  0.00    -0.572 OA
ATOM     26  O28 H3S d 301      13.290  10.398  36.197  0.00  0.00    -0.296 OA
ATOM     27  O25 H3S d 301      16.588   4.279  33.695  0.00  0.00    -0.389 OA
ATOM     28  C4  H3S d 301      16.146   9.376  34.501  0.00  0.00     0.083 C 
ATOM     29  C19 H3S d 301      19.449   5.819  32.537  0.00  0.00     0.147 C 
ATOM     30  O5  H3S d 301      17.058  10.851  32.145  0.00  0.00    -0.350 OA
ATOM     31  S20 H3S d 301      13.852  11.686  35.957  0.00  0.00     0.156 S 
ATOM     32  H   H3S d 301      16.395  12.537  33.152  0.00  0.00     0.131 H 
ATOM     33  H   H3S d 301      18.144   7.922  34.836  0.00  0.00     0.134 H 
ATOM     34  H   H3S d 301      15.482   8.509  32.675  0.00  0.00     0.091 H 
ATOM     35  H   H3S d 301      14.762  10.763  33.630  0.00  0.00     0.076 H 
ATOM     36  H   H3S d 301      17.988   7.752  31.155  0.00  0.00     0.078 H 
ATOM     37  H   H3S d 301      18.607   9.287  30.547  0.00  0.00     0.078 H 
ATOM     38  H   H3S d 301      18.990   3.809  32.264  0.00  0.00     0.085 H 
ATOM     39  H   H3S d 301      18.367   9.485  32.948  0.00  0.00     0.090 H 
ATOM     40  H   H3S d 301      14.221  13.308  37.012  0.00  0.00     0.231 HD
ATOM     41  H   H3S d 301      15.496   7.752  35.431  0.00  0.00     0.210 HD
ATOM     42  H   H3S d 301      18.312   3.665  34.683  0.00  0.00     0.093 H 
ATOM     43  H   H3S d 301      18.297  10.800  34.417  0.00  0.00     0.212 HD
ATOM     44  H   H3S d 301      13.351  13.343  34.626  0.00  0.00     0.231 HD
ATOM     45  H   H3S d 301      15.883   8.447  30.482  0.00  0.00     0.209 HD
ATOM     46  H   H3S d 301      15.779  12.473  35.323  0.00  0.00     0.140 HD
ATOM     47  H   H3S d 301      17.128   5.797  35.702  0.00  0.00     0.097 H 
ATOM     48  H   H3S d 301      12.374  10.496  36.501  0.00  0.00     0.231 HD
ATOM     49  H   H3S d 301      16.282   5.047  33.187  0.00  0.00     0.210 HD
ATOM     50  H   H3S d 301      17.048   9.460  35.072  0.00  0.00     0.089 H 
ENDROOT
TORSDOF 15
ENDMDL
MODEL 27
REMARK VINA RESULT:      -5.5      3.145      7.833
REMARK  0 active torsions:
REMARK  status: ('A' for Active; 'I' for Inactive)
REMARK       I    between atoms: C10_1  and  O15_19 
REMARK       I    between atoms: C7_2  and  O3_5 
REMARK       I    between atoms: C1_3  and  O3_5 
REMARK       I    between atoms: C8_4  and  N14_22 
REMARK       I    between atoms: C6_6  and  C2_9 
REMARK       I    between atoms: C6_6  and  O11_21 
REMARK       I    between atoms: O29_11  and  S20_31 
REMARK       I    between atoms: O9_13  and  C4_28 
REMARK       I    between atoms: C27_15  and  C19_29 
REMARK       I    between atoms: C17_16  and  O25_27 
REMARK       I    between atoms: S26_18  and  O18_24 
REMARK       I    between atoms: O30_20  and  S20_31 
REMARK       I    between atoms: N14_22  and  S20_31 
REMARK       I    between atoms: C12_23  and  O18_24 
REMARK       I    between atoms: O28_26  and  S20_31 
ROOT
ATOM      1  C10 H3S d 301      17.463   7.460  35.085  0.00  0.00     0.147 C 
ATOM      2  C7  H3S d 301      15.485  11.657  36.100  0.00  0.00     0.167 C 
ATOM      3  C1  H3S d 301      15.171   9.356  35.234  0.00  0.00     0.095 C 
ATOM      4  C8  H3S d 301      16.842   8.087  33.811  0.00  0.00     0.081 C 
ATOM      5  O3  H3S d 301      14.551  10.598  35.620  0.00  0.00    -0.348 OA
ATOM      6  C6  H3S d 301      14.786   8.413  37.618  0.00  0.00     0.043 C 
ATOM      7  C24 H3S d 301      13.493  12.912  37.757  0.00  0.00    -0.034 C 
ATOM      8  O34 H3S d 301      15.230  11.017  40.222  0.00  0.00    -0.642 OA
ATOM      9  C2  H3S d 301      15.831   8.625  36.491  0.00  0.00     0.089 C 
ATOM     10  O31 H3S d 301      17.870  15.499  35.675  0.00  0.00    -0.572 OA
ATOM     11  O29 H3S d 301      18.632   8.016  30.412  0.00  0.00    -0.296 OA
ATOM     12  O35 H3S d 301      13.133  11.798  40.445  0.00  0.00    -0.642 OA
ATOM     13  O9  H3S d 301      15.687  10.102  33.000  0.00  0.00    -0.391 OA
ATOM     14  O13 H3S d 301      15.525  11.657  37.585  0.00  0.00    -0.311 OA
ATOM     15  C27 H3S d 301      14.299  11.594  39.706  0.00  0.00     0.233 C 
ATOM     16  C17 H3S d 301      13.624  13.428  36.304  0.00  0.00     0.086 C 
ATOM     17  O32 H3S d 301      17.793  13.461  34.562  0.00  0.00    -0.572 OA
ATOM     18  S26 H3S d 301      16.999  14.554  35.057  0.00  0.00     0.252 S 
ATOM     19  O15 H3S d 301      18.576   8.273  35.545  0.00  0.00    -0.369 OA
ATOM     20  O30 H3S d 301      16.947   6.275  31.153  0.00  0.00    -0.296 OA
ATOM     21  O11 H3S d 301      13.821   7.407  37.262  0.00  0.00    -0.398 OA
ATOM     22  N14 H3S d 301      17.869   8.206  32.785  0.00  0.00    -0.210 NA
ATOM     23  C12 H3S d 301      15.028  13.095  35.641  0.00  0.00     0.135 C 
ATOM     24  O18 H3S d 301      15.990  14.067  36.135  0.00  0.00    -0.244 OA
ATOM     25  O33 H3S d 301      16.206  15.299  33.803  0.00  0.00    -0.572 OA
ATOM     26  O28 H3S d 301      16.452   8.720  30.769  0.00  0.00    -0.296 OA
ATOM     27  O25 H3S d 301      12.577  12.853  35.510  0.00  0.00    -0.389 OA
ATOM     28  C4  H3S d 301      16.265   9.477  34.156  0.00  0.00     0.083 C 
ATOM     29  C19 H3S d 301      14.426  12.073  38.316  0.00  0.00     0.147 C 
ATOM     30  O5  H3S d 301      16.457   7.344  36.147  0.00  0.00    -0.350 OA
ATOM     31  S20 H3S d 301      17.481   7.845  31.228  0.00  0.00     0.156 S 
ATOM     32  H   H3S d 301      17.818   6.479  34.844  0.00  0.00     0.131 H 
ATOM     33  H   H3S d 301      16.446  11.440  35.683  0.00  0.00     0.134 H 
ATOM     34  H   H3S d 301      14.363   8.792  34.819  0.00  0.00     0.091 H 
ATOM     35  H   H3S d 301      16.053   7.465  33.444  0.00  0.00     0.076 H 
ATOM     36  H   H3S d 301      14.275   9.336  37.796  0.00  0.00     0.078 H 
ATOM     37  H   H3S d 301      15.302   8.086  38.496  0.00  0.00     0.078 H 
ATOM     38  H   H3S d 301      12.682  13.205  38.322  0.00  0.00     0.085 H 
ATOM     39  H   H3S d 301      16.608   9.274  36.839  0.00  0.00     0.090 H 
ATOM     40  H   H3S d 301      19.336   7.424  30.718  0.00  0.00     0.231 HD
ATOM     41  H   H3S d 301      15.333  10.971  33.246  0.00  0.00     0.210 HD
ATOM     42  H   H3S d 301      13.546  14.495  36.342  0.00  0.00     0.093 H 
ATOM     43  H   H3S d 301      18.258   9.162  35.764  0.00  0.00     0.212 HD
ATOM     44  H   H3S d 301      17.647   5.680  31.465  0.00  0.00     0.231 HD
ATOM     45  H   H3S d 301      13.342   7.686  36.465  0.00  0.00     0.209 HD
ATOM     46  H   H3S d 301      18.634   7.587  33.054  0.00  0.00     0.140 HD
ATOM     47  H   H3S d 301      14.958  13.129  34.573  0.00  0.00     0.097 H 
ATOM     48  H   H3S d 301      16.228   8.502  29.851  0.00  0.00     0.231 HD
ATOM     49  H   H3S d 301      12.676  11.888  35.496  0.00  0.00     0.210 HD
ATOM     50  H   H3S d 301      17.076  10.074  34.517  0.00  0.00     0.089 H 
ENDROOT
TORSDOF 15
ENDMDL
MODEL 28
REMARK VINA RESULT:      -5.5      3.737      6.901
REMARK  0 active torsions:
REMARK  status: ('A' for Active; 'I' for Inactive)
REMARK       I    between atoms: C10_1  and  O15_19 
REMARK       I    between atoms: C7_2  and  O3_5 
REMARK       I    between atoms: C1_3  and  O3_5 
REMARK       I    between atoms: C8_4  and  N14_22 
REMARK       I    between atoms: C6_6  and  C2_9 
REMARK       I    between atoms: C6_6  and  O11_21 
REMARK       I    between atoms: O29_11  and  S20_31 
REMARK       I    between atoms: O9_13  and  C4_28 
REMARK       I    between atoms: C27_15  and  C19_29 
REMARK       I    between atoms: C17_16  and  O25_27 
REMARK       I    between atoms: S26_18  and  O18_24 
REMARK       I    between atoms: O30_20  and  S20_31 
REMARK       I    between atoms: N14_22  and  S20_31 
REMARK       I    between atoms: C12_23  and  O18_24 
REMARK       I    between atoms: O28_26  and  S20_31 
ROOT
ATOM      1  C10 H3S d 301      16.835   6.473  34.801  0.00  0.00     0.147 C 
ATOM      2  C7  H3S d 301      18.542  10.256  32.490  0.00  0.00     0.167 C 
ATOM      3  C1  H3S d 301      16.740   8.564  32.681  0.00  0.00     0.095 C 
ATOM      4  C8  H3S d 301      17.079   6.131  33.309  0.00  0.00     0.081 C 
ATOM      5  O3  H3S d 301      17.211   9.761  32.032  0.00  0.00    -0.348 OA
ATOM      6  C6  H3S d 301      15.451   9.999  34.413  0.00  0.00     0.043 C 
ATOM      7  C24 H3S d 301      17.951  12.994  31.823  0.00  0.00    -0.034 C 
ATOM      8  O34 H3S d 301      17.319  13.070  35.327  0.00  0.00    -0.642 OA
ATOM      9  C2  H3S d 301      16.447   8.823  34.230  0.00  0.00     0.089 C 
ATOM     10  O31 H3S d 301      23.021  10.892  32.090  0.00  0.00    -0.572 OA
ATOM     11  O29 H3S d 301      18.665   2.811  32.201  0.00  0.00    -0.296 OA
ATOM     12  O35 H3S d 301      16.508  14.553  33.844  0.00  0.00    -0.642 OA
ATOM     13  O9  H3S d 301      17.946   7.081  31.212  0.00  0.00    -0.391 OA
ATOM     14  O13 H3S d 301      18.359  11.332  33.498  0.00  0.00    -0.311 OA
ATOM     15  C27 H3S d 301      17.217  13.395  34.165  0.00  0.00     0.233 C 
ATOM     16  C17 H3S d 301      18.626  12.135  30.728  0.00  0.00     0.086 C 
ATOM     17  O32 H3S d 301      21.605   9.051  32.155  0.00  0.00    -0.572 OA
ATOM     18  S26 H3S d 301      21.836  10.328  31.532  0.00  0.00     0.252 S 
ATOM     19  O15 H3S d 301      18.101   6.747  35.458  0.00  0.00    -0.369 OA
ATOM     20  O30 H3S d 301      16.166   3.191  32.370  0.00  0.00    -0.296 OA
ATOM     21  O11 H3S d 301      14.122   9.636  33.996  0.00  0.00    -0.398 OA
ATOM     22  N14 H3S d 301      17.978   4.990  33.219  0.00  0.00    -0.210 NA
ATOM     23  C12 H3S d 301      19.383  10.862  31.301  0.00  0.00     0.135 C 
ATOM     24  O18 H3S d 301      20.665  11.309  31.822  0.00  0.00    -0.244 OA
ATOM     25  O33 H3S d 301      22.053  10.136  29.898  0.00  0.00    -0.572 OA
ATOM     26  O28 H3S d 301      17.724   4.389  30.788  0.00  0.00    -0.296 OA
ATOM     27  O25 H3S d 301      17.628  11.709  29.790  0.00  0.00    -0.389 OA
ATOM     28  C4  H3S d 301      17.693   7.356  32.597  0.00  0.00     0.083 C 
ATOM     29  C19 H3S d 301      17.853  12.564  33.124  0.00  0.00     0.147 C 
ATOM     30  O5  H3S d 301      15.945   7.634  34.926  0.00  0.00    -0.350 OA
ATOM     31  S20 H3S d 301      17.675   3.826  32.097  0.00  0.00     0.156 S 
ATOM     32  H   H3S d 301      16.367   5.634  35.271  0.00  0.00     0.131 H 
ATOM     33  H   H3S d 301      19.062   9.417  32.902  0.00  0.00     0.134 H 
ATOM     34  H   H3S d 301      15.852   8.319  32.139  0.00  0.00     0.091 H 
ATOM     35  H   H3S d 301      16.153   5.883  32.834  0.00  0.00     0.076 H 
ATOM     36  H   H3S d 301      15.783  10.830  33.828  0.00  0.00     0.078 H 
ATOM     37  H   H3S d 301      15.419  10.251  35.453  0.00  0.00     0.078 H 
ATOM     38  H   H3S d 301      17.564  13.916  31.570  0.00  0.00     0.085 H 
ATOM     39  H   H3S d 301      17.387   9.076  34.672  0.00  0.00     0.090 H 
ATOM     40  H   H3S d 301      18.638   2.423  33.090  0.00  0.00     0.231 HD
ATOM     41  H   H3S d 301      18.331   7.866  30.792  0.00  0.00     0.210 HD
ATOM     42  H   H3S d 301      19.367  12.748  30.259  0.00  0.00     0.093 H 
ATOM     43  H   H3S d 301      18.527   7.508  35.034  0.00  0.00     0.212 HD
ATOM     44  H   H3S d 301      16.133   2.808  33.260  0.00  0.00     0.231 HD
ATOM     45  H   H3S d 301      14.131   9.404  33.054  0.00  0.00     0.209 HD
ATOM     46  H   H3S d 301      17.975   4.534  34.131  0.00  0.00     0.140 HD
ATOM     47  H   H3S d 301      19.513  10.124  30.537  0.00  0.00     0.097 H 
ATOM     48  H   H3S d 301      17.545   3.699  30.131  0.00  0.00     0.231 HD
ATOM     49  H   H3S d 301      16.973  11.155  30.245  0.00  0.00     0.210 HD
ATOM     50  H   H3S d 301      18.616   7.577  33.092  0.00  0.00     0.089 H 
ENDROOT
TORSDOF 15
ENDMDL
MODEL 29
REMARK VINA RESULT:      -5.4      3.974      7.570
REMARK  0 active torsions:
REMARK  status: ('A' for Active; 'I' for Inactive)
REMARK       I    between atoms: C10_1  and  O15_19 
REMARK       I    between atoms: C7_2  and  O3_5 
REMARK       I    between atoms: C1_3  and  O3_5 
REMARK       I    between atoms: C8_4  and  N14_22 
REMARK       I    between atoms: C6_6  and  C2_9 
REMARK       I    between atoms: C6_6  and  O11_21 
REMARK       I    between atoms: O29_11  and  S20_31 
REMARK       I    between atoms: O9_13  and  C4_28 
REMARK       I    between atoms: C27_15  and  C19_29 
REMARK       I    between atoms: C17_16  and  O25_27 
REMARK       I    between atoms: S26_18  and  O18_24 
REMARK       I    between atoms: O30_20  and  S20_31 
REMARK       I    between atoms: N14_22  and  S20_31 
REMARK       I    between atoms: C12_23  and  O18_24 
REMARK       I    between atoms: O28_26  and  S20_31 
ROOT
ATOM      1  C10 H3S d 301      18.905  12.689  30.182  0.00  0.00     0.147 C 
ATOM      2  C7  H3S d 301      17.334   9.177  32.967  0.00  0.00     0.167 C 
ATOM      3  C1  H3S d 301      18.516  11.350  32.814  0.00  0.00     0.095 C 
ATOM      4  C8  H3S d 301      20.085  12.034  30.944  0.00  0.00     0.081 C 
ATOM      5  O3  H3S d 301      17.967  10.330  33.671  0.00  0.00    -0.348 OA
ATOM      6  C6  H3S d 301      16.291  12.674  32.950  0.00  0.00     0.043 C 
ATOM      7  C24 H3S d 301      15.538   8.606  35.144  0.00  0.00    -0.034 C 
ATOM      8  O34 H3S d 301      13.345  10.422  33.005  0.00  0.00    -0.642 OA
ATOM      9  C2  H3S d 301      17.367  12.095  31.993  0.00  0.00     0.089 C 
ATOM     10  O31 H3S d 301      17.193   4.902  31.439  0.00  0.00    -0.572 OA
ATOM     11  O29 H3S d 301      23.443  11.259  29.245  0.00  0.00    -0.296 OA
ATOM     12  O35 H3S d 301      13.035  10.133  35.213  0.00  0.00    -0.642 OA
ATOM     13  O9  H3S d 301      20.618  10.210  32.508  0.00  0.00    -0.391 OA
ATOM     14  O13 H3S d 301      15.862   9.375  32.899  0.00  0.00    -0.311 OA
ATOM     15  C27 H3S d 301      13.784   9.985  34.045  0.00  0.00     0.233 C 
ATOM     16  C17 H3S d 301      16.902   7.877  35.151  0.00  0.00     0.086 C 
ATOM     17  O32 H3S d 301      18.581   6.737  31.113  0.00  0.00    -0.572 OA
ATOM     18  S26 H3S d 301      17.946   5.912  32.108  0.00  0.00     0.252 S 
ATOM     19  O15 H3S d 301      18.325  11.734  29.253  0.00  0.00    -0.369 OA
ATOM     20  O30 H3S d 301      22.969  13.398  30.517  0.00  0.00    -0.296 OA
ATOM     21  O11 H3S d 301      16.794  13.799  33.692  0.00  0.00    -0.398 OA
ATOM     22  N14 H3S d 301      21.074  11.563  29.985  0.00  0.00    -0.210 NA
ATOM     23  C12 H3S d 301      17.592   7.816  33.722  0.00  0.00     0.135 C 
ATOM     24  O18 H3S d 301      16.957   6.744  32.972  0.00  0.00    -0.244 OA
ATOM     25  O33 H3S d 301      19.092   5.182  33.061  0.00  0.00    -0.572 OA
ATOM     26  O28 H3S d 301      23.013  11.080  31.515  0.00  0.00    -0.296 OA
ATOM     27  O25 H3S d 301      17.780   8.542  36.071  0.00  0.00    -0.389 OA
ATOM     28  C4  H3S d 301      19.555  10.856  31.790  0.00  0.00     0.083 C 
ATOM     29  C19 H3S d 301      15.092   9.302  34.047  0.00  0.00     0.147 C 
ATOM     30  O5  H3S d 301      17.879  13.158  31.122  0.00  0.00    -0.350 OA
ATOM     31  S20 H3S d 301      22.670  11.777  30.319  0.00  0.00     0.156 S 
ATOM     32  H   H3S d 301      19.277  13.531  29.637  0.00  0.00     0.131 H 
ATOM     33  H   H3S d 301      17.768   9.130  31.990  0.00  0.00     0.134 H 
ATOM     34  H   H3S d 301      19.013  12.007  33.496  0.00  0.00     0.091 H 
ATOM     35  H   H3S d 301      20.543  12.749  31.594  0.00  0.00     0.076 H 
ATOM     36  H   H3S d 301      15.991  11.911  33.637  0.00  0.00     0.078 H 
ATOM     37  H   H3S d 301      15.462  13.005  32.360  0.00  0.00     0.078 H 
ATOM     38  H   H3S d 301      14.945   8.569  35.988  0.00  0.00     0.085 H 
ATOM     39  H   H3S d 301      16.924  11.354  31.361  0.00  0.00     0.090 H 
ATOM     40  H   H3S d 301      23.215  11.729  28.427  0.00  0.00     0.231 HD
ATOM     41  H   H3S d 301      20.257   9.477  33.029  0.00  0.00     0.210 HD
ATOM     42  H   H3S d 301      16.717   6.866  35.448  0.00  0.00     0.093 H 
ATOM     43  H   H3S d 301      17.987  10.970  29.745  0.00  0.00     0.212 HD
ATOM     44  H   H3S d 301      22.736  13.871  29.704  0.00  0.00     0.231 HD
ATOM     45  H   H3S d 301      17.548  13.518  34.234  0.00  0.00     0.209 HD
ATOM     46  H   H3S d 301      20.886  12.040  29.103  0.00  0.00     0.140 HD
ATOM     47  H   H3S d 301      18.645   7.649  33.817  0.00  0.00     0.097 H 
ATOM     48  H   H3S d 301      23.954  11.210  31.707  0.00  0.00     0.231 HD
ATOM     49  H   H3S d 301      17.928   9.454  35.774  0.00  0.00     0.210 HD
ATOM     50  H   H3S d 301      19.106  10.159  31.113  0.00  0.00     0.089 H 
ENDROOT
TORSDOF 15
ENDMDL
MODEL 30
REMARK VINA RESULT:      -5.4      2.917      6.406
REMARK  0 active torsions:
REMARK  status: ('A' for Active; 'I' for Inactive)
REMARK       I    between atoms: C10_1  and  O15_19 
REMARK       I    between atoms: C7_2  and  O3_5 
REMARK       I    between atoms: C1_3  and  O3_5 
REMARK       I    between atoms: C8_4  and  N14_22 
REMARK       I    between atoms: C6_6  and  C2_9 
REMARK       I    between atoms: C6_6  and  O11_21 
REMARK       I    between atoms: O29_11  and  S20_31 
REMARK       I    between atoms: O9_13  and  C4_28 
REMARK       I    between atoms: C27_15  and  C19_29 
REMARK       I    between atoms: C17_16  and  O25_27 
REMARK       I    between atoms: S26_18  and  O18_24 
REMARK       I    between atoms: O30_20  and  S20_31 
REMARK       I    between atoms: N14_22  and  S20_31 
REMARK       I    between atoms: C12_23  and  O18_24 
REMARK       I    between atoms: O28_26  and  S20_31 
ROOT
ATOM      1  C10 H3S d 301      14.760  10.915  33.290  0.00  0.00     0.147 C 
ATOM      2  C7  H3S d 301      16.425   8.760  37.182  0.00  0.00     0.167 C 
ATOM      3  C1  H3S d 301      16.029  10.894  35.984  0.00  0.00     0.095 C 
ATOM      4  C8  H3S d 301      16.264  11.234  33.484  0.00  0.00     0.081 C 
ATOM      5  O3  H3S d 301      16.457  10.251  37.201  0.00  0.00    -0.348 OA
ATOM      6  C6  H3S d 301      13.617  11.076  36.918  0.00  0.00     0.043 C 
ATOM      7  C24 H3S d 301      16.046   8.553  40.027  0.00  0.00    -0.034 C 
ATOM      8  O34 H3S d 301      12.687   8.103  38.931  0.00  0.00    -0.642 OA
ATOM      9  C2  H3S d 301      14.479  10.631  35.706  0.00  0.00     0.089 C 
ATOM     10  O31 H3S d 301      18.313   4.638  36.911  0.00  0.00    -0.572 OA
ATOM     11  O29 H3S d 301      18.749  11.245  30.553  0.00  0.00    -0.296 OA
ATOM     12  O35 H3S d 301      13.286   8.750  41.000  0.00  0.00    -0.642 OA
ATOM     13  O9  H3S d 301      18.190  10.729  34.929  0.00  0.00    -0.391 OA
ATOM     14  O13 H3S d 301      15.172   8.274  37.816  0.00  0.00    -0.311 OA
ATOM     15  C27 H3S d 301      13.587   8.413  39.680  0.00  0.00     0.233 C 
ATOM     16  C17 H3S d 301      17.505   8.548  39.512  0.00  0.00     0.086 C 
ATOM     17  O32 H3S d 301      18.215   6.512  35.541  0.00  0.00    -0.572 OA
ATOM     18  S26 H3S d 301      18.507   6.050  36.873  0.00  0.00     0.252 S 
ATOM     19  O15 H3S d 301      14.587   9.500  33.011  0.00  0.00    -0.369 OA
ATOM     20  O30 H3S d 301      17.545  13.313  31.385  0.00  0.00    -0.296 OA
ATOM     21  O11 H3S d 301      13.578  12.509  37.041  0.00  0.00    -0.398 OA
ATOM     22  N14 H3S d 301      16.997  10.838  32.289  0.00  0.00    -0.210 NA
ATOM     23  C12 H3S d 301      17.632   8.137  37.984  0.00  0.00     0.135 C 
ATOM     24  O18 H3S d 301      17.538   6.687  37.909  0.00  0.00    -0.244 OA
ATOM     25  O33 H3S d 301      20.086   6.383  37.261  0.00  0.00    -0.572 OA
ATOM     26  O28 H3S d 301      19.211  11.957  32.710  0.00  0.00    -0.296 OA
ATOM     27  O25 H3S d 301      18.068   9.854  39.699  0.00  0.00    -0.389 OA
ATOM     28  C4  H3S d 301      16.794  10.470  34.716  0.00  0.00     0.083 C 
ATOM     29  C19 H3S d 301      14.975   8.418  39.178  0.00  0.00     0.147 C 
ATOM     30  O5  H3S d 301      13.995  11.286  34.487  0.00  0.00    -0.350 OA
ATOM     31  S20 H3S d 301      18.189  11.821  31.725  0.00  0.00     0.156 S 
ATOM     32  H   H3S d 301      14.394  11.486  32.462  0.00  0.00     0.131 H 
ATOM     33  H   H3S d 301      16.487   8.459  36.156  0.00  0.00     0.134 H 
ATOM     34  H   H3S d 301      16.236  11.928  36.163  0.00  0.00     0.091 H 
ATOM     35  H   H3S d 301      16.398  12.284  33.642  0.00  0.00     0.076 H 
ATOM     36  H   H3S d 301      14.035  10.662  37.812  0.00  0.00     0.078 H 
ATOM     37  H   H3S d 301      12.618  10.725  36.765  0.00  0.00     0.078 H 
ATOM     38  H   H3S d 301      15.872   8.662  41.039  0.00  0.00     0.085 H 
ATOM     39  H   H3S d 301      14.377   9.576  35.561  0.00  0.00     0.090 H 
ATOM     40  H   H3S d 301      18.059  11.149  29.878  0.00  0.00     0.231 HD
ATOM     41  H   H3S d 301      18.495  10.237  35.707  0.00  0.00     0.210 HD
ATOM     42  H   H3S d 301      18.034   7.809  40.076  0.00  0.00     0.093 H 
ATOM     43  H   H3S d 301      14.918   8.980  33.760  0.00  0.00     0.212 HD
ATOM     44  H   H3S d 301      16.849  13.220  30.716  0.00  0.00     0.231 HD
ATOM     45  H   H3S d 301      14.477  12.847  37.180  0.00  0.00     0.209 HD
ATOM     46  H   H3S d 301      16.313  10.736  31.539  0.00  0.00     0.140 HD
ATOM     47  H   H3S d 301      18.557   8.486  37.575  0.00  0.00     0.097 H 
ATOM     48  H   H3S d 301      19.911  12.538  32.372  0.00  0.00     0.231 HD
ATOM     49  H   H3S d 301      17.567  10.500  39.176  0.00  0.00     0.210 HD
ATOM     50  H   H3S d 301      16.649   9.427  34.526  0.00  0.00     0.089 H 
ENDROOT
TORSDOF 15
ENDMDL
MODEL 31
REMARK VINA RESULT:      -5.4      2.038      2.427
REMARK  0 active torsions:
REMARK  status: ('A' for Active; 'I' for Inactive)
REMARK       I    between atoms: C10_1  and  O15_19 
REMARK       I    between atoms: C7_2  and  O3_5 
REMARK       I    between atoms: C1_3  and  O3_5 
REMARK       I    between atoms: C8_4  and  N14_22 
REMARK       I    between atoms: C6_6  and  C2_9 
REMARK       I    between atoms: C6_6  and  O11_21 
REMARK       I    between atoms: O29_11  and  S20_31 
REMARK       I    between atoms: O9_13  and  C4_28 
REMARK       I    between atoms: C27_15  and  C19_29 
REMARK       I    between atoms: C17_16  and  O25_27 
REMARK       I    between atoms: S26_18  and  O18_24 
REMARK       I    between atoms: O30_20  and  S20_31 
REMARK       I    between atoms: N14_22  and  S20_31 
REMARK       I    between atoms: C12_23  and  O18_24 
REMARK       I    between atoms: O28_26  and  S20_31 
ROOT
ATOM      1  C10 H3S d 301      13.091  12.644  36.280  0.00  0.00     0.147 C 
ATOM      2  C7  H3S d 301      16.709   9.660  35.522  0.00  0.00     0.167 C 
ATOM      3  C1  H3S d 301      14.253   9.990  35.591  0.00  0.00     0.095 C 
ATOM      4  C8  H3S d 301      13.018  11.445  37.259  0.00  0.00     0.081 C 
ATOM      5  O3  H3S d 301      15.346   9.105  35.278  0.00  0.00    -0.348 OA
ATOM      6  C6  H3S d 301      14.201  10.812  33.133  0.00  0.00     0.043 C 
ATOM      7  C24 H3S d 301      17.936   8.012  33.507  0.00  0.00    -0.034 C 
ATOM      8  O34 H3S d 301      17.608  11.055  31.686  0.00  0.00    -0.642 OA
ATOM      9  C2  H3S d 301      14.237  11.257  34.619  0.00  0.00     0.089 C 
ATOM     10  O31 H3S d 301      20.587  10.093  37.845  0.00  0.00    -0.572 OA
ATOM     11  O29 H3S d 301      12.145  11.886  40.975  0.00  0.00    -0.296 OA
ATOM     12  O35 H3S d 301      17.852   9.022  30.755  0.00  0.00    -0.642 OA
ATOM     13  O9  H3S d 301      14.218   9.405  37.930  0.00  0.00    -0.391 OA
ATOM     14  O13 H3S d 301      17.272  10.188  34.252  0.00  0.00    -0.311 OA
ATOM     15  C27 H3S d 301      17.693   9.859  31.860  0.00  0.00     0.233 C 
ATOM     16  C17 H3S d 301      17.889   7.443  34.945  0.00  0.00     0.086 C 
ATOM     17  O32 H3S d 301      18.334  10.443  38.295  0.00  0.00    -0.572 OA
ATOM     18  S26 H3S d 301      19.291   9.502  37.775  0.00  0.00     0.252 S 
ATOM     19  O15 H3S d 301      14.272  13.442  36.563  0.00  0.00    -0.369 OA
ATOM     20  O30 H3S d 301      10.438  11.352  39.181  0.00  0.00    -0.296 OA
ATOM     21  O11 H3S d 301      12.924  10.250  32.780  0.00  0.00    -0.398 OA
ATOM     22  N14 H3S d 301      13.004  11.943  38.627  0.00  0.00    -0.210 NA
ATOM     23  C12 H3S d 301      17.703   8.560  36.059  0.00  0.00     0.135 C 
ATOM     24  O18 H3S d 301      19.001   9.179  36.282  0.00  0.00    -0.244 OA
ATOM     25  O33 H3S d 301      19.286   8.116  38.690  0.00  0.00    -0.572 OA
ATOM     26  O28 H3S d 301      12.349   9.856  39.874  0.00  0.00    -0.296 OA
ATOM     27  O25 H3S d 301      16.812   6.500  35.037  0.00  0.00    -0.389 OA
ATOM     28  C4  H3S d 301      14.239  10.527  37.035  0.00  0.00     0.083 C 
ATOM     29  C19 H3S d 301      17.635   9.324  33.234  0.00  0.00     0.147 C 
ATOM     30  O5  H3S d 301      13.127  12.175  34.889  0.00  0.00    -0.350 OA
ATOM     31  S20 H3S d 301      12.002  11.231  39.721  0.00  0.00     0.156 S 
ATOM     32  H   H3S d 301      12.217  13.247  36.413  0.00  0.00     0.131 H 
ATOM     33  H   H3S d 301      16.605  10.433  36.255  0.00  0.00     0.134 H 
ATOM     34  H   H3S d 301      13.388   9.373  35.462  0.00  0.00     0.091 H 
ATOM     35  H   H3S d 301      12.125  10.884  37.084  0.00  0.00     0.076 H 
ATOM     36  H   H3S d 301      14.961  10.075  32.972  0.00  0.00     0.078 H 
ATOM     37  H   H3S d 301      14.369  11.674  32.522  0.00  0.00     0.078 H 
ATOM     38  H   H3S d 301      18.201   7.387  32.730  0.00  0.00     0.085 H 
ATOM     39  H   H3S d 301      15.144  11.791  34.813  0.00  0.00     0.090 H 
ATOM     40  H   H3S d 301      11.911  12.822  40.879  0.00  0.00     0.231 HD
ATOM     41  H   H3S d 301      14.994   8.847  37.767  0.00  0.00     0.210 HD
ATOM     42  H   H3S d 301      18.834   6.978  35.130  0.00  0.00     0.093 H 
ATOM     43  H   H3S d 301      15.066  12.898  36.443  0.00  0.00     0.212 HD
ATOM     44  H   H3S d 301      10.202  12.287  39.077  0.00  0.00     0.231 HD
ATOM     45  H   H3S d 301      12.754   9.466  33.326  0.00  0.00     0.209 HD
ATOM     46  H   H3S d 301      12.747  12.929  38.584  0.00  0.00     0.140 HD
ATOM     47  H   H3S d 301      17.318   8.133  36.961  0.00  0.00     0.097 H 
ATOM     48  H   H3S d 301      11.755   9.443  40.519  0.00  0.00     0.231 HD
ATOM     49  H   H3S d 301      15.971   6.952  34.865  0.00  0.00     0.210 HD
ATOM     50  H   H3S d 301      15.113  11.115  37.220  0.00  0.00     0.089 H 
ENDROOT
TORSDOF 15
ENDMDL
MODEL 32
REMARK VINA RESULT:      -5.4      4.086      7.586
REMARK  0 active torsions:
REMARK  status: ('A' for Active; 'I' for Inactive)
REMARK       I    between atoms: C10_1  and  O15_19 
REMARK       I    between atoms: C7_2  and  O3_5 
REMARK       I    between atoms: C1_3  and  O3_5 
REMARK       I    between atoms: C8_4  and  N14_22 
REMARK       I    between atoms: C6_6  and  C2_9 
REMARK       I    between atoms: C6_6  and  O11_21 
REMARK       I    between atoms: O29_11  and  S20_31 
REMARK       I    between atoms: O9_13  and  C4_28 
REMARK       I    between atoms: C27_15  and  C19_29 
REMARK       I    between atoms: C17_16  and  O25_27 
REMARK       I    between atoms: S26_18  and  O18_24 
REMARK       I    between atoms: O30_20  and  S20_31 
REMARK       I    between atoms: N14_22  and  S20_31 
REMARK       I    between atoms: C12_23  and  O18_24 
REMARK       I    between atoms: O28_26  and  S20_31 
ROOT
ATOM      1  C10 H3S d 301      17.840   7.660  29.952  0.00  0.00     0.147 C 
ATOM      2  C7  H3S d 301      18.042  11.753  32.354  0.00  0.00     0.167 C 
ATOM      3  C1  H3S d 301      19.212   9.682  31.654  0.00  0.00     0.095 C 
ATOM      4  C8  H3S d 301      18.140   7.395  31.449  0.00  0.00     0.081 C 
ATOM      5  O3  H3S d 301      19.306  10.961  32.312  0.00  0.00    -0.348 OA
ATOM      6  C6  H3S d 301      19.984  10.761  29.427  0.00  0.00     0.043 C 
ATOM      7  C24 H3S d 301      19.420  14.278  32.467  0.00  0.00    -0.034 C 
ATOM      8  O34 H3S d 301      18.613  14.181  29.000  0.00  0.00    -0.642 OA
ATOM      9  C2  H3S d 301      18.916   9.855  30.094  0.00  0.00     0.089 C 
ATOM     10  O31 H3S d 301      14.339  13.432  34.376  0.00  0.00    -0.572 OA
ATOM     11  O29 H3S d 301      16.450   4.551  33.404  0.00  0.00    -0.296 OA
ATOM     12  O35 H3S d 301      20.243  15.440  29.903  0.00  0.00    -0.642 OA
ATOM     13  O9  H3S d 301      18.400   8.536  33.613  0.00  0.00    -0.391 OA
ATOM     14  O13 H3S d 301      18.036  12.749  31.251  0.00  0.00    -0.311 OA
ATOM     15  C27 H3S d 301      19.234  14.481  29.996  0.00  0.00     0.233 C 
ATOM     16  C17 H3S d 301      19.068  13.610  33.817  0.00  0.00     0.086 C 
ATOM     17  O32 H3S d 301      15.182  11.308  33.955  0.00  0.00    -0.572 OA
ATOM     18  S26 H3S d 301      15.497  12.607  34.490  0.00  0.00     0.252 S 
ATOM     19  O15 H3S d 301      16.507   8.221  29.807  0.00  0.00    -0.369 OA
ATOM     20  O30 H3S d 301      18.696   4.328  32.253  0.00  0.00    -0.296 OA
ATOM     21  O11 H3S d 301      21.258  10.098  29.336  0.00  0.00    -0.398 OA
ATOM     22  N14 H3S d 301      17.128   6.499  31.990  0.00  0.00    -0.210 NA
ATOM     23  C12 H3S d 301      17.893  12.548  33.708  0.00  0.00     0.135 C 
ATOM     24  O18 H3S d 301      16.638  13.282  33.677  0.00  0.00    -0.244 OA
ATOM     25  O33 H3S d 301      15.909  12.482  36.092  0.00  0.00    -0.572 OA
ATOM     26  O28 H3S d 301      18.189   5.870  34.185  0.00  0.00    -0.296 OA
ATOM     27  O25 H3S d 301      20.240  12.966  34.337  0.00  0.00    -0.389 OA
ATOM     28  C4  H3S d 301      18.136   8.735  32.217  0.00  0.00     0.083 C 
ATOM     29  C19 H3S d 301      18.901  13.830  31.277  0.00  0.00     0.147 C 
ATOM     30  O5  H3S d 301      18.833   8.577  29.380  0.00  0.00    -0.350 OA
ATOM     31  S20 H3S d 301      17.593   5.303  33.020  0.00  0.00     0.156 S 
ATOM     32  H   H3S d 301      17.891   6.731  29.424  0.00  0.00     0.131 H 
ATOM     33  H   H3S d 301      17.234  11.059  32.258  0.00  0.00     0.134 H 
ATOM     34  H   H3S d 301      20.168   9.238  31.836  0.00  0.00     0.091 H 
ATOM     35  H   H3S d 301      19.101   6.938  31.554  0.00  0.00     0.076 H 
ATOM     36  H   H3S d 301      20.098  11.652  30.009  0.00  0.00     0.078 H 
ATOM     37  H   H3S d 301      19.655  10.992  28.436  0.00  0.00     0.078 H 
ATOM     38  H   H3S d 301      20.065  15.084  32.460  0.00  0.00     0.085 H 
ATOM     39  H   H3S d 301      17.955  10.321  30.024  0.00  0.00     0.090 H 
ATOM     40  H   H3S d 301      16.039   4.161  32.616  0.00  0.00     0.231 HD
ATOM     41  H   H3S d 301      18.391   9.392  34.069  0.00  0.00     0.210 HD
ATOM     42  H   H3S d 301      18.725  14.384  34.471  0.00  0.00     0.093 H 
ATOM     43  H   H3S d 301      16.458   9.064  30.285  0.00  0.00     0.212 HD
ATOM     44  H   H3S d 301      18.291   3.942  31.461  0.00  0.00     0.231 HD
ATOM     45  H   H3S d 301      21.574   9.880  30.227  0.00  0.00     0.209 HD
ATOM     46  H   H3S d 301      16.671   6.050  31.197  0.00  0.00     0.140 HD
ATOM     47  H   H3S d 301      17.921  11.867  34.532  0.00  0.00     0.097 H 
ATOM     48  H   H3S d 301      18.461   5.161  34.787  0.00  0.00     0.231 HD
ATOM     49  H   H3S d 301      20.526  12.271  33.723  0.00  0.00     0.210 HD
ATOM     50  H   H3S d 301      17.163   9.164  32.095  0.00  0.00     0.089 H 
ENDROOT
TORSDOF 15
ENDMDL
MODEL 33
REMARK VINA RESULT:      -5.4      2.686      5.508
REMARK  0 active torsions:
REMARK  status: ('A' for Active; 'I' for Inactive)
REMARK       I    between atoms: C10_1  and  O15_19 
REMARK       I    between atoms: C7_2  and  O3_5 
REMARK       I    between atoms: C1_3  and  O3_5 
REMARK       I    between atoms: C8_4  and  N14_22 
REMARK       I    between atoms: C6_6  and  C2_9 
REMARK       I    between atoms: C6_6  and  O11_21 
REMARK       I    between atoms: O29_11  and  S20_31 
REMARK       I    between atoms: O9_13  and  C4_28 
REMARK       I    between atoms: C27_15  and  C19_29 
REMARK       I    between atoms: C17_16  and  O25_27 
REMARK       I    between atoms: S26_18  and  O18_24 
REMARK       I    between atoms: O30_20  and  S20_31 
REMARK       I    between atoms: N14_22  and  S20_31 
REMARK       I    between atoms: C12_23  and  O18_24 
REMARK       I    between atoms: O28_26  and  S20_31 
ROOT
ATOM      1  C10 H3S d 301      14.241  10.409  38.270  0.00  0.00     0.147 C 
ATOM      2  C7  H3S d 301      17.366   7.172  36.746  0.00  0.00     0.167 C 
ATOM      3  C1  H3S d 301      16.994   9.338  37.893  0.00  0.00     0.095 C 
ATOM      4  C8  H3S d 301      15.230  11.045  37.261  0.00  0.00     0.081 C 
ATOM      5  O3  H3S d 301      17.938   8.320  37.509  0.00  0.00    -0.348 OA
ATOM      6  C6  H3S d 301      16.655   8.172  40.183  0.00  0.00     0.043 C 
ATOM      7  C24 H3S d 301      19.385   5.332  37.652  0.00  0.00    -0.034 C 
ATOM      8  O34 H3S d 301      16.740   4.477  39.878  0.00  0.00    -0.642 OA
ATOM      9  C2  H3S d 301      15.935   8.777  38.948  0.00  0.00     0.089 C 
ATOM     10  O31 H3S d 301      16.553   4.771  32.978  0.00  0.00    -0.572 OA
ATOM     11  O29 H3S d 301      14.078  13.476  34.517  0.00  0.00    -0.296 OA
ATOM     12  O35 H3S d 301      18.916   4.041  40.243  0.00  0.00    -0.642 OA
ATOM     13  O9  H3S d 301      17.123  10.501  35.785  0.00  0.00    -0.391 OA
ATOM     14  O13 H3S d 301      17.097   6.038  37.668  0.00  0.00    -0.311 OA
ATOM     15  C27 H3S d 301      17.882   4.603  39.494  0.00  0.00     0.233 C 
ATOM     16  C17 H3S d 301      19.668   6.091  36.334  0.00  0.00     0.086 C 
ATOM     17  O32 H3S d 301      16.092   6.930  33.702  0.00  0.00    -0.572 OA
ATOM     18  S26 H3S d 301      17.129   5.942  33.551  0.00  0.00     0.252 S 
ATOM     19  O15 H3S d 301      13.421   9.415  37.598  0.00  0.00    -0.369 OA
ATOM     20  O30 H3S d 301      14.919  14.214  36.790  0.00  0.00    -0.296 OA
ATOM     21  O11 H3S d 301      17.255   9.194  40.999  0.00  0.00    -0.398 OA
ATOM     22  N14 H3S d 301      14.481  11.635  36.160  0.00  0.00    -0.210 NA
ATOM     23  C12 H3S d 301      18.357   6.652  35.635  0.00  0.00     0.135 C 
ATOM     24  O18 H3S d 301      17.726   5.547  34.932  0.00  0.00    -0.244 OA
ATOM     25  O33 H3S d 301      18.315   6.508  32.537  0.00  0.00    -0.572 OA
ATOM     26  O28 H3S d 301      16.282  12.997  35.049  0.00  0.00    -0.296 OA
ATOM     27  O25 H3S d 301      20.561   7.180  36.607  0.00  0.00    -0.389 OA
ATOM     28  C4  H3S d 301      16.192   9.958  36.733  0.00  0.00     0.083 C 
ATOM     29  C19 H3S d 301      18.145   5.339  38.242  0.00  0.00     0.147 C 
ATOM     30  O5  H3S d 301      14.967   9.788  39.384  0.00  0.00    -0.350 OA
ATOM     31  S20 H3S d 301      14.957  13.093  35.566  0.00  0.00     0.156 S 
ATOM     32  H   H3S d 301      13.611  11.180  38.662  0.00  0.00     0.131 H 
ATOM     33  H   H3S d 301      16.466   7.521  36.284  0.00  0.00     0.134 H 
ATOM     34  H   H3S d 301      17.612  10.104  38.311  0.00  0.00     0.091 H 
ATOM     35  H   H3S d 301      15.802  11.810  37.742  0.00  0.00     0.076 H 
ATOM     36  H   H3S d 301      17.419   7.503  39.847  0.00  0.00     0.078 H 
ATOM     37  H   H3S d 301      15.927   7.656  40.774  0.00  0.00     0.078 H 
ATOM     38  H   H3S d 301      20.150   4.805  38.101  0.00  0.00     0.085 H 
ATOM     39  H   H3S d 301      15.387   8.010  38.441  0.00  0.00     0.090 H 
ATOM     40  H   H3S d 301      13.173  13.543  34.861  0.00  0.00     0.231 HD
ATOM     41  H   H3S d 301      17.712   9.798  35.472  0.00  0.00     0.210 HD
ATOM     42  H   H3S d 301      20.104   5.389  35.654  0.00  0.00     0.093 H 
ATOM     43  H   H3S d 301      13.989   8.715  37.241  0.00  0.00     0.212 HD
ATOM     44  H   H3S d 301      14.018  14.279  37.141  0.00  0.00     0.231 HD
ATOM     45  H   H3S d 301      17.919   9.675  40.478  0.00  0.00     0.209 HD
ATOM     46  H   H3S d 301      13.517  11.741  36.477  0.00  0.00     0.140 HD
ATOM     47  H   H3S d 301      18.599   7.450  34.964  0.00  0.00     0.097 H 
ATOM     48  H   H3S d 301      16.557  13.859  34.701  0.00  0.00     0.231 HD
ATOM     49  H   H3S d 301      20.138   7.797  37.225  0.00  0.00     0.210 HD
ATOM     50  H   H3S d 301      15.591   9.211  36.257  0.00  0.00     0.089 H 
ENDROOT
TORSDOF 15
ENDMDL
MODEL 34
REMARK VINA RESULT:      -5.4      3.440      6.545
REMARK  0 active torsions:
REMARK  status: ('A' for Active; 'I' for Inactive)
REMARK       I    between atoms: C10_1  and  O15_19 
REMARK       I    between atoms: C7_2  and  O3_5 
REMARK       I    between atoms: C1_3  and  O3_5 
REMARK       I    between atoms: C8_4  and  N14_22 
REMARK       I    between atoms: C6_6  and  C2_9 
REMARK       I    between atoms: C6_6  and  O11_21 
REMARK       I    between atoms: O29_11  and  S20_31 
REMARK       I    between atoms: O9_13  and  C4_28 
REMARK       I    between atoms: C27_15  and  C19_29 
REMARK       I    between atoms: C17_16  and  O25_27 
REMARK       I    between atoms: S26_18  and  O18_24 
REMARK       I    between atoms: O30_20  and  S20_31 
REMARK       I    between atoms: N14_22  and  S20_31 
REMARK       I    between atoms: C12_23  and  O18_24 
REMARK       I    between atoms: O28_26  and  S20_31 
ROOT
ATOM      1  C10 H3S d 301      16.407  12.048  33.386  0.00  0.00     0.147 C 
ATOM      2  C7  H3S d 301      18.144   7.730  34.338  0.00  0.00     0.167 C 
ATOM      3  C1  H3S d 301      18.483  10.184  34.430  0.00  0.00     0.095 C 
ATOM      4  C8  H3S d 301      17.752  11.830  32.646  0.00  0.00     0.081 C 
ATOM      5  O3  H3S d 301      18.975   8.881  34.798  0.00  0.00    -0.348 OA
ATOM      6  C6  H3S d 301      17.239  10.364  36.697  0.00  0.00     0.043 C 
ATOM      7  C24 H3S d 301      18.991   6.026  36.497  0.00  0.00    -0.034 C 
ATOM      8  O34 H3S d 301      15.843   7.099  37.769  0.00  0.00    -0.642 OA
ATOM      9  C2  H3S d 301      17.099  10.506  35.158  0.00  0.00     0.089 C 
ATOM     10  O31 H3S d 301      17.182   4.207  31.639  0.00  0.00    -0.572 OA
ATOM     11  O29 H3S d 301      18.287  12.931  29.004  0.00  0.00    -0.296 OA
ATOM     12  O35 H3S d 301      17.520   6.277  39.021  0.00  0.00    -0.642 OA
ATOM     13  O9  H3S d 301      19.502  10.148  32.245  0.00  0.00    -0.391 OA
ATOM     14  O13 H3S d 301      17.251   7.284  35.438  0.00  0.00    -0.311 OA
ATOM     15  C27 H3S d 301      16.985   6.699  37.804  0.00  0.00     0.233 C 
ATOM     16  C17 H3S d 301      19.822   5.971  35.193  0.00  0.00     0.086 C 
ATOM     17  O32 H3S d 301      17.523   6.485  31.337  0.00  0.00    -0.572 OA
ATOM     18  S26 H3S d 301      18.064   5.289  31.928  0.00  0.00     0.252 S 
ATOM     19  O15 H3S d 301      15.402  11.140  32.862  0.00  0.00    -0.369 OA
ATOM     20  O30 H3S d 301      18.885  14.360  31.009  0.00  0.00    -0.296 OA
ATOM     21  O11 H3S d 301      18.032  11.426  37.257  0.00  0.00    -0.398 OA
ATOM     22  N14 H3S d 301      17.552  12.031  31.218  0.00  0.00    -0.210 NA
ATOM     23  C12 H3S d 301      19.031   6.496  33.920  0.00  0.00     0.135 C 
ATOM     24  O18 H3S d 301      18.153   5.425  33.475  0.00  0.00    -0.244 OA
ATOM     25  O33 H3S d 301      19.554   4.953  31.279  0.00  0.00    -0.572 OA
ATOM     26  O28 H3S d 301      19.939  12.142  30.426  0.00  0.00    -0.296 OA
ATOM     27  O25 H3S d 301      21.011   6.754  35.366  0.00  0.00    -0.389 OA
ATOM     28  C4  H3S d 301      18.260  10.398  32.921  0.00  0.00     0.083 C 
ATOM     29  C19 H3S d 301      17.775   6.662  36.558  0.00  0.00     0.147 C 
ATOM     30  O5  H3S d 301      16.571  11.834  34.829  0.00  0.00    -0.350 OA
ATOM     31  S20 H3S d 301      18.698  12.842  30.362  0.00  0.00     0.156 S 
ATOM     32  H   H3S d 301      16.090  13.057  33.226  0.00  0.00     0.131 H 
ATOM     33  H   H3S d 301      17.583   8.068  33.492  0.00  0.00     0.134 H 
ATOM     34  H   H3S d 301      19.265  10.843  34.743  0.00  0.00     0.091 H 
ATOM     35  H   H3S d 301      18.480  12.530  32.997  0.00  0.00     0.076 H 
ATOM     36  H   H3S d 301      17.706   9.427  36.918  0.00  0.00     0.078 H 
ATOM     37  H   H3S d 301      16.260  10.413  37.128  0.00  0.00     0.078 H 
ATOM     38  H   H3S d 301      19.362   5.572  37.347  0.00  0.00     0.085 H 
ATOM     39  H   H3S d 301      16.396   9.786  34.793  0.00  0.00     0.090 H 
ATOM     40  H   H3S d 301      17.443  13.407  28.952  0.00  0.00     0.231 HD
ATOM     41  H   H3S d 301      19.796   9.244  32.436  0.00  0.00     0.210 HD
ATOM     42  H   H3S d 301      20.053   4.943  35.011  0.00  0.00     0.093 H 
ATOM     43  H   H3S d 301      15.687  10.224  33.005  0.00  0.00     0.212 HD
ATOM     44  H   H3S d 301      18.041  14.836  30.965  0.00  0.00     0.231 HD
ATOM     45  H   H3S d 301      18.925  11.397  36.877  0.00  0.00     0.209 HD
ATOM     46  H   H3S d 301      16.677  12.544  31.107  0.00  0.00     0.140 HD
ATOM     47  H   H3S d 301      19.711   6.784  33.145  0.00  0.00     0.097 H 
ATOM     48  H   H3S d 301      20.610  12.625  29.920  0.00  0.00     0.231 HD
ATOM     49  H   H3S d 301      20.768   7.680  35.529  0.00  0.00     0.210 HD
ATOM     50  H   H3S d 301      17.513   9.724  32.557  0.00  0.00     0.089 H 
ENDROOT
TORSDOF 15
ENDMDL
MODEL 35
REMARK VINA RESULT:      -5.3      3.005      6.677
REMARK  0 active torsions:
REMARK  status: ('A' for Active; 'I' for Inactive)
REMARK       I    between atoms: C10_1  and  O15_19 
REMARK       I    between atoms: C7_2  and  O3_5 
REMARK       I    between atoms: C1_3  and  O3_5 
REMARK       I    between atoms: C8_4  and  N14_22 
REMARK       I    between atoms: C6_6  and  C2_9 
REMARK       I    between atoms: C6_6  and  O11_21 
REMARK       I    between atoms: O29_11  and  S20_31 
REMARK       I    between atoms: O9_13  and  C4_28 
REMARK       I    between atoms: C27_15  and  C19_29 
REMARK       I    between atoms: C17_16  and  O25_27 
REMARK       I    between atoms: S26_18  and  O18_24 
REMARK       I    between atoms: O30_20  and  S20_31 
REMARK       I    between atoms: N14_22  and  S20_31 
REMARK       I    between atoms: C12_23  and  O18_24 
REMARK       I    between atoms: O28_26  and  S20_31 
ROOT
ATOM      1  C10 H3S d 301      19.518   8.776  33.689  0.00  0.00     0.147 C 
ATOM      2  C7  H3S d 301      16.791   8.385  37.558  0.00  0.00     0.167 C 
ATOM      3  C1  H3S d 301      17.064   7.914  35.140  0.00  0.00     0.095 C 
ATOM      4  C8  H3S d 301      18.151   9.470  33.460  0.00  0.00     0.081 C 
ATOM      5  O3  H3S d 301      16.273   7.718  36.328  0.00  0.00    -0.348 OA
ATOM      6  C6  H3S d 301      18.346   5.712  35.619  0.00  0.00     0.043 C 
ATOM      7  C24 H3S d 301      15.582   6.461  39.325  0.00  0.00    -0.034 C 
ATOM      8  O34 H3S d 301      18.915   5.208  39.250  0.00  0.00    -0.642 OA
ATOM      9  C2  H3S d 301      18.495   7.218  35.277  0.00  0.00     0.089 C 
ATOM     10  O31 H3S d 301      16.824  11.621  40.745  0.00  0.00    -0.572 OA
ATOM     11  O29 H3S d 301      17.851  12.878  31.710  0.00  0.00    -0.296 OA
ATOM     12  O35 H3S d 301      17.105   4.006  39.830  0.00  0.00    -0.642 OA
ATOM     13  O9  H3S d 301      16.037  10.025  34.591  0.00  0.00    -0.391 OA
ATOM     14  O13 H3S d 301      17.563   7.410  38.372  0.00  0.00    -0.311 OA
ATOM     15  C27 H3S d 301      17.710   5.174  39.364  0.00  0.00     0.233 C 
ATOM     16  C17 H3S d 301      14.746   7.714  38.975  0.00  0.00     0.086 C 
ATOM     17  O32 H3S d 301      17.046  11.565  38.433  0.00  0.00    -0.572 OA
ATOM     18  S26 H3S d 301      16.238  11.130  39.541  0.00  0.00     0.252 S 
ATOM     19  O15 H3S d 301      20.263   9.480  34.718  0.00  0.00    -0.369 OA
ATOM     20  O30 H3S d 301      17.649  10.656  30.510  0.00  0.00    -0.296 OA
ATOM     21  O11 H3S d 301      17.844   4.962  34.499  0.00  0.00    -0.398 OA
ATOM     22  N14 H3S d 301      18.374  10.861  33.093  0.00  0.00    -0.210 NA
ATOM     23  C12 H3S d 301      15.623   8.935  38.464  0.00  0.00     0.135 C 
ATOM     24  O18 H3S d 301      16.206   9.578  39.631  0.00  0.00    -0.244 OA
ATOM     25  O33 H3S d 301      14.702  11.744  39.405  0.00  0.00    -0.572 OA
ATOM     26  O28 H3S d 301      16.077  11.505  32.292  0.00  0.00    -0.296 OA
ATOM     27  O25 H3S d 301      13.786   7.366  37.967  0.00  0.00    -0.389 OA
ATOM     28  C4  H3S d 301      17.312   9.384  34.753  0.00  0.00     0.083 C 
ATOM     29  C19 H3S d 301      16.917   6.369  39.017  0.00  0.00     0.147 C 
ATOM     30  O5  H3S d 301      19.327   7.374  34.079  0.00  0.00    -0.350 OA
ATOM     31  S20 H3S d 301      17.450  11.529  31.907  0.00  0.00     0.156 S 
ATOM     32  H   H3S d 301      20.071   8.802  32.773  0.00  0.00     0.131 H 
ATOM     33  H   H3S d 301      17.406   9.200  37.237  0.00  0.00     0.134 H 
ATOM     34  H   H3S d 301      16.472   7.467  34.370  0.00  0.00     0.091 H 
ATOM     35  H   H3S d 301      17.621   8.983  32.669  0.00  0.00     0.076 H 
ATOM     36  H   H3S d 301      17.666   5.608  36.439  0.00  0.00     0.078 H 
ATOM     37  H   H3S d 301      19.312   5.329  35.874  0.00  0.00     0.078 H 
ATOM     38  H   H3S d 301      15.124   5.670  39.804  0.00  0.00     0.085 H 
ATOM     39  H   H3S d 301      18.995   7.721  36.078  0.00  0.00     0.090 H 
ATOM     40  H   H3S d 301      18.785  12.902  31.448  0.00  0.00     0.231 HD
ATOM     41  H   H3S d 301      15.534   9.956  35.416  0.00  0.00     0.210 HD
ATOM     42  H   H3S d 301      14.267   8.034  39.877  0.00  0.00     0.093 H 
ATOM     43  H   H3S d 301      19.765   9.459  35.550  0.00  0.00     0.212 HD
ATOM     44  H   H3S d 301      18.583  10.672  30.249  0.00  0.00     0.231 HD
ATOM     45  H   H3S d 301      16.967   5.296  34.253  0.00  0.00     0.209 HD
ATOM     46  H   H3S d 301      19.346  10.940  32.794  0.00  0.00     0.140 HD
ATOM     47  H   H3S d 301      15.024   9.622  37.904  0.00  0.00     0.097 H 
ATOM     48  H   H3S d 301      15.537  11.899  31.589  0.00  0.00     0.231 HD
ATOM     49  H   H3S d 301      14.251   7.081  37.164  0.00  0.00     0.210 HD
ATOM     50  H   H3S d 301      17.866   9.882  35.522  0.00  0.00     0.089 H 
ENDROOT
TORSDOF 15
ENDMDL
MODEL 36
REMARK VINA RESULT:      -5.3      3.171      5.989
REMARK  0 active torsions:
REMARK  status: ('A' for Active; 'I' for Inactive)
REMARK       I    between atoms: C10_1  and  O15_19 
REMARK       I    between atoms: C7_2  and  O3_5 
REMARK       I    between atoms: C1_3  and  O3_5 
REMARK       I    between atoms: C8_4  and  N14_22 
REMARK       I    between atoms: C6_6  and  C2_9 
REMARK       I    between atoms: C6_6  and  O11_21 
REMARK       I    between atoms: O29_11  and  S20_31 
REMARK       I    between atoms: O9_13  and  C4_28 
REMARK       I    between atoms: C27_15  and  C19_29 
REMARK       I    between atoms: C17_16  and  O25_27 
REMARK       I    between atoms: S26_18  and  O18_24 
REMARK       I    between atoms: O30_20  and  S20_31 
REMARK       I    between atoms: N14_22  and  S20_31 
REMARK       I    between atoms: C12_23  and  O18_24 
REMARK       I    between atoms: O28_26  and  S20_31 
ROOT
ATOM      1  C10 H3S d 301      16.890   8.352  36.418  0.00  0.00     0.147 C 
ATOM      2  C7  H3S d 301      18.922   4.617  34.301  0.00  0.00     0.167 C 
ATOM      3  C1  H3S d 301      18.984   7.056  34.744  0.00  0.00     0.095 C 
ATOM      4  C8  H3S d 301      16.956   8.569  34.884  0.00  0.00     0.081 C 
ATOM      5  O3  H3S d 301      19.650   5.913  34.172  0.00  0.00    -0.348 OA
ATOM      6  C6  H3S d 301      20.282   6.713  36.962  0.00  0.00     0.043 C 
ATOM      7  C24 H3S d 301      21.337   3.051  34.240  0.00  0.00    -0.034 C 
ATOM      8  O34 H3S d 301      20.743   3.118  37.751  0.00  0.00    -0.642 OA
ATOM      9  C2  H3S d 301      18.880   6.928  36.332  0.00  0.00     0.089 C 
ATOM     10  O31 H3S d 301      16.391   1.182  32.746  0.00  0.00    -0.572 OA
ATOM     11  O29 H3S d 301      14.020  10.050  32.896  0.00  0.00    -0.296 OA
ATOM     12  O35 H3S d 301      22.733   2.694  36.794  0.00  0.00    -0.642 OA
ATOM     13  O9  H3S d 301      17.632   7.467  32.791  0.00  0.00    -0.391 OA
ATOM     14  O13 H3S d 301      19.446   3.859  35.467  0.00  0.00    -0.311 OA
ATOM     15  C27 H3S d 301      21.385   3.045  36.727  0.00  0.00     0.233 C 
ATOM     16  C17 H3S d 301      20.645   3.326  32.884  0.00  0.00     0.086 C 
ATOM     17  O32 H3S d 301      16.129   3.483  32.939  0.00  0.00    -0.572 OA
ATOM     18  S26 H3S d 301      17.004   2.440  32.470  0.00  0.00     0.252 S 
ATOM     19  O15 H3S d 301      15.999   7.246  36.723  0.00  0.00    -0.369 OA
ATOM     20  O30 H3S d 301      15.933  11.430  33.821  0.00  0.00    -0.296 OA
ATOM     21  O11 H3S d 301      21.083   7.905  36.890  0.00  0.00    -0.398 OA
ATOM     22  N14 H3S d 301      15.614   8.816  34.376  0.00  0.00    -0.210 NA
ATOM     23  C12 H3S d 301      19.110   3.709  33.025  0.00  0.00     0.135 C 
ATOM     24  O18 H3S d 301      18.365   2.476  33.222  0.00  0.00    -0.244 OA
ATOM     25  O33 H3S d 301      17.231   2.576  30.832  0.00  0.00    -0.572 OA
ATOM     26  O28 H3S d 301      16.140   9.638  32.056  0.00  0.00    -0.296 OA
ATOM     27  O25 H3S d 301      21.338   4.390  32.216  0.00  0.00    -0.389 OA
ATOM     28  C4  H3S d 301      17.560   7.315  34.217  0.00  0.00     0.083 C 
ATOM     29  C19 H3S d 301      20.721   3.322  35.438  0.00  0.00     0.147 C 
ATOM     30  O5  H3S d 301      18.227   8.082  36.960  0.00  0.00    -0.350 OA
ATOM     31  S20 H3S d 301      15.400   9.974  33.227  0.00  0.00     0.156 S 
ATOM     32  H   H3S d 301      16.513   9.245  36.872  0.00  0.00     0.131 H 
ATOM     33  H   H3S d 301      17.885   4.852  34.421  0.00  0.00     0.134 H 
ATOM     34  H   H3S d 301      19.600   7.878  34.446  0.00  0.00     0.091 H 
ATOM     35  H   H3S d 301      17.574   9.413  34.661  0.00  0.00     0.076 H 
ATOM     36  H   H3S d 301      20.782   5.926  36.436  0.00  0.00     0.078 H 
ATOM     37  H   H3S d 301      20.150   6.459  37.993  0.00  0.00     0.078 H 
ATOM     38  H   H3S d 301      22.288   2.652  34.245  0.00  0.00     0.085 H 
ATOM     39  H   H3S d 301      18.265   6.073  36.523  0.00  0.00     0.090 H 
ATOM     40  H   H3S d 301      13.509  10.278  33.689  0.00  0.00     0.231 HD
ATOM     41  H   H3S d 301      18.014   6.667  32.400  0.00  0.00     0.210 HD
ATOM     42  H   H3S d 301      20.685   2.418  32.320  0.00  0.00     0.093 H 
ATOM     43  H   H3S d 301      16.338   6.435  36.312  0.00  0.00     0.212 HD
ATOM     44  H   H3S d 301      15.429  11.658  34.617  0.00  0.00     0.231 HD
ATOM     45  H   H3S d 301      21.214   8.152  35.961  0.00  0.00     0.209 HD
ATOM     46  H   H3S d 301      15.035   9.076  35.174  0.00  0.00     0.140 HD
ATOM     47  H   H3S d 301      18.770   4.232  32.156  0.00  0.00     0.097 H 
ATOM     48  H   H3S d 301      16.011  10.324  31.383  0.00  0.00     0.231 HD
ATOM     49  H   H3S d 301      21.283   5.197  32.751  0.00  0.00     0.210 HD
ATOM     50  H   H3S d 301      16.920   6.492  34.456  0.00  0.00     0.089 H 
ENDROOT
TORSDOF 15
ENDMDL
MODEL 37
REMARK VINA RESULT:      -5.3      2.868      6.679
REMARK  0 active torsions:
REMARK  status: ('A' for Active; 'I' for Inactive)
REMARK       I    between atoms: C10_1  and  O15_19 
REMARK       I    between atoms: C7_2  and  O3_5 
REMARK       I    between atoms: C1_3  and  O3_5 
REMARK       I    between atoms: C8_4  and  N14_22 
REMARK       I    between atoms: C6_6  and  C2_9 
REMARK       I    between atoms: C6_6  and  O11_21 
REMARK       I    between atoms: O29_11  and  S20_31 
REMARK       I    between atoms: O9_13  and  C4_28 
REMARK       I    between atoms: C27_15  and  C19_29 
REMARK       I    between atoms: C17_16  and  O25_27 
REMARK       I    between atoms: S26_18  and  O18_24 
REMARK       I    between atoms: O30_20  and  S20_31 
REMARK       I    between atoms: N14_22  and  S20_31 
REMARK       I    between atoms: C12_23  and  O18_24 
REMARK       I    between atoms: O28_26  and  S20_31 
ROOT
ATOM      1  C10 H3S d 301      17.398   3.830  32.710  0.00  0.00     0.147 C 
ATOM      2  C7  H3S d 301      17.222   7.745  35.394  0.00  0.00     0.167 C 
ATOM      3  C1  H3S d 301      18.458   6.435  33.691  0.00  0.00     0.095 C 
ATOM      4  C8  H3S d 301      18.638   3.907  33.636  0.00  0.00     0.081 C 
ATOM      5  O3  H3S d 301      18.366   7.662  34.439  0.00  0.00    -0.348 OA
ATOM      6  C6  H3S d 301      17.105   7.504  31.754  0.00  0.00     0.043 C 
ATOM      7  C24 H3S d 301      17.080  10.617  35.253  0.00  0.00    -0.034 C 
ATOM      8  O34 H3S d 301      14.448   9.766  33.011  0.00  0.00    -0.642 OA
ATOM      9  C2  H3S d 301      17.222   6.273  32.692  0.00  0.00     0.089 C 
ATOM     10  O31 H3S d 301      15.332   7.633  39.522  0.00  0.00    -0.572 OA
ATOM     11  O29 H3S d 301      20.001   0.832  35.494  0.00  0.00    -0.296 OA
ATOM     12  O35 H3S d 301      15.515  11.745  33.045  0.00  0.00    -0.642 OA
ATOM     13  O9  H3S d 301      19.649   5.259  35.426  0.00  0.00    -0.391 OA
ATOM     14  O13 H3S d 301      16.097   8.488  34.769  0.00  0.00    -0.311 OA
ATOM     15  C27 H3S d 301      15.337  10.434  33.488  0.00  0.00     0.233 C 
ATOM     16  C17 H3S d 301      17.982  10.013  36.355  0.00  0.00     0.086 C 
ATOM     17  O32 H3S d 301      16.552   6.150  38.214  0.00  0.00    -0.572 OA
ATOM     18  S26 H3S d 301      16.518   7.489  38.742  0.00  0.00     0.252 S 
ATOM     19  O15 H3S d 301      16.195   3.658  33.507  0.00  0.00    -0.369 OA
ATOM     20  O30 H3S d 301      20.844   1.598  33.231  0.00  0.00    -0.296 OA
ATOM     21  O11 H3S d 301      18.168   7.533  30.785  0.00  0.00    -0.398 OA
ATOM     22  N14 H3S d 301      18.709   2.699  34.445  0.00  0.00    -0.210 NA
ATOM     23  C12 H3S d 301      17.616   8.510  36.716  0.00  0.00     0.135 C 
ATOM     24  O18 H3S d 301      16.459   8.539  37.596  0.00  0.00    -0.244 OA
ATOM     25  O33 H3S d 301      17.835   7.754  39.717  0.00  0.00    -0.572 OA
ATOM     26  O28 H3S d 301      21.036   2.903  35.383  0.00  0.00    -0.296 OA
ATOM     27  O25 H3S d 301      19.349  10.075  35.924  0.00  0.00    -0.389 OA
ATOM     28  C4  H3S d 301      18.523   5.153  34.542  0.00  0.00     0.083 C 
ATOM     29  C19 H3S d 301      16.202   9.847  34.530  0.00  0.00     0.147 C 
ATOM     30  O5  H3S d 301      17.287   5.045  31.893  0.00  0.00    -0.350 OA
ATOM     31  S20 H3S d 301      20.175   1.996  34.697  0.00  0.00     0.156 S 
ATOM     32  H   H3S d 301      17.512   2.990  32.056  0.00  0.00     0.131 H 
ATOM     33  H   H3S d 301      16.943   6.741  35.635  0.00  0.00     0.134 H 
ATOM     34  H   H3S d 301      19.387   6.531  33.169  0.00  0.00     0.091 H 
ATOM     35  H   H3S d 301      19.529   3.986  33.049  0.00  0.00     0.076 H 
ATOM     36  H   H3S d 301      17.149   8.395  32.345  0.00  0.00     0.078 H 
ATOM     37  H   H3S d 301      16.175   7.438  31.231  0.00  0.00     0.078 H 
ATOM     38  H   H3S d 301      17.141  11.627  35.054  0.00  0.00     0.085 H 
ATOM     39  H   H3S d 301      16.350   6.205  33.307  0.00  0.00     0.090 H 
ATOM     40  H   H3S d 301      19.416   0.210  35.034  0.00  0.00     0.231 HD
ATOM     41  H   H3S d 301      19.549   6.048  35.981  0.00  0.00     0.210 HD
ATOM     42  H   H3S d 301      17.825  10.590  37.242  0.00  0.00     0.093 H 
ATOM     43  H   H3S d 301      16.089   4.418  34.100  0.00  0.00     0.212 HD
ATOM     44  H   H3S d 301      20.259   0.982  32.765  0.00  0.00     0.231 HD
ATOM     45  H   H3S d 301      19.022   7.593  31.242  0.00  0.00     0.209 HD
ATOM     46  H   H3S d 301      18.117   2.001  33.993  0.00  0.00     0.140 HD
ATOM     47  H   H3S d 301      18.445   8.021  37.184  0.00  0.00     0.097 H 
ATOM     48  H   H3S d 301      21.898   2.484  35.529  0.00  0.00     0.231 HD
ATOM     49  H   H3S d 301      19.459   9.543  35.120  0.00  0.00     0.210 HD
ATOM     50  H   H3S d 301      17.627   5.043  35.116  0.00  0.00     0.089 H 
ENDROOT
TORSDOF 15
ENDMDL
MODEL 38
REMARK VINA RESULT:      -5.2      2.926      6.857
REMARK  0 active torsions:
REMARK  status: ('A' for Active; 'I' for Inactive)
REMARK       I    between atoms: C10_1  and  O15_19 
REMARK       I    between atoms: C7_2  and  O3_5 
REMARK       I    between atoms: C1_3  and  O3_5 
REMARK       I    between atoms: C8_4  and  N14_22 
REMARK       I    between atoms: C6_6  and  C2_9 
REMARK       I    between atoms: C6_6  and  O11_21 
REMARK       I    between atoms: O29_11  and  S20_31 
REMARK       I    between atoms: O9_13  and  C4_28 
REMARK       I    between atoms: C27_15  and  C19_29 
REMARK       I    between atoms: C17_16  and  O25_27 
REMARK       I    between atoms: S26_18  and  O18_24 
REMARK       I    between atoms: O30_20  and  S20_31 
REMARK       I    between atoms: N14_22  and  S20_31 
REMARK       I    between atoms: C12_23  and  O18_24 
REMARK       I    between atoms: O28_26  and  S20_31 
ROOT
ATOM      1  C10 H3S d 301      16.815   7.314  33.667  0.00  0.00     0.147 C 
ATOM      2  C7  H3S d 301      16.878   7.335  38.417  0.00  0.00     0.167 C 
ATOM      3  C1  H3S d 301      17.317   8.577  36.317  0.00  0.00     0.095 C 
ATOM      4  C8  H3S d 301      18.253   7.568  34.188  0.00  0.00     0.081 C 
ATOM      5  O3  H3S d 301      17.257   8.618  37.756  0.00  0.00    -0.348 OA
ATOM      6  C6  H3S d 301      14.862   9.400  36.182  0.00  0.00     0.043 C 
ATOM      7  C24 H3S d 301      15.751   8.647  40.718  0.00  0.00    -0.034 C 
ATOM      8  O34 H3S d 301      12.773   7.963  38.889  0.00  0.00    -0.642 OA
ATOM      9  C2  H3S d 301      15.871   8.332  35.685  0.00  0.00     0.089 C 
ATOM     10  O31 H3S d 301      17.736   3.524  40.733  0.00  0.00    -0.572 OA
ATOM     11  O29 H3S d 301      21.329   5.881  32.621  0.00  0.00    -0.296 OA
ATOM     12  O35 H3S d 301      12.964   9.529  40.490  0.00  0.00    -0.642 OA
ATOM     13  O9  H3S d 301      19.572   7.726  36.259  0.00  0.00    -0.391 OA
ATOM     14  O13 H3S d 301      15.426   7.343  38.736  0.00  0.00    -0.311 OA
ATOM     15  C27 H3S d 301      13.500   8.541  39.665  0.00  0.00     0.233 C 
ATOM     16  C17 H3S d 301      17.248   8.264  40.792  0.00  0.00     0.086 C 
ATOM     17  O32 H3S d 301      18.438   4.433  38.713  0.00  0.00    -0.572 OA
ATOM     18  S26 H3S d 301      18.264   4.697  40.117  0.00  0.00     0.252 S 
ATOM     19  O15 H3S d 301      16.387   5.974  34.032  0.00  0.00    -0.369 OA
ATOM     20  O30 H3S d 301      20.479   8.170  31.943  0.00  0.00    -0.296 OA
ATOM     21  O11 H3S d 301      15.134  10.692  35.610  0.00  0.00    -0.398 OA
ATOM     22  N14 H3S d 301      19.148   6.560  33.639  0.00  0.00    -0.210 NA
ATOM     23  C12 H3S d 301      17.658   7.119  39.770  0.00  0.00     0.135 C 
ATOM     24  O18 H3S d 301      17.244   5.849  40.345  0.00  0.00    -0.244 OA
ATOM     25  O33 H3S d 301      19.726   5.057  40.817  0.00  0.00    -0.572 OA
ATOM     26  O28 H3S d 301      21.384   7.560  34.219  0.00  0.00    -0.296 OA
ATOM     27  O25 H3S d 301      18.040   9.433  40.534  0.00  0.00    -0.389 OA
ATOM     28  C4  H3S d 301      18.255   7.506  35.731  0.00  0.00     0.083 C 
ATOM     29  C19 H3S d 301      14.930   8.180  39.720  0.00  0.00     0.147 C 
ATOM     30  O5  H3S d 301      15.883   8.304  34.219  0.00  0.00    -0.350 OA
ATOM     31  S20 H3S d 301      20.642   7.019  33.127  0.00  0.00     0.156 S 
ATOM     32  H   H3S d 301      16.818   7.406  32.601  0.00  0.00     0.131 H 
ATOM     33  H   H3S d 301      17.124   6.548  37.735  0.00  0.00     0.134 H 
ATOM     34  H   H3S d 301      17.712   9.537  36.057  0.00  0.00     0.091 H 
ATOM     35  H   H3S d 301      18.587   8.536  33.880  0.00  0.00     0.076 H 
ATOM     36  H   H3S d 301      14.929   9.472  37.248  0.00  0.00     0.078 H 
ATOM     37  H   H3S d 301      13.881   9.100  35.880  0.00  0.00     0.078 H 
ATOM     38  H   H3S d 301      15.357   9.272  41.439  0.00  0.00     0.085 H 
ATOM     39  H   H3S d 301      15.562   7.363  36.017  0.00  0.00     0.090 H 
ATOM     40  H   H3S d 301      20.829   5.507  31.877  0.00  0.00     0.231 HD
ATOM     41  H   H3S d 301      19.543   7.681  37.227  0.00  0.00     0.210 HD
ATOM     42  H   H3S d 301      17.427   7.880  41.774  0.00  0.00     0.093 H 
ATOM     43  H   H3S d 301      16.384   5.888  34.998  0.00  0.00     0.212 HD
ATOM     44  H   H3S d 301      19.975   7.802  31.201  0.00  0.00     0.231 HD
ATOM     45  H   H3S d 301      16.022  10.982  35.873  0.00  0.00     0.209 HD
ATOM     46  H   H3S d 301      18.673   6.142  32.839  0.00  0.00     0.140 HD
ATOM     47  H   H3S d 301      18.712   7.136  39.588  0.00  0.00     0.097 H 
ATOM     48  H   H3S d 301      22.264   7.828  33.911  0.00  0.00     0.231 HD
ATOM     49  H   H3S d 301      17.856   9.756  39.638  0.00  0.00     0.210 HD
ATOM     50  H   H3S d 301      17.919   6.528  36.007  0.00  0.00     0.089 H 
ENDROOT
TORSDOF 15
ENDMDL
MODEL 39
REMARK VINA RESULT:      -5.2      2.861      5.639
REMARK  0 active torsions:
REMARK  status: ('A' for Active; 'I' for Inactive)
REMARK       I    between atoms: C10_1  and  O15_19 
REMARK       I    between atoms: C7_2  and  O3_5 
REMARK       I    between atoms: C1_3  and  O3_5 
REMARK       I    between atoms: C8_4  and  N14_22 
REMARK       I    between atoms: C6_6  and  C2_9 
REMARK       I    between atoms: C6_6  and  O11_21 
REMARK       I    between atoms: O29_11  and  S20_31 
REMARK       I    between atoms: O9_13  and  C4_28 
REMARK       I    between atoms: C27_15  and  C19_29 
REMARK       I    between atoms: C17_16  and  O25_27 
REMARK       I    between atoms: S26_18  and  O18_24 
REMARK       I    between atoms: O30_20  and  S20_31 
REMARK       I    between atoms: N14_22  and  S20_31 
REMARK       I    between atoms: C12_23  and  O18_24 
REMARK       I    between atoms: O28_26  and  S20_31 
ROOT
ATOM      1  C10 H3S d 301      17.964   6.627  38.706  0.00  0.00     0.147 C 
ATOM      2  C7  H3S d 301      17.092   7.936  34.224  0.00  0.00     0.167 C 
ATOM      3  C1  H3S d 301      18.784   7.536  35.991  0.00  0.00     0.095 C 
ATOM      4  C8  H3S d 301      18.484   8.065  38.451  0.00  0.00     0.081 C 
ATOM      5  O3  H3S d 301      18.531   7.850  34.608  0.00  0.00    -0.348 OA
ATOM      6  C6  H3S d 301      18.941   5.016  35.398  0.00  0.00     0.043 C 
ATOM      7  C24 H3S d 301      17.595   7.208  31.484  0.00  0.00    -0.034 C 
ATOM      8  O34 H3S d 301      16.513   4.065  32.760  0.00  0.00    -0.642 OA
ATOM      9  C2  H3S d 301      18.291   6.059  36.347  0.00  0.00     0.089 C 
ATOM     10  O31 H3S d 301      13.272  10.152  33.165  0.00  0.00    -0.572 OA
ATOM     11  O29 H3S d 301      17.999  10.900  41.000  0.00  0.00    -0.296 OA
ATOM     12  O35 H3S d 301      17.738   4.339  30.895  0.00  0.00    -0.642 OA
ATOM     13  O9  H3S d 301      18.584   9.821  36.731  0.00  0.00    -0.391 OA
ATOM     14  O13 H3S d 301      16.656   6.652  33.615  0.00  0.00    -0.311 OA
ATOM     15  C27 H3S d 301      17.104   4.833  32.035  0.00  0.00     0.233 C 
ATOM     16  C17 H3S d 301      17.614   8.718  31.824  0.00  0.00     0.086 C 
ATOM     17  O32 H3S d 301      14.702  10.090  34.995  0.00  0.00    -0.572 OA
ATOM     18  S26 H3S d 301      14.638  10.242  33.565  0.00  0.00     0.252 S 
ATOM     19  O15 H3S d 301      16.515   6.600  38.606  0.00  0.00    -0.369 OA
ATOM     20  O30 H3S d 301      20.069   9.443  40.890  0.00  0.00    -0.296 OA
ATOM     21  O11 H3S d 301      20.343   4.852  35.674  0.00  0.00    -0.398 OA
ATOM     22  N14 H3S d 301      17.871   8.974  39.410  0.00  0.00    -0.210 NA
ATOM     23  C12 H3S d 301      16.834   9.073  33.161  0.00  0.00     0.135 C 
ATOM     24  O18 H3S d 301      15.414   9.101  32.848  0.00  0.00    -0.244 OA
ATOM     25  O33 H3S d 301      15.229  11.727  33.121  0.00  0.00    -0.572 OA
ATOM     26  O28 H3S d 301      19.295  11.023  39.082  0.00  0.00    -0.296 OA
ATOM     27  O25 H3S d 301      18.976   9.151  31.942  0.00  0.00    -0.389 OA
ATOM     28  C4  H3S d 301      18.130   8.488  37.009  0.00  0.00     0.083 C 
ATOM     29  C19 H3S d 301      17.128   6.270  32.372  0.00  0.00     0.147 C 
ATOM     30  O5  H3S d 301      18.549   5.688  37.742  0.00  0.00    -0.350 OA
ATOM     31  S20 H3S d 301      18.796  10.150  40.093  0.00  0.00     0.156 S 
ATOM     32  H   H3S d 301      18.255   6.329  39.691  0.00  0.00     0.131 H 
ATOM     33  H   H3S d 301      16.543   8.152  35.116  0.00  0.00     0.134 H 
ATOM     34  H   H3S d 301      19.845   7.638  36.079  0.00  0.00     0.091 H 
ATOM     35  H   H3S d 301      19.546   8.097  38.571  0.00  0.00     0.076 H 
ATOM     36  H   H3S d 301      18.822   5.346  34.387  0.00  0.00     0.078 H 
ATOM     37  H   H3S d 301      18.456   4.075  35.552  0.00  0.00     0.078 H 
ATOM     38  H   H3S d 301      17.944   6.897  30.565  0.00  0.00     0.085 H 
ATOM     39  H   H3S d 301      17.230   6.058  36.209  0.00  0.00     0.090 H 
ATOM     40  H   H3S d 301      17.656  10.312  41.691  0.00  0.00     0.231 HD
ATOM     41  H   H3S d 301      18.349  10.059  35.821  0.00  0.00     0.210 HD
ATOM     42  H   H3S d 301      17.110   9.225  31.029  0.00  0.00     0.093 H 
ATOM     43  H   H3S d 301      16.247   6.871  37.714  0.00  0.00     0.212 HD
ATOM     44  H   H3S d 301      19.730   8.849  41.578  0.00  0.00     0.231 HD
ATOM     45  H   H3S d 301      20.801   5.697  35.539  0.00  0.00     0.209 HD
ATOM     46  H   H3S d 301      17.503   8.403  40.171  0.00  0.00     0.140 HD
ATOM     47  H   H3S d 301      17.163  10.014  33.551  0.00  0.00     0.097 H 
ATOM     48  H   H3S d 301      19.839  11.714  39.490  0.00  0.00     0.231 HD
ATOM     49  H   H3S d 301      19.405   8.673  32.670  0.00  0.00     0.210 HD
ATOM     50  H   H3S d 301      17.064   8.449  36.922  0.00  0.00     0.089 H 
ENDROOT
TORSDOF 15
ENDMDL
MODEL 40
REMARK VINA RESULT:      -5.2      3.284      6.993
REMARK  0 active torsions:
REMARK  status: ('A' for Active; 'I' for Inactive)
REMARK       I    between atoms: C10_1  and  O15_19 
REMARK       I    between atoms: C7_2  and  O3_5 
REMARK       I    between atoms: C1_3  and  O3_5 
REMARK       I    between atoms: C8_4  and  N14_22 
REMARK       I    between atoms: C6_6  and  C2_9 
REMARK       I    between atoms: C6_6  and  O11_21 
REMARK       I    between atoms: O29_11  and  S20_31 
REMARK       I    between atoms: O9_13  and  C4_28 
REMARK       I    between atoms: C27_15  and  C19_29 
REMARK       I    between atoms: C17_16  and  O25_27 
REMARK       I    between atoms: S26_18  and  O18_24 
REMARK       I    between atoms: O30_20  and  S20_31 
REMARK       I    between atoms: N14_22  and  S20_31 
REMARK       I    between atoms: C12_23  and  O18_24 
REMARK       I    between atoms: O28_26  and  S20_31 
ROOT
ATOM      1  C10 H3S d 301      15.022  11.817  33.140  0.00  0.00     0.147 C 
ATOM      2  C7  H3S d 301      15.586  10.536  37.680  0.00  0.00     0.167 C 
ATOM      3  C1  H3S d 301      16.615  11.488  35.635  0.00  0.00     0.095 C 
ATOM      4  C8  H3S d 301      16.126  10.736  33.264  0.00  0.00     0.081 C 
ATOM      5  O3  H3S d 301      16.766  11.181  37.034  0.00  0.00    -0.348 OA
ATOM      6  C6  H3S d 301      15.819  13.881  36.238  0.00  0.00     0.043 C 
ATOM      7  C24 H3S d 301      16.224  11.568  40.290  0.00  0.00    -0.034 C 
ATOM      8  O34 H3S d 301      13.729  13.910  39.302  0.00  0.00    -0.642 OA
ATOM      9  C2  H3S d 301      15.501  12.609  35.407  0.00  0.00     0.089 C 
ATOM     10  O31 H3S d 301      13.281   7.016  39.390  0.00  0.00    -0.572 OA
ATOM     11  O29 H3S d 301      16.410   7.805  30.796  0.00  0.00    -0.296 OA
ATOM     12  O35 H3S d 301      15.270  14.273  40.900  0.00  0.00    -0.642 OA
ATOM     13  O9  H3S d 301      17.250   9.282  34.900  0.00  0.00    -0.391 OA
ATOM     14  O13 H3S d 301      14.774  11.562  38.384  0.00  0.00    -0.311 OA
ATOM     15  C27 H3S d 301      14.704  13.495  39.889  0.00  0.00     0.233 C 
ATOM     16  C17 H3S d 301      16.804  10.181  39.923  0.00  0.00     0.086 C 
ATOM     17  O32 H3S d 301      14.205   7.550  37.326  0.00  0.00    -0.572 OA
ATOM     18  S26 H3S d 301      14.466   7.471  38.740  0.00  0.00     0.252 S 
ATOM     19  O15 H3S d 301      13.735  11.253  33.511  0.00  0.00    -0.369 OA
ATOM     20  O30 H3S d 301      17.675   9.986  30.544  0.00  0.00    -0.296 OA
ATOM     21  O11 H3S d 301      16.953  14.589  35.708  0.00  0.00    -0.398 OA
ATOM     22  N14 H3S d 301      15.784   9.601  32.420  0.00  0.00    -0.210 NA
ATOM     23  C12 H3S d 301      16.016   9.459  38.748  0.00  0.00     0.135 C 
ATOM     24  O18 H3S d 301      14.816   8.870  39.321  0.00  0.00    -0.244 OA
ATOM     25  O33 H3S d 301      15.688   6.387  39.036  0.00  0.00    -0.572 OA
ATOM     26  O28 H3S d 301      17.961   8.338  32.434  0.00  0.00    -0.296 OA
ATOM     27  O25 H3S d 301      18.178  10.339  39.543  0.00  0.00    -0.389 OA
ATOM     28  C4  H3S d 301      16.243  10.292  34.739  0.00  0.00     0.083 C 
ATOM     29  C19 H3S d 301      15.260  12.178  39.525  0.00  0.00     0.147 C 
ATOM     30  O5  H3S d 301      15.328  12.969  33.996  0.00  0.00    -0.350 OA
ATOM     31  S20 H3S d 301      16.974   8.869  31.552  0.00  0.00     0.156 S 
ATOM     32  H   H3S d 301      14.983  12.149  32.124  0.00  0.00     0.131 H 
ATOM     33  H   H3S d 301      15.025  10.060  36.902  0.00  0.00     0.134 H 
ATOM     34  H   H3S d 301      17.588  11.824  35.347  0.00  0.00     0.091 H 
ATOM     35  H   H3S d 301      17.066  11.136  32.947  0.00  0.00     0.076 H 
ATOM     36  H   H3S d 301      16.030  13.593  37.247  0.00  0.00     0.078 H 
ATOM     37  H   H3S d 301      14.969  14.529  36.196  0.00  0.00     0.078 H 
ATOM     38  H   H3S d 301      16.571  12.049  41.134  0.00  0.00     0.085 H 
ATOM     39  H   H3S d 301      14.577  12.184  35.741  0.00  0.00     0.090 H 
ATOM     40  H   H3S d 301      15.737   8.159  30.193  0.00  0.00     0.231 HD
ATOM     41  H   H3S d 301      17.301   9.023  35.833  0.00  0.00     0.210 HD
ATOM     42  H   H3S d 301      16.706   9.560  40.788  0.00  0.00     0.093 H 
ATOM     43  H   H3S d 301      13.767  10.951  34.431  0.00  0.00     0.212 HD
ATOM     44  H   H3S d 301      17.004  10.346  29.945  0.00  0.00     0.231 HD
ATOM     45  H   H3S d 301      17.736  14.015  35.738  0.00  0.00     0.209 HD
ATOM     46  H   H3S d 301      15.083   9.925  31.753  0.00  0.00     0.140 HD
ATOM     47  H   H3S d 301      16.629   8.714  38.285  0.00  0.00     0.097 H 
ATOM     48  H   H3S d 301      18.660   7.908  31.917  0.00  0.00     0.231 HD
ATOM     49  H   H3S d 301      18.234  10.905  38.757  0.00  0.00     0.210 HD
ATOM     50  H   H3S d 301      15.290   9.897  35.025  0.00  0.00     0.089 H 
ENDROOT
TORSDOF 15
ENDMDL
MODEL 41
REMARK VINA RESULT:      -5.2      2.944      6.680
REMARK  0 active torsions:
REMARK  status: ('A' for Active; 'I' for Inactive)
REMARK       I    between atoms: C10_1  and  O15_19 
REMARK       I    between atoms: C7_2  and  O3_5 
REMARK       I    between atoms: C1_3  and  O3_5 
REMARK       I    between atoms: C8_4  and  N14_22 
REMARK       I    between atoms: C6_6  and  C2_9 
REMARK       I    between atoms: C6_6  and  O11_21 
REMARK       I    between atoms: O29_11  and  S20_31 
REMARK       I    between atoms: O9_13  and  C4_28 
REMARK       I    between atoms: C27_15  and  C19_29 
REMARK       I    between atoms: C17_16  and  O25_27 
REMARK       I    between atoms: S26_18  and  O18_24 
REMARK       I    between atoms: O30_20  and  S20_31 
REMARK       I    between atoms: N14_22  and  S20_31 
REMARK       I    between atoms: C12_23  and  O18_24 
REMARK       I    between atoms: O28_26  and  S20_31 
ROOT
ATOM      1  C10 H3S d 301      14.505  10.551  33.197  0.00  0.00     0.147 C 
ATOM      2  C7  H3S d 301      16.252   9.837  37.556  0.00  0.00     0.167 C 
ATOM      3  C1  H3S d 301      16.351  11.150  35.456  0.00  0.00     0.095 C 
ATOM      4  C8  H3S d 301      16.016  10.211  33.125  0.00  0.00     0.081 C 
ATOM      5  O3  H3S d 301      16.826  10.993  36.807  0.00  0.00    -0.348 OA
ATOM      6  C6  H3S d 301      14.514  12.782  36.281  0.00  0.00     0.043 C 
ATOM      7  C24 H3S d 301      16.600  11.097  40.120  0.00  0.00    -0.034 C 
ATOM      8  O34 H3S d 301      13.145  11.768  39.576  0.00  0.00    -0.642 OA
ATOM      9  C2  H3S d 301      14.797  11.518  35.428  0.00  0.00     0.089 C 
ATOM     10  O31 H3S d 301      16.372   5.664  39.343  0.00  0.00    -0.572 OA
ATOM     11  O29 H3S d 301      17.455   7.819  30.485  0.00  0.00    -0.296 OA
ATOM     12  O35 H3S d 301      14.467  12.913  40.989  0.00  0.00    -0.642 OA
ATOM     13  O9  H3S d 301      17.939   9.590  34.529  0.00  0.00    -0.391 OA
ATOM     14  O13 H3S d 301      15.127  10.299  38.410  0.00  0.00    -0.311 OA
ATOM     15  C27 H3S d 301      14.261  11.936  40.015  0.00  0.00     0.233 C 
ATOM     16  C17 H3S d 301      17.763  10.214  39.610  0.00  0.00     0.086 C 
ATOM     17  O32 H3S d 301      16.598   6.565  37.213  0.00  0.00    -0.572 OA
ATOM     18  S26 H3S d 301      17.047   6.660  38.577  0.00  0.00     0.252 S 
ATOM     19  O15 H3S d 301      13.763   9.404  33.691  0.00  0.00    -0.369 OA
ATOM     20  O30 H3S d 301      17.350  10.334  30.199  0.00  0.00    -0.296 OA
ATOM     21  O11 H3S d 301      15.030  13.970  35.655  0.00  0.00    -0.398 OA
ATOM     22  N14 H3S d 301      16.207   9.049  32.268  0.00  0.00    -0.210 NA
ATOM     23  C12 H3S d 301      17.319   9.165  38.504  0.00  0.00     0.135 C 
ATOM     24  O18 H3S d 301      16.690   8.045  39.186  0.00  0.00    -0.244 OA
ATOM     25  O33 H3S d 301      18.681   6.382  38.662  0.00  0.00    -0.572 OA
ATOM     26  O28 H3S d 301      18.702   9.115  31.947  0.00  0.00    -0.296 OA
ATOM     27  O25 H3S d 301      18.789  11.061  39.073  0.00  0.00    -0.389 OA
ATOM     28  C4  H3S d 301      16.542   9.921  34.548  0.00  0.00     0.083 C 
ATOM     29  C19 H3S d 301      15.368  11.098  39.514  0.00  0.00     0.147 C 
ATOM     30  O5  H3S d 301      14.276  11.708  34.070  0.00  0.00    -0.350 OA
ATOM     31  S20 H3S d 301      17.476   9.034  31.223  0.00  0.00     0.156 S 
ATOM     32  H   H3S d 301      14.164  10.795  32.212  0.00  0.00     0.131 H 
ATOM     33  H   H3S d 301      15.924   9.125  36.828  0.00  0.00     0.134 H 
ATOM     34  H   H3S d 301      16.959  11.941  35.069  0.00  0.00     0.091 H 
ATOM     35  H   H3S d 301      16.558  11.038  32.717  0.00  0.00     0.076 H 
ATOM     36  H   H3S d 301      14.976  12.666  37.239  0.00  0.00     0.078 H 
ATOM     37  H   H3S d 301      13.454  12.889  36.379  0.00  0.00     0.078 H 
ATOM     38  H   H3S d 301      16.754  11.704  40.941  0.00  0.00     0.085 H 
ATOM     39  H   H3S d 301      14.286  10.677  35.849  0.00  0.00     0.090 H 
ATOM     40  H   H3S d 301      16.623   7.756  29.989  0.00  0.00     0.231 HD
ATOM     41  H   H3S d 301      18.241   9.413  35.433  0.00  0.00     0.210 HD
ATOM     42  H   H3S d 301      18.119   9.649  40.446  0.00  0.00     0.093 H 
ATOM     43  H   H3S d 301      14.071   9.180  34.583  0.00  0.00     0.212 HD
ATOM     44  H   H3S d 301      16.517  10.279  29.707  0.00  0.00     0.231 HD
ATOM     45  H   H3S d 301      15.993  13.891  35.557  0.00  0.00     0.209 HD
ATOM     46  H   H3S d 301      15.359   8.946  31.711  0.00  0.00     0.140 HD
ATOM     47  H   H3S d 301      18.162   8.843  37.929  0.00  0.00     0.097 H 
ATOM     48  H   H3S d 301      19.447   9.105  31.325  0.00  0.00     0.231 HD
ATOM     49  H   H3S d 301      18.435  11.558  38.319  0.00  0.00     0.210 HD
ATOM     50  H   H3S d 301      15.983   9.090  34.926  0.00  0.00     0.089 H 
ENDROOT
TORSDOF 15
ENDMDL
MODEL 42
REMARK VINA RESULT:      -5.2      3.159      4.851
REMARK  0 active torsions:
REMARK  status: ('A' for Active; 'I' for Inactive)
REMARK       I    between atoms: C10_1  and  O15_19 
REMARK       I    between atoms: C7_2  and  O3_5 
REMARK       I    between atoms: C1_3  and  O3_5 
REMARK       I    between atoms: C8_4  and  N14_22 
REMARK       I    between atoms: C6_6  and  C2_9 
REMARK       I    between atoms: C6_6  and  O11_21 
REMARK       I    between atoms: O29_11  and  S20_31 
REMARK       I    between atoms: O9_13  and  C4_28 
REMARK       I    between atoms: C27_15  and  C19_29 
REMARK       I    between atoms: C17_16  and  O25_27 
REMARK       I    between atoms: S26_18  and  O18_24 
REMARK       I    between atoms: O30_20  and  S20_31 
REMARK       I    between atoms: N14_22  and  S20_31 
REMARK       I    between atoms: C12_23  and  O18_24 
REMARK       I    between atoms: O28_26  and  S20_31 
ROOT
ATOM      1  C10 H3S d 301      17.607   9.057  31.486  0.00  0.00     0.147 C 
ATOM      2  C7  H3S d 301      19.017   4.961  33.437  0.00  0.00     0.167 C 
ATOM      3  C1  H3S d 301      17.279   6.171  32.148  0.00  0.00     0.095 C 
ATOM      4  C8  H3S d 301      16.576   8.575  32.539  0.00  0.00     0.081 C 
ATOM      5  O3  H3S d 301      17.742   4.908  32.663  0.00  0.00    -0.348 OA
ATOM      6  C6  H3S d 301      18.492   5.710  29.903  0.00  0.00     0.043 C 
ATOM      7  C24 H3S d 301      19.723   2.244  32.802  0.00  0.00    -0.034 C 
ATOM      8  O34 H3S d 301      21.725   3.966  30.413  0.00  0.00    -0.642 OA
ATOM      9  C2  H3S d 301      18.277   6.744  31.040  0.00  0.00     0.089 C 
ATOM     10  O31 H3S d 301      21.487   4.947  37.248  0.00  0.00    -0.572 OA
ATOM     11  O29 H3S d 301      14.928  10.980  35.042  0.00  0.00    -0.296 OA
ATOM     12  O35 H3S d 301      21.109   1.810  30.254  0.00  0.00    -0.642 OA
ATOM     13  O9  H3S d 301      16.169   6.800  34.193  0.00  0.00    -0.391 OA
ATOM     14  O13 H3S d 301      20.155   4.586  32.557  0.00  0.00    -0.311 OA
ATOM     15  C27 H3S d 301      21.082   3.055  30.883  0.00  0.00     0.233 C 
ATOM     16  C17 H3S d 301      18.907   2.473  34.096  0.00  0.00     0.086 C 
ATOM     17  O32 H3S d 301      19.792   6.274  36.373  0.00  0.00    -0.572 OA
ATOM     18  S26 H3S d 301      20.187   4.920  36.662  0.00  0.00     0.252 S 
ATOM     19  O15 H3S d 301      18.861   9.390  32.140  0.00  0.00    -0.369 OA
ATOM     20  O30 H3S d 301      13.906  10.352  32.811  0.00  0.00    -0.296 OA
ATOM     21  O11 H3S d 301      17.315   5.569  29.087  0.00  0.00    -0.398 OA
ATOM     22  N14 H3S d 301      16.390   9.616  33.539  0.00  0.00    -0.210 NA
ATOM     23  C12 H3S d 301      19.009   3.957  34.652  0.00  0.00     0.135 C 
ATOM     24  O18 H3S d 301      20.274   4.075  35.359  0.00  0.00    -0.244 OA
ATOM     25  O33 H3S d 301      19.128   4.234  37.740  0.00  0.00    -0.572 OA
ATOM     26  O28 H3S d 301      14.338   8.761  34.722  0.00  0.00    -0.296 OA
ATOM     27  O25 H3S d 301      17.531   2.158  33.840  0.00  0.00    -0.389 OA
ATOM     28  C4  H3S d 301      17.090   7.279  33.202  0.00  0.00     0.083 C 
ATOM     29  C19 H3S d 301      20.296   3.284  32.111  0.00  0.00     0.147 C 
ATOM     30  O5  H3S d 301      17.832   8.020  30.471  0.00  0.00    -0.350 OA
ATOM     31  S20 H3S d 301      14.871   9.924  34.091  0.00  0.00     0.156 S 
ATOM     32  H   H3S d 301      17.218   9.928  31.002  0.00  0.00     0.131 H 
ATOM     33  H   H3S d 301      19.119   5.962  33.803  0.00  0.00     0.134 H 
ATOM     34  H   H3S d 301      16.318   5.937  31.742  0.00  0.00     0.091 H 
ATOM     35  H   H3S d 301      15.638   8.374  32.066  0.00  0.00     0.076 H 
ATOM     36  H   H3S d 301      18.728   4.761  30.337  0.00  0.00     0.078 H 
ATOM     37  H   H3S d 301      19.291   6.056  29.282  0.00  0.00     0.078 H 
ATOM     38  H   H3S d 301      19.841   1.282  32.447  0.00  0.00     0.085 H 
ATOM     39  H   H3S d 301      19.205   6.926  31.541  0.00  0.00     0.090 H 
ATOM     40  H   H3S d 301      15.290  11.775  34.620  0.00  0.00     0.231 HD
ATOM     41  H   H3S d 301      16.517   5.988  34.592  0.00  0.00     0.210 HD
ATOM     42  H   H3S d 301      19.321   1.833  34.847  0.00  0.00     0.093 H 
ATOM     43  H   H3S d 301      19.216   8.602  32.580  0.00  0.00     0.212 HD
ATOM     44  H   H3S d 301      14.268  11.143  32.382  0.00  0.00     0.231 HD
ATOM     45  H   H3S d 301      16.578   5.255  29.634  0.00  0.00     0.209 HD
ATOM     46  H   H3S d 301      16.744  10.484  33.138  0.00  0.00     0.140 HD
ATOM     47  H   H3S d 301      18.184   4.176  35.297  0.00  0.00     0.097 H 
ATOM     48  H   H3S d 301      13.443   8.949  35.044  0.00  0.00     0.231 HD
ATOM     49  H   H3S d 301      17.185   2.754  33.157  0.00  0.00     0.210 HD
ATOM     50  H   H3S d 301      18.026   7.513  33.666  0.00  0.00     0.089 H 
ENDROOT
TORSDOF 15
ENDMDL
MODEL 43
REMARK VINA RESULT:      -5.1      3.724      7.141
REMARK  0 active torsions:
REMARK  status: ('A' for Active; 'I' for Inactive)
REMARK       I    between atoms: C10_1  and  O15_19 
REMARK       I    between atoms: C7_2  and  O3_5 
REMARK       I    between atoms: C1_3  and  O3_5 
REMARK       I    between atoms: C8_4  and  N14_22 
REMARK       I    between atoms: C6_6  and  C2_9 
REMARK       I    between atoms: C6_6  and  O11_21 
REMARK       I    between atoms: O29_11  and  S20_31 
REMARK       I    between atoms: O9_13  and  C4_28 
REMARK       I    between atoms: C27_15  and  C19_29 
REMARK       I    between atoms: C17_16  and  O25_27 
REMARK       I    between atoms: S26_18  and  O18_24 
REMARK       I    between atoms: O30_20  and  S20_31 
REMARK       I    between atoms: N14_22  and  S20_31 
REMARK       I    between atoms: C12_23  and  O18_24 
REMARK       I    between atoms: O28_26  and  S20_31 
ROOT
ATOM      1  C10 H3S d 301      18.966   4.331  35.529  0.00  0.00     0.147 C 
ATOM      2  C7  H3S d 301      17.867   8.461  33.456  0.00  0.00     0.167 C 
ATOM      3  C1  H3S d 301      17.057   6.433  34.630  0.00  0.00     0.095 C 
ATOM      4  C8  H3S d 301      18.001   4.099  34.338  0.00  0.00     0.081 C 
ATOM      5  O3  H3S d 301      16.729   7.723  34.079  0.00  0.00    -0.348 OA
ATOM      6  C6  H3S d 301      17.441   7.514  36.955  0.00  0.00     0.043 C 
ATOM      7  C24 H3S d 301      16.704  11.044  33.967  0.00  0.00    -0.034 C 
ATOM      8  O34 H3S d 301      19.006  10.865  36.679  0.00  0.00    -0.642 OA
ATOM      9  C2  H3S d 301      18.043   6.572  35.879  0.00  0.00     0.089 C 
ATOM     10  O31 H3S d 301      20.302  10.005  29.947  0.00  0.00    -0.572 OA
ATOM     11  O29 H3S d 301      18.479   1.211  31.849  0.00  0.00    -0.296 OA
ATOM     12  O35 H3S d 301      17.201  12.205  36.614  0.00  0.00    -0.642 OA
ATOM     13  O9  H3S d 301      16.829   5.279  32.526  0.00  0.00    -0.391 OA
ATOM     14  O13 H3S d 301      18.422   9.441  34.425  0.00  0.00    -0.311 OA
ATOM     15  C27 H3S d 301      18.012  11.205  36.077  0.00  0.00     0.233 C 
ATOM     16  C17 H3S d 301      16.368  10.379  32.611  0.00  0.00     0.086 C 
ATOM     17  O32 H3S d 301      19.651   7.914  30.725  0.00  0.00    -0.572 OA
ATOM     18  S26 H3S d 301      19.185   9.233  30.384  0.00  0.00     0.252 S 
ATOM     19  O15 H3S d 301      20.240   4.832  35.043  0.00  0.00    -0.369 OA
ATOM     20  O30 H3S d 301      17.004   1.069  33.904  0.00  0.00    -0.296 OA
ATOM     21  O11 H3S d 301      16.323   6.905  37.625  0.00  0.00    -0.398 OA
ATOM     22  N14 H3S d 301      18.612   3.167  33.401  0.00  0.00    -0.210 NA
ATOM     23  C12 H3S d 301      17.414   9.266  32.178  0.00  0.00     0.135 C 
ATOM     24  O18 H3S d 301      18.575   9.946  31.624  0.00  0.00    -0.244 OA
ATOM     25  O33 H3S d 301      18.079   9.147  29.150  0.00  0.00    -0.572 OA
ATOM     26  O28 H3S d 301      16.636   2.615  31.942  0.00  0.00    -0.296 OA
ATOM     27  O25 H3S d 301      15.061   9.793  32.692  0.00  0.00    -0.389 OA
ATOM     28  C4  H3S d 301      17.713   5.447  33.644  0.00  0.00     0.083 C 
ATOM     29  C19 H3S d 301      17.691  10.558  34.790  0.00  0.00     0.147 C 
ATOM     30  O5  H3S d 301      18.387   5.282  36.486  0.00  0.00    -0.350 OA
ATOM     31  S20 H3S d 301      17.674   2.007  32.709  0.00  0.00     0.156 S 
ATOM     32  H   H3S d 301      19.121   3.397  36.029  0.00  0.00     0.131 H 
ATOM     33  H   H3S d 301      18.597   7.731  33.176  0.00  0.00     0.134 H 
ATOM     34  H   H3S d 301      16.106   6.033  34.911  0.00  0.00     0.091 H 
ATOM     35  H   H3S d 301      17.080   3.685  34.690  0.00  0.00     0.076 H 
ATOM     36  H   H3S d 301      17.113   8.416  36.482  0.00  0.00     0.078 H 
ATOM     37  H   H3S d 301      18.198   7.717  37.683  0.00  0.00     0.078 H 
ATOM     38  H   H3S d 301      16.171  11.877  34.263  0.00  0.00     0.085 H 
ATOM     39  H   H3S d 301      18.949   6.994  35.497  0.00  0.00     0.090 H 
ATOM     40  H   H3S d 301      19.187   0.794  32.364  0.00  0.00     0.231 HD
ATOM     41  H   H3S d 301      16.666   6.140  32.111  0.00  0.00     0.210 HD
ATOM     42  H   H3S d 301      16.407  11.147  31.867  0.00  0.00     0.093 H 
ATOM     43  H   H3S d 301      20.103   5.678  34.589  0.00  0.00     0.212 HD
ATOM     44  H   H3S d 301      17.709   0.656  34.425  0.00  0.00     0.231 HD
ATOM     45  H   H3S d 301      15.624   6.713  36.980  0.00  0.00     0.209 HD
ATOM     46  H   H3S d 301      19.361   2.688  33.900  0.00  0.00     0.140 HD
ATOM     47  H   H3S d 301      16.981   8.598  31.464  0.00  0.00     0.097 H 
ATOM     48  H   H3S d 301      16.087   1.926  31.538  0.00  0.00     0.231 HD
ATOM     49  H   H3S d 301      15.058   9.103  33.374  0.00  0.00     0.210 HD
ATOM     50  H   H3S d 301      18.651   5.833  33.303  0.00  0.00     0.089 H 
ENDROOT
TORSDOF 15
ENDMDL
MODEL 44
REMARK VINA RESULT:      -5.1      2.657      3.814
REMARK  0 active torsions:
REMARK  status: ('A' for Active; 'I' for Inactive)
REMARK       I    between atoms: C10_1  and  O15_19 
REMARK       I    between atoms: C7_2  and  O3_5 
REMARK       I    between atoms: C1_3  and  O3_5 
REMARK       I    between atoms: C8_4  and  N14_22 
REMARK       I    between atoms: C6_6  and  C2_9 
REMARK       I    between atoms: C6_6  and  O11_21 
REMARK       I    between atoms: O29_11  and  S20_31 
REMARK       I    between atoms: O9_13  and  C4_28 
REMARK       I    between atoms: C27_15  and  C19_29 
REMARK       I    between atoms: C17_16  and  O25_27 
REMARK       I    between atoms: S26_18  and  O18_24 
REMARK       I    between atoms: O30_20  and  S20_31 
REMARK       I    between atoms: N14_22  and  S20_31 
REMARK       I    between atoms: C12_23  and  O18_24 
REMARK       I    between atoms: O28_26  and  S20_31 
ROOT
ATOM      1  C10 H3S d 301      16.895  11.544  37.251  0.00  0.00     0.147 C 
ATOM      2  C7  H3S d 301      18.178   9.868  32.996  0.00  0.00     0.167 C 
ATOM      3  C1  H3S d 301      16.329  10.532  34.508  0.00  0.00     0.095 C 
ATOM      4  C8  H3S d 301      16.275  10.144  37.012  0.00  0.00     0.081 C 
ATOM      5  O3  H3S d 301      16.718  10.105  33.188  0.00  0.00    -0.348 OA
ATOM      6  C6  H3S d 301      16.487  13.010  33.762  0.00  0.00     0.043 C 
ATOM      7  C24 H3S d 301      18.084  10.453  30.179  0.00  0.00    -0.034 C 
ATOM      8  O34 H3S d 301      19.297  13.568  31.407  0.00  0.00    -0.642 OA
ATOM      9  C2  H3S d 301      16.913  11.981  34.842  0.00  0.00     0.089 C 
ATOM     10  O31 H3S d 301      21.870   7.260  32.558  0.00  0.00    -0.572 OA
ATOM     11  O29 H3S d 301      16.173   7.453  39.754  0.00  0.00    -0.296 OA
ATOM     12  O35 H3S d 301      18.288  13.277  29.419  0.00  0.00    -0.642 OA
ATOM     13  O9  H3S d 301      16.218   8.292  35.393  0.00  0.00    -0.391 OA
ATOM     14  O13 H3S d 301      18.806  11.065  32.379  0.00  0.00    -0.311 OA
ATOM     15  C27 H3S d 301      18.729  12.807  30.656  0.00  0.00     0.233 C 
ATOM     16  C17 H3S d 301      17.881   8.977  30.596  0.00  0.00     0.086 C 
ATOM     17  O32 H3S d 301      20.240   7.569  34.184  0.00  0.00    -0.572 OA
ATOM     18  S26 H3S d 301      20.463   7.317  32.785  0.00  0.00     0.252 S 
ATOM     19  O15 H3S d 301      18.341  11.437  37.336  0.00  0.00    -0.369 OA
ATOM     20  O30 H3S d 301      14.281   9.076  39.302  0.00  0.00    -0.296 OA
ATOM     21  O11 H3S d 301      15.083  13.315  33.847  0.00  0.00    -0.398 OA
ATOM     22  N14 H3S d 301      16.677   9.251  38.090  0.00  0.00    -0.210 NA
ATOM     23  C12 H3S d 301      18.454   8.645  32.040  0.00  0.00     0.135 C 
ATOM     24  O18 H3S d 301      19.892   8.471  31.913  0.00  0.00    -0.244 OA
ATOM     25  O33 H3S d 301      19.791   5.863  32.351  0.00  0.00    -0.572 OA
ATOM     26  O28 H3S d 301      15.115   7.316  37.696  0.00  0.00    -0.296 OA
ATOM     27  O25 H3S d 301      16.479   8.674  30.563  0.00  0.00    -0.389 OA
ATOM     28  C4  H3S d 301      16.760   9.596  35.652  0.00  0.00     0.083 C 
ATOM     29  C19 H3S d 301      18.527  11.404  31.066  0.00  0.00     0.147 C 
ATOM     30  O5  H3S d 301      16.524  12.465  36.170  0.00  0.00    -0.350 OA
ATOM     31  S20 H3S d 301      15.567   8.208  38.713  0.00  0.00     0.156 S 
ATOM     32  H   H3S d 301      16.515  11.932  38.174  0.00  0.00     0.131 H 
ATOM     33  H   H3S d 301      18.591   9.664  33.962  0.00  0.00     0.134 H 
ATOM     34  H   H3S d 301      15.261  10.529  34.466  0.00  0.00     0.091 H 
ATOM     35  H   H3S d 301      15.208  10.213  36.997  0.00  0.00     0.076 H 
ATOM     36  H   H3S d 301      16.696  12.605  32.794  0.00  0.00     0.078 H 
ATOM     37  H   H3S d 301      17.037  13.913  33.925  0.00  0.00     0.078 H 
ATOM     38  H   H3S d 301      17.882  10.731  29.207  0.00  0.00     0.085 H 
ATOM     39  H   H3S d 301      17.979  11.879  34.841  0.00  0.00     0.090 H 
ATOM     40  H   H3S d 301      16.484   8.054  40.450  0.00  0.00     0.231 HD
ATOM     41  H   H3S d 301      16.539   7.975  34.535  0.00  0.00     0.210 HD
ATOM     42  H   H3S d 301      18.427   8.375  29.901  0.00  0.00     0.093 H 
ATOM     43  H   H3S d 301      18.689  11.085  36.501  0.00  0.00     0.212 HD
ATOM     44  H   H3S d 301      14.588   9.682  39.993  0.00  0.00     0.231 HD
ATOM     45  H   H3S d 301      14.567  12.507  33.702  0.00  0.00     0.209 HD
ATOM     46  H   H3S d 301      17.002   9.837  38.859  0.00  0.00     0.140 HD
ATOM     47  H   H3S d 301      17.992   7.764  32.436  0.00  0.00     0.097 H 
ATOM     48  H   H3S d 301      14.461   6.705  38.069  0.00  0.00     0.231 HD
ATOM     49  H   H3S d 301      16.012   9.235  31.203  0.00  0.00     0.210 HD
ATOM     50  H   H3S d 301      17.828   9.536  35.700  0.00  0.00     0.089 H 
ENDROOT
TORSDOF 15
ENDMDL
MODEL 45
REMARK VINA RESULT:      -5.1      3.021      7.187
REMARK  0 active torsions:
REMARK  status: ('A' for Active; 'I' for Inactive)
REMARK       I    between atoms: C10_1  and  O15_19 
REMARK       I    between atoms: C7_2  and  O3_5 
REMARK       I    between atoms: C1_3  and  O3_5 
REMARK       I    between atoms: C8_4  and  N14_22 
REMARK       I    between atoms: C6_6  and  C2_9 
REMARK       I    between atoms: C6_6  and  O11_21 
REMARK       I    between atoms: O29_11  and  S20_31 
REMARK       I    between atoms: O9_13  and  C4_28 
REMARK       I    between atoms: C27_15  and  C19_29 
REMARK       I    between atoms: C17_16  and  O25_27 
REMARK       I    between atoms: S26_18  and  O18_24 
REMARK       I    between atoms: O30_20  and  S20_31 
REMARK       I    between atoms: N14_22  and  S20_31 
REMARK       I    between atoms: C12_23  and  O18_24 
REMARK       I    between atoms: O28_26  and  S20_31 
ROOT
ATOM      1  C10 H3S d 301      16.524  10.420  32.458  0.00  0.00     0.147 C 
ATOM      2  C7  H3S d 301      15.013  10.946  36.931  0.00  0.00     0.167 C 
ATOM      3  C1  H3S d 301      16.697  11.541  35.213  0.00  0.00     0.095 C 
ATOM      4  C8  H3S d 301      17.618   9.961  33.457  0.00  0.00     0.081 C 
ATOM      5  O3  H3S d 301      16.195  11.769  36.543  0.00  0.00    -0.348 OA
ATOM      6  C6  H3S d 301      15.232  13.482  34.315  0.00  0.00     0.043 C 
ATOM      7  C24 H3S d 301      14.041  12.901  38.807  0.00  0.00    -0.034 C 
ATOM      8  O34 H3S d 301      11.943  13.633  36.024  0.00  0.00    -0.642 OA
ATOM      9  C2  H3S d 301      15.639  11.999  34.108  0.00  0.00     0.089 C 
ATOM     10  O31 H3S d 301      12.950   7.524  39.090  0.00  0.00    -0.572 OA
ATOM     11  O29 H3S d 301      19.689   6.773  32.902  0.00  0.00    -0.296 OA
ATOM     12  O35 H3S d 301      12.375  15.052  37.715  0.00  0.00    -0.642 OA
ATOM     13  O9  H3S d 301      18.054   9.656  35.859  0.00  0.00    -0.391 OA
ATOM     14  O13 H3S d 301      13.766  11.731  36.736  0.00  0.00    -0.311 OA
ATOM     15  C27 H3S d 301      12.560  13.842  37.045  0.00  0.00     0.233 C 
ATOM     16  C17 H3S d 301      15.000  11.817  39.356  0.00  0.00     0.086 C 
ATOM     17  O32 H3S d 301      14.642   7.709  37.509  0.00  0.00    -0.572 OA
ATOM     18  S26 H3S d 301      14.178   8.183  38.786  0.00  0.00     0.252 S 
ATOM     19  O15 H3S d 301      15.372   9.540  32.547  0.00  0.00    -0.369 OA
ATOM     20  O30 H3S d 301      20.429   9.080  32.160  0.00  0.00    -0.296 OA
ATOM     21  O11 H3S d 301      16.305  14.378  33.975  0.00  0.00    -0.398 OA
ATOM     22  N14 H3S d 301      17.983   8.582  33.167  0.00  0.00    -0.210 NA
ATOM     23  C12 H3S d 301      15.068  10.517  38.447  0.00  0.00     0.135 C 
ATOM     24  O18 H3S d 301      13.894   9.711  38.744  0.00  0.00    -0.244 OA
ATOM     25  O33 H3S d 301      15.285   7.821  39.968  0.00  0.00    -0.572 OA
ATOM     26  O28 H3S d 301      20.073   8.355  34.551  0.00  0.00    -0.296 OA
ATOM     27  O25 H3S d 301      16.315  12.379  39.477  0.00  0.00    -0.389 OA
ATOM     28  C4  H3S d 301      17.077  10.081  34.898  0.00  0.00     0.083 C 
ATOM     29  C19 H3S d 301      13.482  12.809  37.556  0.00  0.00     0.147 C 
ATOM     30  O5  H3S d 301      16.119  11.803  32.736  0.00  0.00    -0.350 OA
ATOM     31  S20 H3S d 301      19.569   8.150  33.233  0.00  0.00     0.156 S 
ATOM     32  H   H3S d 301      16.927  10.376  31.468  0.00  0.00     0.131 H 
ATOM     33  H   H3S d 301      15.025  10.072  36.314  0.00  0.00     0.134 H 
ATOM     34  H   H3S d 301      17.592  12.126  35.180  0.00  0.00     0.091 H 
ATOM     35  H   H3S d 301      18.485  10.579  33.359  0.00  0.00     0.076 H 
ATOM     36  H   H3S d 301      14.969  13.629  35.342  0.00  0.00     0.078 H 
ATOM     37  H   H3S d 301      14.402  13.693  33.674  0.00  0.00     0.078 H 
ATOM     38  H   H3S d 301      13.816  13.716  39.398  0.00  0.00     0.085 H 
ATOM     39  H   H3S d 301      14.783  11.369  34.237  0.00  0.00     0.090 H 
ATOM     40  H   H3S d 301      19.348   6.625  32.006  0.00  0.00     0.231 HD
ATOM     41  H   H3S d 301      17.688   9.742  36.752  0.00  0.00     0.210 HD
ATOM     42  H   H3S d 301      14.617  11.510  40.306  0.00  0.00     0.093 H 
ATOM     43  H   H3S d 301      15.005   9.577  33.444  0.00  0.00     0.212 HD
ATOM     44  H   H3S d 301      20.086   8.940  31.264  0.00  0.00     0.231 HD
ATOM     45  H   H3S d 301      17.068  14.200  34.547  0.00  0.00     0.209 HD
ATOM     46  H   H3S d 301      17.657   8.378  32.223  0.00  0.00     0.140 HD
ATOM     47  H   H3S d 301      15.969   9.971  38.637  0.00  0.00     0.097 H 
ATOM     48  H   H3S d 301      21.008   8.099  34.584  0.00  0.00     0.231 HD
ATOM     49  H   H3S d 301      16.634  12.646  38.601  0.00  0.00     0.210 HD
ATOM     50  H   H3S d 301      16.214   9.452  34.964  0.00  0.00     0.089 H 
ENDROOT
TORSDOF 15
ENDMDL
MODEL 46
REMARK VINA RESULT:      -5.1      2.888      7.206
REMARK  0 active torsions:
REMARK  status: ('A' for Active; 'I' for Inactive)
REMARK       I    between atoms: C10_1  and  O15_19 
REMARK       I    between atoms: C7_2  and  O3_5 
REMARK       I    between atoms: C1_3  and  O3_5 
REMARK       I    between atoms: C8_4  and  N14_22 
REMARK       I    between atoms: C6_6  and  C2_9 
REMARK       I    between atoms: C6_6  and  O11_21 
REMARK       I    between atoms: O29_11  and  S20_31 
REMARK       I    between atoms: O9_13  and  C4_28 
REMARK       I    between atoms: C27_15  and  C19_29 
REMARK       I    between atoms: C17_16  and  O25_27 
REMARK       I    between atoms: S26_18  and  O18_24 
REMARK       I    between atoms: O30_20  and  S20_31 
REMARK       I    between atoms: N14_22  and  S20_31 
REMARK       I    between atoms: C12_23  and  O18_24 
REMARK       I    between atoms: O28_26  and  S20_31 
ROOT
ATOM      1  C10 H3S d 301      19.799   7.773  33.456  0.00  0.00     0.147 C 
ATOM      2  C7  H3S d 301      16.664   8.632  36.919  0.00  0.00     0.167 C 
ATOM      3  C1  H3S d 301      17.335   7.185  35.021  0.00  0.00     0.095 C 
ATOM      4  C8  H3S d 301      18.385   7.997  32.862  0.00  0.00     0.081 C 
ATOM      5  O3  H3S d 301      16.429   7.393  36.122  0.00  0.00    -0.348 OA
ATOM      6  C6  H3S d 301      18.866   5.746  36.540  0.00  0.00     0.043 C 
ATOM      7  C24 H3S d 301      15.539   7.515  39.322  0.00  0.00    -0.034 C 
ATOM      8  O34 H3S d 301      19.005   7.063  40.004  0.00  0.00    -0.642 OA
ATOM      9  C2  H3S d 301      18.824   6.930  35.538  0.00  0.00     0.089 C 
ATOM     10  O31 H3S d 301      15.757  12.891  38.210  0.00  0.00    -0.572 OA
ATOM     11  O29 H3S d 301      17.800  10.107  29.704  0.00  0.00    -0.296 OA
ATOM     12  O35 H3S d 301      17.342   5.917  40.993  0.00  0.00    -0.642 OA
ATOM     13  O9  H3S d 301      16.077   8.564  33.496  0.00  0.00    -0.391 OA
ATOM     14  O13 H3S d 301      17.460   8.308  38.131  0.00  0.00    -0.311 OA
ATOM     15  C27 H3S d 301      17.816   6.843  40.064  0.00  0.00     0.233 C 
ATOM     16  C17 H3S d 301      14.574   8.278  38.384  0.00  0.00     0.086 C 
ATOM     17  O32 H3S d 301      16.299  11.843  36.209  0.00  0.00    -0.572 OA
ATOM     18  S26 H3S d 301      15.425  11.802  37.351  0.00  0.00     0.252 S 
ATOM     19  O15 H3S d 301      20.278   8.999  34.069  0.00  0.00    -0.369 OA
ATOM     20  O30 H3S d 301      18.112   7.593  29.680  0.00  0.00    -0.296 OA
ATOM     21  O11 H3S d 301      18.645   4.487  35.880  0.00  0.00    -0.398 OA
ATOM     22  N14 H3S d 301      18.437   9.085  31.896  0.00  0.00    -0.210 NA
ATOM     23  C12 H3S d 301      15.312   9.285  37.402  0.00  0.00     0.135 C 
ATOM     24  O18 H3S d 301      15.622  10.488  38.158  0.00  0.00    -0.244 OA
ATOM     25  O33 H3S d 301      13.845  11.966  36.869  0.00  0.00    -0.572 OA
ATOM     26  O28 H3S d 301      16.198   8.819  30.776  0.00  0.00    -0.296 OA
ATOM     27  O25 H3S d 301      13.827   7.327  37.612  0.00  0.00    -0.389 OA
ATOM     28  C4  H3S d 301      17.401   8.338  34.002  0.00  0.00     0.083 C 
ATOM     29  C19 H3S d 301      16.902   7.565  39.157  0.00  0.00     0.147 C 
ATOM     30  O5  H3S d 301      19.777   6.692  34.449  0.00  0.00    -0.350 OA
ATOM     31  S20 H3S d 301      17.591   8.943  30.493  0.00  0.00     0.156 S 
ATOM     32  H   H3S d 301      20.461   7.492  32.663  0.00  0.00     0.131 H 
ATOM     33  H   H3S d 301      17.183   9.319  36.283  0.00  0.00     0.134 H 
ATOM     34  H   H3S d 301      16.929   6.330  34.524  0.00  0.00     0.091 H 
ATOM     35  H   H3S d 301      18.050   7.109  32.368  0.00  0.00     0.076 H 
ATOM     36  H   H3S d 301      18.105   5.889  37.279  0.00  0.00     0.078 H 
ATOM     37  H   H3S d 301      19.836   5.723  36.991  0.00  0.00     0.078 H 
ATOM     38  H   H3S d 301      15.149   6.952  40.093  0.00  0.00     0.085 H 
ATOM     39  H   H3S d 301      19.126   7.830  36.032  0.00  0.00     0.090 H 
ATOM     40  H   H3S d 301      18.746  10.198  29.507  0.00  0.00     0.231 HD
ATOM     41  H   H3S d 301      15.482   8.776  34.232  0.00  0.00     0.210 HD
ATOM     42  H   H3S d 301      13.932   8.867  39.005  0.00  0.00     0.093 H 
ATOM     43  H   H3S d 301      19.680   9.256  34.788  0.00  0.00     0.212 HD
ATOM     44  H   H3S d 301      19.059   7.677  29.487  0.00  0.00     0.231 HD
ATOM     45  H   H3S d 301      17.768   4.489  35.465  0.00  0.00     0.209 HD
ATOM     46  H   H3S d 301      19.417   9.214  31.643  0.00  0.00     0.140 HD
ATOM     47  H   H3S d 301      14.695   9.508  36.557  0.00  0.00     0.097 H 
ATOM     48  H   H3S d 301      15.705   8.736  29.946  0.00  0.00     0.231 HD
ATOM     49  H   H3S d 301      14.435   6.810  37.061  0.00  0.00     0.210 HD
ATOM     50  H   H3S d 301      17.761   9.229  34.472  0.00  0.00     0.089 H 
ENDROOT
TORSDOF 15
ENDMDL
MODEL 47
REMARK VINA RESULT:      -5.1      2.939      4.199
REMARK  0 active torsions:
REMARK  status: ('A' for Active; 'I' for Inactive)
REMARK       I    between atoms: C10_1  and  O15_19 
REMARK       I    between atoms: C7_2  and  O3_5 
REMARK       I    between atoms: C1_3  and  O3_5 
REMARK       I    between atoms: C8_4  and  N14_22 
REMARK       I    between atoms: C6_6  and  C2_9 
REMARK       I    between atoms: C6_6  and  O11_21 
REMARK       I    between atoms: O29_11  and  S20_31 
REMARK       I    between atoms: O9_13  and  C4_28 
REMARK       I    between atoms: C27_15  and  C19_29 
REMARK       I    between atoms: C17_16  and  O25_27 
REMARK       I    between atoms: S26_18  and  O18_24 
REMARK       I    between atoms: O30_20  and  S20_31 
REMARK       I    between atoms: N14_22  and  S20_31 
REMARK       I    between atoms: C12_23  and  O18_24 
REMARK       I    between atoms: O28_26  and  S20_31 
ROOT
ATOM      1  C10 H3S d 301      16.139  10.065  40.725  0.00  0.00     0.147 C 
ATOM      2  C7  H3S d 301      17.875   9.466  36.344  0.00  0.00     0.167 C 
ATOM      3  C1  H3S d 301      16.437  10.805  37.855  0.00  0.00     0.095 C 
ATOM      4  C8  H3S d 301      14.986   9.865  39.708  0.00  0.00     0.081 C 
ATOM      5  O3  H3S d 301      17.028  10.677  36.548  0.00  0.00    -0.348 OA
ATOM      6  C6  H3S d 301      18.443  12.255  38.630  0.00  0.00     0.043 C 
ATOM      7  C24 H3S d 301      19.505  10.725  34.333  0.00  0.00    -0.034 C 
ATOM      8  O34 H3S d 301      21.641  11.085  37.160  0.00  0.00    -0.642 OA
ATOM      9  C2  H3S d 301      17.554  11.030  38.975  0.00  0.00     0.089 C 
ATOM     10  O31 H3S d 301      18.731   5.302  34.747  0.00  0.00    -0.572 OA
ATOM     11  O29 H3S d 301      11.946   7.641  40.471  0.00  0.00    -0.296 OA
ATOM     12  O35 H3S d 301      21.764  12.330  35.291  0.00  0.00    -0.642 OA
ATOM     13  O9  H3S d 301      14.545   9.406  37.331  0.00  0.00    -0.391 OA
ATOM     14  O13 H3S d 301      19.307   9.815  36.538  0.00  0.00    -0.311 OA
ATOM     15  C27 H3S d 301      21.162  11.349  36.079  0.00  0.00     0.233 C 
ATOM     16  C17 H3S d 301      18.255   9.956  33.843  0.00  0.00     0.086 C 
ATOM     17  O32 H3S d 301      17.152   6.243  36.169  0.00  0.00    -0.572 OA
ATOM     18  S26 H3S d 301      17.788   6.363  34.883  0.00  0.00     0.252 S 
ATOM     19  O15 H3S d 301      16.929   8.850  40.821  0.00  0.00    -0.369 OA
ATOM     20  O30 H3S d 301      12.004  10.140  40.888  0.00  0.00    -0.296 OA
ATOM     21  O11 H3S d 301      17.724  13.491  38.786  0.00  0.00    -0.398 OA
ATOM     22  N14 H3S d 301      14.168   8.735  40.126  0.00  0.00    -0.210 NA
ATOM     23  C12 H3S d 301      17.725   8.883  34.886  0.00  0.00     0.135 C 
ATOM     24  O18 H3S d 301      18.568   7.704  34.771  0.00  0.00    -0.244 OA
ATOM     25  O33 H3S d 301      16.660   6.234  33.672  0.00  0.00    -0.572 OA
ATOM     26  O28 H3S d 301      12.168   9.029  38.628  0.00  0.00    -0.296 OA
ATOM     27  O25 H3S d 301      17.210  10.899  33.562  0.00  0.00    -0.389 OA
ATOM     28  C4  H3S d 301      15.580   9.608  38.306  0.00  0.00     0.083 C 
ATOM     29  C19 H3S d 301      19.962  10.621  35.624  0.00  0.00     0.147 C 
ATOM     30  O5  H3S d 301      16.994  11.187  40.321  0.00  0.00    -0.350 OA
ATOM     31  S20 H3S d 301      12.532   8.845  39.994  0.00  0.00     0.156 S 
ATOM     32  H   H3S d 301      15.715  10.288  41.682  0.00  0.00     0.131 H 
ATOM     33  H   H3S d 301      17.551   8.735  37.055  0.00  0.00     0.134 H 
ATOM     34  H   H3S d 301      15.792  11.652  37.755  0.00  0.00     0.091 H 
ATOM     35  H   H3S d 301      14.374  10.741  39.671  0.00  0.00     0.076 H 
ATOM     36  H   H3S d 301      18.771  12.170  37.615  0.00  0.00     0.078 H 
ATOM     37  H   H3S d 301      19.275  12.263  39.301  0.00  0.00     0.078 H 
ATOM     38  H   H3S d 301      20.010  11.335  33.671  0.00  0.00     0.085 H 
ATOM     39  H   H3S d 301      18.151  10.143  38.981  0.00  0.00     0.090 H 
ATOM     40  H   H3S d 301      12.190   7.509  41.401  0.00  0.00     0.231 HD
ATOM     41  H   H3S d 301      14.947   9.248  36.463  0.00  0.00     0.210 HD
ATOM     42  H   H3S d 301      18.542   9.417  32.964  0.00  0.00     0.093 H 
ATOM     43  H   H3S d 301      17.315   8.645  39.955  0.00  0.00     0.212 HD
ATOM     44  H   H3S d 301      12.252  10.014  41.817  0.00  0.00     0.231 HD
ATOM     45  H   H3S d 301      16.963  13.501  38.184  0.00  0.00     0.209 HD
ATOM     46  H   H3S d 301      14.378   8.561  41.109  0.00  0.00     0.140 HD
ATOM     47  H   H3S d 301      16.699   8.645  34.696  0.00  0.00     0.097 H 
ATOM     48  H   H3S d 301      11.203   9.094  38.556  0.00  0.00     0.231 HD
ATOM     49  H   H3S d 301      16.973  11.370  34.377  0.00  0.00     0.210 HD
ATOM     50  H   H3S d 301      16.182   8.726  38.376  0.00  0.00     0.089 H 
ENDROOT
TORSDOF 15
ENDMDL
MODEL 48
REMARK VINA RESULT:      -5.1      3.399      5.560
REMARK  0 active torsions:
REMARK  status: ('A' for Active; 'I' for Inactive)
REMARK       I    between atoms: C10_1  and  O15_19 
REMARK       I    between atoms: C7_2  and  O3_5 
REMARK       I    between atoms: C1_3  and  O3_5 
REMARK       I    between atoms: C8_4  and  N14_22 
REMARK       I    between atoms: C6_6  and  C2_9 
REMARK       I    between atoms: C6_6  and  O11_21 
REMARK       I    between atoms: O29_11  and  S20_31 
REMARK       I    between atoms: O9_13  and  C4_28 
REMARK       I    between atoms: C27_15  and  C19_29 
REMARK       I    between atoms: C17_16  and  O25_27 
REMARK       I    between atoms: S26_18  and  O18_24 
REMARK       I    between atoms: O30_20  and  S20_31 
REMARK       I    between atoms: N14_22  and  S20_31 
REMARK       I    between atoms: C12_23  and  O18_24 
REMARK       I    between atoms: O28_26  and  S20_31 
ROOT
ATOM      1  C10 H3S d 301      17.210   7.469  31.529  0.00  0.00     0.147 C 
ATOM      2  C7  H3S d 301      19.546   5.483  35.158  0.00  0.00     0.167 C 
ATOM      3  C1  H3S d 301      17.360   5.939  34.080  0.00  0.00     0.095 C 
ATOM      4  C8  H3S d 301      16.742   8.081  32.874  0.00  0.00     0.081 C 
ATOM      5  O3  H3S d 301      18.070   5.263  35.136  0.00  0.00    -0.348 OA
ATOM      6  C6  H3S d 301      17.553   3.828  32.587  0.00  0.00     0.043 C 
ATOM      7  C24 H3S d 301      20.084   2.958  36.430  0.00  0.00    -0.034 C 
ATOM      8  O34 H3S d 301      20.803   2.101  33.049  0.00  0.00    -0.642 OA
ATOM      9  C2  H3S d 301      17.770   5.363  32.648  0.00  0.00     0.089 C 
ATOM     10  O31 H3S d 301      23.374   7.346  36.738  0.00  0.00    -0.572 OA
ATOM     11  O29 H3S d 301      16.146  11.851  33.312  0.00  0.00    -0.296 OA
ATOM     12  O35 H3S d 301      20.306   0.623  34.670  0.00  0.00    -0.642 OA
ATOM     13  O9  H3S d 301      17.167   8.011  35.296  0.00  0.00    -0.391 OA
ATOM     14  O13 H3S d 301      20.234   4.350  34.488  0.00  0.00    -0.311 OA
ATOM     15  C27 H3S d 301      20.469   1.927  34.200  0.00  0.00     0.233 C 
ATOM     16  C17 H3S d 301      19.868   4.178  37.357  0.00  0.00     0.086 C 
ATOM     17  O32 H3S d 301      21.393   8.146  35.823  0.00  0.00    -0.572 OA
ATOM     18  S26 H3S d 301      21.952   7.274  36.823  0.00  0.00     0.252 S 
ATOM     19  O15 H3S d 301      18.600   7.815  31.286  0.00  0.00    -0.369 OA
ATOM     20  O30 H3S d 301      14.327  10.201  32.691  0.00  0.00    -0.296 OA
ATOM     21  O11 H3S d 301      16.154   3.492  32.566  0.00  0.00    -0.398 OA
ATOM     22  N14 H3S d 301      16.927   9.524  32.835  0.00  0.00    -0.210 NA
ATOM     23  C12 H3S d 301      20.104   5.570  36.630  0.00  0.00     0.135 C 
ATOM     24  O18 H3S d 301      21.540   5.797  36.568  0.00  0.00    -0.244 OA
ATOM     25  O33 H3S d 301      21.482   7.764  38.337  0.00  0.00    -0.572 OA
ATOM     26  O28 H3S d 301      15.610  10.217  34.865  0.00  0.00    -0.296 OA
ATOM     27  O25 H3S d 301      18.532   4.137  37.877  0.00  0.00    -0.389 OA
ATOM     28  C4  H3S d 301      17.561   7.465  34.029  0.00  0.00     0.083 C 
ATOM     29  C19 H3S d 301      20.253   3.096  35.074  0.00  0.00     0.147 C 
ATOM     30  O5  H3S d 301      17.054   6.009  31.543  0.00  0.00    -0.350 OA
ATOM     31  S20 H3S d 301      15.761  10.493  33.474  0.00  0.00     0.156 S 
ATOM     32  H   H3S d 301      16.604   7.868  30.743  0.00  0.00     0.131 H 
ATOM     33  H   H3S d 301      19.731   6.408  34.652  0.00  0.00     0.134 H 
ATOM     34  H   H3S d 301      16.333   5.751  34.311  0.00  0.00     0.091 H 
ATOM     35  H   H3S d 301      15.706   7.867  33.032  0.00  0.00     0.076 H 
ATOM     36  H   H3S d 301      18.005   3.379  33.447  0.00  0.00     0.078 H 
ATOM     37  H   H3S d 301      17.999   3.462  31.686  0.00  0.00     0.078 H 
ATOM     38  H   H3S d 301      20.100   2.012  36.843  0.00  0.00     0.085 H 
ATOM     39  H   H3S d 301      18.809   5.585  32.524  0.00  0.00     0.090 H 
ATOM     40  H   H3S d 301      16.252  12.047  32.367  0.00  0.00     0.231 HD
ATOM     41  H   H3S d 301      17.697   7.607  36.001  0.00  0.00     0.210 HD
ATOM     42  H   H3S d 301      20.595   4.111  38.139  0.00  0.00     0.093 H 
ATOM     43  H   H3S d 301      19.152   7.454  31.997  0.00  0.00     0.212 HD
ATOM     44  H   H3S d 301      14.430  10.389  31.746  0.00  0.00     0.231 HD
ATOM     45  H   H3S d 301      15.731   3.816  33.378  0.00  0.00     0.209 HD
ATOM     46  H   H3S d 301      17.030   9.786  31.855  0.00  0.00     0.140 HD
ATOM     47  H   H3S d 301      19.611   6.360  37.158  0.00  0.00     0.097 H 
ATOM     48  H   H3S d 301      14.921  10.790  35.235  0.00  0.00     0.231 HD
ATOM     49  H   H3S d 301      17.898   4.200  37.145  0.00  0.00     0.210 HD
ATOM     50  H   H3S d 301      18.590   7.697  33.844  0.00  0.00     0.089 H 
ENDROOT
TORSDOF 15
ENDMDL
MODEL 49
REMARK VINA RESULT:      -5.1      2.900      6.677
REMARK  0 active torsions:
REMARK  status: ('A' for Active; 'I' for Inactive)
REMARK       I    between atoms: C10_1  and  O15_19 
REMARK       I    between atoms: C7_2  and  O3_5 
REMARK       I    between atoms: C1_3  and  O3_5 
REMARK       I    between atoms: C8_4  and  N14_22 
REMARK       I    between atoms: C6_6  and  C2_9 
REMARK       I    between atoms: C6_6  and  O11_21 
REMARK       I    between atoms: O29_11  and  S20_31 
REMARK       I    between atoms: O9_13  and  C4_28 
REMARK       I    between atoms: C27_15  and  C19_29 
REMARK       I    between atoms: C17_16  and  O25_27 
REMARK       I    between atoms: S26_18  and  O18_24 
REMARK       I    between atoms: O30_20  and  S20_31 
REMARK       I    between atoms: N14_22  and  S20_31 
REMARK       I    between atoms: C12_23  and  O18_24 
REMARK       I    between atoms: O28_26  and  S20_31 
ROOT
ATOM      1  C10 H3S d 301      17.857   6.790  38.548  0.00  0.00     0.147 C 
ATOM      2  C7  H3S d 301      16.441  10.051  35.398  0.00  0.00     0.167 C 
ATOM      3  C1  H3S d 301      16.191   7.744  36.271  0.00  0.00     0.095 C 
ATOM      4  C8  H3S d 301      18.086   6.281  37.102  0.00  0.00     0.081 C 
ATOM      5  O3  H3S d 301      15.700   8.757  35.371  0.00  0.00    -0.348 OA
ATOM      6  C6  H3S d 301      14.495   8.513  38.076  0.00  0.00     0.043 C 
ATOM      7  C24 H3S d 301      14.154  11.583  34.556  0.00  0.00    -0.034 C 
ATOM      8  O34 H3S d 301      14.038  12.194  38.062  0.00  0.00    -0.642 OA
ATOM      9  C2  H3S d 301      15.984   8.176  37.795  0.00  0.00     0.089 C 
ATOM     10  O31 H3S d 301      19.371  13.114  33.768  0.00  0.00    -0.572 OA
ATOM     11  O29 H3S d 301      21.294   4.436  36.065  0.00  0.00    -0.296 OA
ATOM     12  O35 H3S d 301      12.296  12.430  36.660  0.00  0.00    -0.642 OA
ATOM     13  O9  H3S d 301      17.885   6.960  34.746  0.00  0.00    -0.391 OA
ATOM     14  O13 H3S d 301      15.729  11.021  36.270  0.00  0.00    -0.311 OA
ATOM     15  C27 H3S d 301      13.615  12.069  36.934  0.00  0.00     0.233 C 
ATOM     16  C17 H3S d 301      15.089  11.049  33.444  0.00  0.00     0.086 C 
ATOM     17  O32 H3S d 301      19.494  10.893  34.440  0.00  0.00    -0.572 OA
ATOM     18  S26 H3S d 301      18.773  11.828  33.616  0.00  0.00     0.252 S 
ATOM     19  O15 H3S d 301      18.715   7.932  38.813  0.00  0.00    -0.369 OA
ATOM     20  O30 H3S d 301      19.180   3.266  36.827  0.00  0.00    -0.296 OA
ATOM     21  O11 H3S d 301      13.675   7.331  38.070  0.00  0.00    -0.398 OA
ATOM     22  N14 H3S d 301      19.491   5.937  36.932  0.00  0.00    -0.210 NA
ATOM     23  C12 H3S d 301      16.548  10.696  33.963  0.00  0.00     0.135 C 
ATOM     24  O18 H3S d 301      17.290  11.942  34.069  0.00  0.00    -0.244 OA
ATOM     25  O33 H3S d 301      18.869  11.379  32.022  0.00  0.00    -0.572 OA
ATOM     26  O28 H3S d 301      19.400   4.684  34.751  0.00  0.00    -0.296 OA
ATOM     27  O25 H3S d 301      14.498   9.878  32.863  0.00  0.00    -0.389 OA
ATOM     28  C4  H3S d 301      17.679   7.384  36.102  0.00  0.00     0.083 C 
ATOM     29  C19 H3S d 301      14.509  11.547  35.882  0.00  0.00     0.147 C 
ATOM     30  O5  H3S d 301      16.451   7.164  38.747  0.00  0.00    -0.350 OA
ATOM     31  S20 H3S d 301      19.879   4.578  36.090  0.00  0.00     0.156 S 
ATOM     32  H   H3S d 301      18.099   6.001  39.230  0.00  0.00     0.131 H 
ATOM     33  H   H3S d 301      17.423   9.841  35.767  0.00  0.00     0.134 H 
ATOM     34  H   H3S d 301      15.613   6.882  36.015  0.00  0.00     0.091 H 
ATOM     35  H   H3S d 301      17.490   5.411  36.921  0.00  0.00     0.076 H 
ATOM     36  H   H3S d 301      14.143   9.184  37.320  0.00  0.00     0.078 H 
ATOM     37  H   H3S d 301      14.431   8.961  39.045  0.00  0.00     0.078 H 
ATOM     38  H   H3S d 301      13.238  11.978  34.293  0.00  0.00     0.085 H 
ATOM     39  H   H3S d 301      16.584   9.050  37.941  0.00  0.00     0.090 H 
ATOM     40  H   H3S d 301      21.627   4.364  36.973  0.00  0.00     0.231 HD
ATOM     41  H   H3S d 301      17.621   7.670  34.141  0.00  0.00     0.210 HD
ATOM     42  H   H3S d 301      15.198  11.831  32.723  0.00  0.00     0.093 H 
ATOM     43  H   H3S d 301      18.498   8.648  38.196  0.00  0.00     0.212 HD
ATOM     44  H   H3S d 301      19.505   3.194  37.737  0.00  0.00     0.231 HD
ATOM     45  H   H3S d 301      13.721   6.910  37.196  0.00  0.00     0.209 HD
ATOM     46  H   H3S d 301      19.889   5.835  37.865  0.00  0.00     0.140 HD
ATOM     47  H   H3S d 301      17.031  10.014  33.295  0.00  0.00     0.097 H 
ATOM     48  H   H3S d 301      19.632   3.880  34.260  0.00  0.00     0.231 HD
ATOM     49  H   H3S d 301      14.412   9.189  33.541  0.00  0.00     0.210 HD
ATOM     50  H   H3S d 301      18.293   8.237  36.306  0.00  0.00     0.089 H 
ENDROOT
TORSDOF 15
ENDMDL
MODEL 50
REMARK VINA RESULT:      -5.1      2.813      6.292
REMARK  0 active torsions:
REMARK  status: ('A' for Active; 'I' for Inactive)
REMARK       I    between atoms: C10_1  and  O15_19 
REMARK       I    between atoms: C7_2  and  O3_5 
REMARK       I    between atoms: C1_3  and  O3_5 
REMARK       I    between atoms: C8_4  and  N14_22 
REMARK       I    between atoms: C6_6  and  C2_9 
REMARK       I    between atoms: C6_6  and  O11_21 
REMARK       I    between atoms: O29_11  and  S20_31 
REMARK       I    between atoms: O9_13  and  C4_28 
REMARK       I    between atoms: C27_15  and  C19_29 
REMARK       I    between atoms: C17_16  and  O25_27 
REMARK       I    between atoms: S26_18  and  O18_24 
REMARK       I    between atoms: O30_20  and  S20_31 
REMARK       I    between atoms: N14_22  and  S20_31 
REMARK       I    between atoms: C12_23  and  O18_24 
REMARK       I    between atoms: O28_26  and  S20_31 
ROOT
ATOM      1  C10 H3S d 301      17.807   6.642  34.567  0.00  0.00     0.147 C 
ATOM      2  C7  H3S d 301      16.902  11.294  34.243  0.00  0.00     0.167 C 
ATOM      3  C1  H3S d 301      18.514   9.519  34.874  0.00  0.00     0.095 C 
ATOM      4  C8  H3S d 301      17.908   7.311  35.962  0.00  0.00     0.081 C 
ATOM      5  O3  H3S d 301      18.276  10.929  34.697  0.00  0.00    -0.348 OA
ATOM      6  C6  H3S d 301      19.429   9.361  32.453  0.00  0.00     0.043 C 
ATOM      7  C24 H3S d 301      17.779  13.715  32.955  0.00  0.00    -0.034 C 
ATOM      8  O34 H3S d 301      17.563  11.564  30.125  0.00  0.00    -0.642 OA
ATOM      9  C2  H3S d 301      18.444   8.742  33.480  0.00  0.00     0.089 C 
ATOM     10  O31 H3S d 301      12.687  12.875  34.842  0.00  0.00    -0.572 OA
ATOM     11  O29 H3S d 301      16.456   5.683  39.125  0.00  0.00    -0.296 OA
ATOM     12  O35 H3S d 301      18.781  13.452  30.212  0.00  0.00    -0.642 OA
ATOM     13  O9  H3S d 301      17.616   9.468  37.110  0.00  0.00    -0.391 OA
ATOM     14  O13 H3S d 301      16.896  11.496  32.771  0.00  0.00    -0.311 OA
ATOM     15  C27 H3S d 301      17.955  12.492  30.797  0.00  0.00     0.233 C 
ATOM     16  C17 H3S d 301      17.339  13.826  34.435  0.00  0.00     0.086 C 
ATOM     17  O32 H3S d 301      13.948  11.132  35.722  0.00  0.00    -0.572 OA
ATOM     18  S26 H3S d 301      13.940  12.544  35.439  0.00  0.00     0.252 S 
ATOM     19  O15 H3S d 301      16.437   6.702  34.087  0.00  0.00    -0.369 OA
ATOM     20  O30 H3S d 301      18.860   5.405  38.374  0.00  0.00    -0.296 OA
ATOM     21  O11 H3S d 301      20.797   9.076  32.794  0.00  0.00    -0.398 OA
ATOM     22  N14 H3S d 301      16.996   6.645  36.881  0.00  0.00    -0.210 NA
ATOM     23  C12 H3S d 301      16.402  12.634  34.906  0.00  0.00     0.135 C 
ATOM     24  O18 H3S d 301      15.058  12.915  34.424  0.00  0.00    -0.244 OA
ATOM     25  O33 H3S d 301      14.108  13.410  36.844  0.00  0.00    -0.572 OA
ATOM     26  O28 H3S d 301      17.789   7.579  39.080  0.00  0.00    -0.296 OA
ATOM     27  O25 H3S d 301      18.509  13.864  35.265  0.00  0.00    -0.389 OA
ATOM     28  C4  H3S d 301      17.546   8.807  35.838  0.00  0.00     0.083 C 
ATOM     29  C19 H3S d 301      17.542  12.585  32.211  0.00  0.00     0.147 C 
ATOM     30  O5  H3S d 301      18.702   7.304  33.611  0.00  0.00    -0.350 OA
ATOM     31  S20 H3S d 301      17.495   6.349  38.420  0.00  0.00     0.156 S 
ATOM     32  H   H3S d 301      18.105   5.618  34.659  0.00  0.00     0.131 H 
ATOM     33  H   H3S d 301      16.255  10.492  34.530  0.00  0.00     0.134 H 
ATOM     34  H   H3S d 301      19.492   9.484  35.305  0.00  0.00     0.091 H 
ATOM     35  H   H3S d 301      18.905   7.226  36.338  0.00  0.00     0.076 H 
ATOM     36  H   H3S d 301      19.289  10.422  32.434  0.00  0.00     0.078 H 
ATOM     37  H   H3S d 301      19.225   8.932  31.494  0.00  0.00     0.078 H 
ATOM     38  H   H3S d 301      18.264  14.512  32.515  0.00  0.00     0.085 H 
ATOM     39  H   H3S d 301      17.440   8.853  33.128  0.00  0.00     0.090 H 
ATOM     40  H   H3S d 301      16.251   4.845  38.682  0.00  0.00     0.231 HD
ATOM     41  H   H3S d 301      17.384  10.403  37.002  0.00  0.00     0.210 HD
ATOM     42  H   H3S d 301      16.766  14.725  34.525  0.00  0.00     0.093 H 
ATOM     43  H   H3S d 301      16.165   7.629  34.004  0.00  0.00     0.212 HD
ATOM     44  H   H3S d 301      18.660   4.569  37.926  0.00  0.00     0.231 HD
ATOM     45  H   H3S d 301      21.000   9.458  33.662  0.00  0.00     0.209 HD
ATOM     46  H   H3S d 301      16.757   5.745  36.465  0.00  0.00     0.140 HD
ATOM     47  H   H3S d 301      16.418  12.539  35.971  0.00  0.00     0.097 H 
ATOM     48  H   H3S d 301      18.083   7.398  39.986  0.00  0.00     0.231 HD
ATOM     49  H   H3S d 301      19.006  13.038  35.161  0.00  0.00     0.210 HD
ATOM     50  H   H3S d 301      16.545   8.859  35.463  0.00  0.00     0.089 H 
ENDROOT
TORSDOF 15
ENDMDL
MODEL 51
REMARK VINA RESULT:      -5.1      3.880      7.909
REMARK  0 active torsions:
REMARK  status: ('A' for Active; 'I' for Inactive)
REMARK       I    between atoms: C10_1  and  O15_19 
REMARK       I    between atoms: C7_2  and  O3_5 
REMARK       I    between atoms: C1_3  and  O3_5 
REMARK       I    between atoms: C8_4  and  N14_22 
REMARK       I    between atoms: C6_6  and  C2_9 
REMARK       I    between atoms: C6_6  and  O11_21 
REMARK       I    between atoms: O29_11  and  S20_31 
REMARK       I    between atoms: O9_13  and  C4_28 
REMARK       I    between atoms: C27_15  and  C19_29 
REMARK       I    between atoms: C17_16  and  O25_27 
REMARK       I    between atoms: S26_18  and  O18_24 
REMARK       I    between atoms: O30_20  and  S20_31 
REMARK       I    between atoms: N14_22  and  S20_31 
REMARK       I    between atoms: C12_23  and  O18_24 
REMARK       I    between atoms: O28_26  and  S20_31 
ROOT
ATOM      1  C10 H3S d 301      20.557  11.476  32.985  0.00  0.00     0.147 C 
ATOM      2  C7  H3S d 301      16.252  10.961  34.926  0.00  0.00     0.167 C 
ATOM      3  C1  H3S d 301      17.824  10.300  33.127  0.00  0.00     0.095 C 
ATOM      4  C8  H3S d 301      19.454  11.855  31.964  0.00  0.00     0.081 C 
ATOM      5  O3  H3S d 301      16.550  10.078  33.761  0.00  0.00    -0.348 OA
ATOM      6  C6  H3S d 301      18.893   8.462  34.610  0.00  0.00     0.043 C 
ATOM      7  C24 H3S d 301      14.515   9.033  36.171  0.00  0.00    -0.034 C 
ATOM      8  O34 H3S d 301      17.491   8.470  38.044  0.00  0.00    -0.642 OA
ATOM      9  C2  H3S d 301      19.029   9.923  34.104  0.00  0.00     0.089 C 
ATOM     10  O31 H3S d 301      14.212  14.458  36.984  0.00  0.00    -0.572 OA
ATOM     11  O29 H3S d 301      19.749  14.928  29.676  0.00  0.00    -0.296 OA
ATOM     12  O35 H3S d 301      15.801   7.000  37.848  0.00  0.00    -0.642 OA
ATOM     13  O9  H3S d 301      17.016  12.093  31.732  0.00  0.00    -0.391 OA
ATOM     14  O13 H3S d 301      16.575  10.252  36.191  0.00  0.00    -0.311 OA
ATOM     15  C27 H3S d 301      16.424   8.209  37.536  0.00  0.00     0.233 C 
ATOM     16  C17 H3S d 301      13.858  10.050  35.208  0.00  0.00     0.086 C 
ATOM     17  O32 H3S d 301      15.638  14.203  35.167  0.00  0.00    -0.572 OA
ATOM     18  S26 H3S d 301      14.418  13.735  35.772  0.00  0.00     0.252 S 
ATOM     19  O15 H3S d 301      20.552  12.420  34.090  0.00  0.00    -0.369 OA
ATOM     20  O30 H3S d 301      20.472  12.596  29.002  0.00  0.00    -0.296 OA
ATOM     21  O11 H3S d 301      19.155   7.512  33.562  0.00  0.00    -0.398 OA
ATOM     22  N14 H3S d 301      19.679  13.215  31.497  0.00  0.00    -0.210 NA
ATOM     23  C12 H3S d 301      14.727  11.360  34.985  0.00  0.00     0.135 C 
ATOM     24  O18 H3S d 301      14.520  12.226  36.135  0.00  0.00    -0.244 OA
ATOM     25  O33 H3S d 301      13.133  14.012  34.759  0.00  0.00    -0.572 OA
ATOM     26  O28 H3S d 301      18.107  13.298  29.533  0.00  0.00    -0.296 OA
ATOM     27  O25 H3S d 301      13.631   9.413  33.943  0.00  0.00    -0.389 OA
ATOM     28  C4  H3S d 301      18.071  11.741  32.640  0.00  0.00     0.083 C 
ATOM     29  C19 H3S d 301      15.809   9.178  36.608  0.00  0.00     0.147 C 
ATOM     30  O5  H3S d 301      20.348  10.114  33.491  0.00  0.00    -0.350 OA
ATOM     31  S20 H3S d 301      19.460  13.554  29.903  0.00  0.00     0.156 S 
ATOM     32  H   H3S d 301      21.506  11.514  32.492  0.00  0.00     0.131 H 
ATOM     33  H   H3S d 301      16.846  11.844  34.809  0.00  0.00     0.134 H 
ATOM     34  H   H3S d 301      17.789   9.665  32.267  0.00  0.00     0.091 H 
ATOM     35  H   H3S d 301      19.487  11.190  31.127  0.00  0.00     0.076 H 
ATOM     36  H   H3S d 301      17.898   8.312  34.973  0.00  0.00     0.078 H 
ATOM     37  H   H3S d 301      19.611   8.309  35.389  0.00  0.00     0.078 H 
ATOM     38  H   H3S d 301      13.965   8.222  36.495  0.00  0.00     0.085 H 
ATOM     39  H   H3S d 301      18.964  10.598  34.932  0.00  0.00     0.090 H 
ATOM     40  H   H3S d 301      20.668  15.110  29.926  0.00  0.00     0.231 HD
ATOM     41  H   H3S d 301      16.162  12.012  32.183  0.00  0.00     0.210 HD
ATOM     42  H   H3S d 301      12.939  10.362  35.659  0.00  0.00     0.093 H 
ATOM     43  H   H3S d 301      19.693  12.388  34.539  0.00  0.00     0.212 HD
ATOM     44  H   H3S d 301      21.392  12.770  29.253  0.00  0.00     0.231 HD
ATOM     45  H   H3S d 301      18.513   7.636  32.845  0.00  0.00     0.209 HD
ATOM     46  H   H3S d 301      20.644  13.454  31.724  0.00  0.00     0.140 HD
ATOM     47  H   H3S d 301      14.445  11.850  34.077  0.00  0.00     0.097 H 
ATOM     48  H   H3S d 301      17.984  13.499  28.592  0.00  0.00     0.231 HD
ATOM     49  H   H3S d 301      14.481   9.142  33.561  0.00  0.00     0.210 HD
ATOM     50  H   H3S d 301      18.069  12.418  33.469  0.00  0.00     0.089 H 
ENDROOT
TORSDOF 15
ENDMDL
MODEL 52
REMARK VINA RESULT:      -5.1      3.026      6.974
REMARK  0 active torsions:
REMARK  status: ('A' for Active; 'I' for Inactive)
REMARK       I    between atoms: C10_1  and  O15_19 
REMARK       I    between atoms: C7_2  and  O3_5 
REMARK       I    between atoms: C1_3  and  O3_5 
REMARK       I    between atoms: C8_4  and  N14_22 
REMARK       I    between atoms: C6_6  and  C2_9 
REMARK       I    between atoms: C6_6  and  O11_21 
REMARK       I    between atoms: O29_11  and  S20_31 
REMARK       I    between atoms: O9_13  and  C4_28 
REMARK       I    between atoms: C27_15  and  C19_29 
REMARK       I    between atoms: C17_16  and  O25_27 
REMARK       I    between atoms: S26_18  and  O18_24 
REMARK       I    between atoms: O30_20  and  S20_31 
REMARK       I    between atoms: N14_22  and  S20_31 
REMARK       I    between atoms: C12_23  and  O18_24 
REMARK       I    between atoms: O28_26  and  S20_31 
ROOT
ATOM      1  C10 H3S d 301      17.272   6.651  32.438  0.00  0.00     0.147 C 
ATOM      2  C7  H3S d 301      17.811   6.386  37.150  0.00  0.00     0.167 C 
ATOM      3  C1  H3S d 301      18.132   7.716  35.084  0.00  0.00     0.095 C 
ATOM      4  C8  H3S d 301      18.770   6.772  32.820  0.00  0.00     0.081 C 
ATOM      5  O3  H3S d 301      18.219   7.676  36.521  0.00  0.00    -0.348 OA
ATOM      6  C6  H3S d 301      15.746   8.717  35.248  0.00  0.00     0.043 C 
ATOM      7  C24 H3S d 301      17.023   7.635  39.621  0.00  0.00    -0.034 C 
ATOM      8  O34 H3S d 301      13.834   7.273  38.079  0.00  0.00    -0.642 OA
ATOM      9  C2  H3S d 301      16.616   7.611  34.593  0.00  0.00     0.089 C 
ATOM     10  O31 H3S d 301      18.603   2.393  39.164  0.00  0.00    -0.572 OA
ATOM     11  O29 H3S d 301      21.536   4.967  30.855  0.00  0.00    -0.296 OA
ATOM     12  O35 H3S d 301      14.303   8.724  39.731  0.00  0.00    -0.642 OA
ATOM     13  O9  H3S d 301      20.298   6.713  34.747  0.00  0.00    -0.391 OA
ATOM     14  O13 H3S d 301      16.404   6.477  37.619  0.00  0.00    -0.311 OA
ATOM     15  C27 H3S d 301      14.678   7.752  38.804  0.00  0.00     0.233 C 
ATOM     16  C17 H3S d 301      18.487   7.144  39.519  0.00  0.00     0.086 C 
ATOM     17  O32 H3S d 301      19.166   3.368  37.132  0.00  0.00    -0.572 OA
ATOM     18  S26 H3S d 301      19.155   3.560  38.559  0.00  0.00     0.252 S 
ATOM     19  O15 H3S d 301      16.782   5.326  32.776  0.00  0.00    -0.369 OA
ATOM     20  O30 H3S d 301      20.800   7.347  30.389  0.00  0.00    -0.296 OA
ATOM     21  O11 H3S d 301      16.057  10.018  34.718  0.00  0.00    -0.398 OA
ATOM     22  N14 H3S d 301      19.526   5.737  32.129  0.00  0.00    -0.210 NA
ATOM     23  C12 H3S d 301      18.703   6.035  38.403  0.00  0.00     0.135 C 
ATOM     24  O18 H3S d 301      18.254   4.766  38.951  0.00  0.00    -0.244 OA
ATOM     25  O33 H3S d 301      20.702   3.774  39.120  0.00  0.00    -0.572 OA
ATOM     26  O28 H3S d 301      21.879   6.540  32.523  0.00  0.00    -0.296 OA
ATOM     27  O25 H3S d 301      19.336   8.267  39.241  0.00  0.00    -0.389 OA
ATOM     28  C4  H3S d 301      18.922   6.618  34.348  0.00  0.00     0.083 C 
ATOM     29  C19 H3S d 301      16.074   7.287  38.692  0.00  0.00     0.147 C 
ATOM     30  O5  H3S d 301      16.478   7.670  33.135  0.00  0.00    -0.350 OA
ATOM     31  S20 H3S d 301      20.993   6.118  31.489  0.00  0.00     0.156 S 
ATOM     32  H   H3S d 301      17.175   6.806  31.384  0.00  0.00     0.131 H 
ATOM     33  H   H3S d 301      17.927   5.625  36.407  0.00  0.00     0.134 H 
ATOM     34  H   H3S d 301      18.571   8.659  34.834  0.00  0.00     0.091 H 
ATOM     35  H   H3S d 301      19.145   7.730  32.529  0.00  0.00     0.076 H 
ATOM     36  H   H3S d 301      15.924   8.720  36.303  0.00  0.00     0.078 H 
ATOM     37  H   H3S d 301      14.719   8.505  35.035  0.00  0.00     0.078 H 
ATOM     38  H   H3S d 301      16.752   8.242  40.410  0.00  0.00     0.085 H 
ATOM     39  H   H3S d 301      16.268   6.649  34.906  0.00  0.00     0.090 H 
ATOM     40  H   H3S d 301      20.938   4.675  30.149  0.00  0.00     0.231 HD
ATOM     41  H   H3S d 301      20.363   6.612  35.709  0.00  0.00     0.210 HD
ATOM     42  H   H3S d 301      18.733   6.690  40.456  0.00  0.00     0.093 H 
ATOM     43  H   H3S d 301      16.869   5.182  33.731  0.00  0.00     0.212 HD
ATOM     44  H   H3S d 301      20.198   7.060  29.686  0.00  0.00     0.231 HD
ATOM     45  H   H3S d 301      16.987  10.228  34.902  0.00  0.00     0.209 HD
ATOM     46  H   H3S d 301      18.943   5.402  31.362  0.00  0.00     0.140 HD
ATOM     47  H   H3S d 301      19.732   5.988  38.112  0.00  0.00     0.097 H 
ATOM     48  H   H3S d 301      22.741   6.763  32.140  0.00  0.00     0.231 HD
ATOM     49  H   H3S d 301      19.088   8.655  38.387  0.00  0.00     0.210 HD
ATOM     50  H   H3S d 301      18.541   5.651  34.607  0.00  0.00     0.089 H 
ENDROOT
TORSDOF 15
ENDMDL
MODEL 53
REMARK VINA RESULT:      -5.0      2.882      5.184
REMARK  0 active torsions:
REMARK  status: ('A' for Active; 'I' for Inactive)
REMARK       I    between atoms: C10_1  and  O15_19 
REMARK       I    between atoms: C7_2  and  O3_5 
REMARK       I    between atoms: C1_3  and  O3_5 
REMARK       I    between atoms: C8_4  and  N14_22 
REMARK       I    between atoms: C6_6  and  C2_9 
REMARK       I    between atoms: C6_6  and  O11_21 
REMARK       I    between atoms: O29_11  and  S20_31 
REMARK       I    between atoms: O9_13  and  C4_28 
REMARK       I    between atoms: C27_15  and  C19_29 
REMARK       I    between atoms: C17_16  and  O25_27 
REMARK       I    between atoms: S26_18  and  O18_24 
REMARK       I    between atoms: O30_20  and  S20_31 
REMARK       I    between atoms: N14_22  and  S20_31 
REMARK       I    between atoms: C12_23  and  O18_24 
REMARK       I    between atoms: O28_26  and  S20_31 
ROOT
ATOM      1  C10 H3S d 301      17.172   8.286  32.459  0.00  0.00     0.147 C 
ATOM      2  C7  H3S d 301      18.689   6.705  36.674  0.00  0.00     0.167 C 
ATOM      3  C1  H3S d 301      16.831   6.835  35.038  0.00  0.00     0.095 C 
ATOM      4  C8  H3S d 301      16.286   8.849  33.599  0.00  0.00     0.081 C 
ATOM      5  O3  H3S d 301      17.314   6.282  36.277  0.00  0.00    -0.348 OA
ATOM      6  C6  H3S d 301      17.687   4.746  33.762  0.00  0.00     0.043 C 
ATOM      7  C24 H3S d 301      19.189   4.301  38.176  0.00  0.00    -0.034 C 
ATOM      8  O34 H3S d 301      20.891   3.496  35.153  0.00  0.00    -0.642 OA
ATOM      9  C2  H3S d 301      17.680   6.298  33.796  0.00  0.00     0.089 C 
ATOM     10  O31 H3S d 301      21.680   9.109  39.103  0.00  0.00    -0.572 OA
ATOM     11  O29 H3S d 301      15.112  12.508  33.664  0.00  0.00    -0.296 OA
ATOM     12  O35 H3S d 301      20.174   1.991  36.662  0.00  0.00    -0.642 OA
ATOM     13  O9  H3S d 301      16.054   8.880  36.048  0.00  0.00    -0.391 OA
ATOM     14  O13 H3S d 301      19.672   5.667  36.270  0.00  0.00    -0.311 OA
ATOM     15  C27 H3S d 301      20.287   3.296  36.183  0.00  0.00     0.233 C 
ATOM     16  C17 H3S d 301      18.578   5.495  38.947  0.00  0.00     0.086 C 
ATOM     17  O32 H3S d 301      19.930   9.609  37.659  0.00  0.00    -0.572 OA
ATOM     18  S26 H3S d 301      20.310   8.841  38.815  0.00  0.00     0.252 S 
ATOM     19  O15 H3S d 301      18.519   8.818  32.572  0.00  0.00    -0.369 OA
ATOM     20  O30 H3S d 301      13.754  10.610  32.676  0.00  0.00    -0.296 OA
ATOM     21  O11 H3S d 301      16.401   4.219  33.393  0.00  0.00    -0.398 OA
ATOM     22  N14 H3S d 301      16.287  10.304  33.534  0.00  0.00    -0.210 NA
ATOM     23  C12 H3S d 301      18.817   6.894  38.235  0.00  0.00     0.135 C 
ATOM     24  O18 H3S d 301      20.175   7.316  38.540  0.00  0.00    -0.244 OA
ATOM     25  O33 H3S d 301      19.392   9.286  40.124  0.00  0.00    -0.572 OA
ATOM     26  O28 H3S d 301      14.396  10.840  35.106  0.00  0.00    -0.296 OA
ATOM     27  O25 H3S d 301      17.168   5.277  39.099  0.00  0.00    -0.389 OA
ATOM     28  C4  H3S d 301      16.839   8.373  34.960  0.00  0.00     0.083 C 
ATOM     29  C19 H3S d 301      19.696   4.439  36.906  0.00  0.00     0.147 C 
ATOM     30  O5  H3S d 301      17.208   6.819  32.509  0.00  0.00    -0.350 OA
ATOM     31  S20 H3S d 301      14.877  11.111  33.792  0.00  0.00     0.156 S 
ATOM     32  H   H3S d 301      16.752   8.584  31.522  0.00  0.00     0.131 H 
ATOM     33  H   H3S d 301      18.882   7.638  36.186  0.00  0.00     0.134 H 
ATOM     34  H   H3S d 301      15.813   6.509  35.000  0.00  0.00     0.091 H 
ATOM     35  H   H3S d 301      15.282   8.496  33.491  0.00  0.00     0.076 H 
ATOM     36  H   H3S d 301      17.947   4.379  34.733  0.00  0.00     0.078 H 
ATOM     37  H   H3S d 301      18.402   4.431  33.031  0.00  0.00     0.078 H 
ATOM     38  H   H3S d 301      19.217   3.374  38.627  0.00  0.00     0.085 H 
ATOM     39  H   H3S d 301      18.677   6.659  33.938  0.00  0.00     0.090 H 
ATOM     40  H   H3S d 301      15.440  12.700  32.771  0.00  0.00     0.231 HD
ATOM     41  H   H3S d 301      16.424   8.566  36.888  0.00  0.00     0.210 HD
ATOM     42  H   H3S d 301      19.071   5.543  39.895  0.00  0.00     0.093 H 
ATOM     43  H   H3S d 301      18.903   8.549  33.421  0.00  0.00     0.212 HD
ATOM     44  H   H3S d 301      14.082  10.795  31.783  0.00  0.00     0.231 HD
ATOM     45  H   H3S d 301      15.738   4.495  34.046  0.00  0.00     0.209 HD
ATOM     46  H   H3S d 301      16.613  10.561  32.603  0.00  0.00     0.140 HD
ATOM     47  H   H3S d 301      18.103   7.616  38.572  0.00  0.00     0.097 H 
ATOM     48  H   H3S d 301      13.565  11.319  35.252  0.00  0.00     0.231 HD
ATOM     49  H   H3S d 301      16.751   5.239  38.224  0.00  0.00     0.210 HD
ATOM     50  H   H3S d 301      17.841   8.743  35.039  0.00  0.00     0.089 H 
ENDROOT
TORSDOF 15
ENDMDL
MODEL 54
REMARK VINA RESULT:      -5.0      1.790      2.249
REMARK  0 active torsions:
REMARK  status: ('A' for Active; 'I' for Inactive)
REMARK       I    between atoms: C10_1  and  O15_19 
REMARK       I    between atoms: C7_2  and  O3_5 
REMARK       I    between atoms: C1_3  and  O3_5 
REMARK       I    between atoms: C8_4  and  N14_22 
REMARK       I    between atoms: C6_6  and  C2_9 
REMARK       I    between atoms: C6_6  and  O11_21 
REMARK       I    between atoms: O29_11  and  S20_31 
REMARK       I    between atoms: O9_13  and  C4_28 
REMARK       I    between atoms: C27_15  and  C19_29 
REMARK       I    between atoms: C17_16  and  O25_27 
REMARK       I    between atoms: S26_18  and  O18_24 
REMARK       I    between atoms: O30_20  and  S20_31 
REMARK       I    between atoms: N14_22  and  S20_31 
REMARK       I    between atoms: C12_23  and  O18_24 
REMARK       I    between atoms: O28_26  and  S20_31 
ROOT
ATOM      1  C10 H3S d 301      16.257  11.254  36.523  0.00  0.00     0.147 C 
ATOM      2  C7  H3S d 301      18.347   8.230  33.515  0.00  0.00     0.167 C 
ATOM      3  C1  H3S d 301      16.287   9.453  34.151  0.00  0.00     0.095 C 
ATOM      4  C8  H3S d 301      15.520   9.890  36.527  0.00  0.00     0.081 C 
ATOM      5  O3  H3S d 301      16.940   8.603  33.188  0.00  0.00    -0.348 OA
ATOM      6  C6  H3S d 301      17.002  11.547  32.801  0.00  0.00     0.043 C 
ATOM      7  C24 H3S d 301      19.084   7.886  30.753  0.00  0.00    -0.034 C 
ATOM      8  O34 H3S d 301      20.383  11.152  31.328  0.00  0.00    -0.642 OA
ATOM      9  C2  H3S d 301      16.972  10.894  34.209  0.00  0.00     0.089 C 
ATOM     10  O31 H3S d 301      21.592   5.403  34.963  0.00  0.00    -0.572 OA
ATOM     11  O29 H3S d 301      14.301   8.231  39.772  0.00  0.00    -0.296 OA
ATOM     12  O35 H3S d 301      19.900  10.301  29.303  0.00  0.00    -0.642 OA
ATOM     13  O9  H3S d 301      15.615   7.625  35.572  0.00  0.00    -0.391 OA
ATOM     14  O13 H3S d 301      19.286   9.127  32.791  0.00  0.00    -0.311 OA
ATOM     15  C27 H3S d 301      19.925  10.226  30.696  0.00  0.00     0.233 C 
ATOM     16  C17 H3S d 301      18.560   6.637  31.500  0.00  0.00     0.086 C 
ATOM     17  O32 H3S d 301      19.658   6.314  35.872  0.00  0.00    -0.572 OA
ATOM     18  S26 H3S d 301      20.200   5.614  34.737  0.00  0.00     0.252 S 
ATOM     19  O15 H3S d 301      17.597  11.093  37.059  0.00  0.00    -0.369 OA
ATOM     20  O30 H3S d 301      12.858   9.733  38.330  0.00  0.00    -0.296 OA
ATOM     21  O11 H3S d 301      15.688  11.947  32.375  0.00  0.00    -0.398 OA
ATOM     22  N14 H3S d 301      15.487   9.367  37.885  0.00  0.00    -0.210 NA
ATOM     23  C12 H3S d 301      18.678   6.751  33.080  0.00  0.00     0.135 C 
ATOM     24  O18 H3S d 301      20.057   6.460  33.440  0.00  0.00    -0.244 OA
ATOM     25  O33 H3S d 301      19.457   4.140  34.564  0.00  0.00    -0.572 OA
ATOM     26  O28 H3S d 301      13.813   7.506  37.625  0.00  0.00    -0.296 OA
ATOM     27  O25 H3S d 301      17.187   6.424  31.143  0.00  0.00    -0.389 OA
ATOM     28  C4  H3S d 301      16.258   8.908  35.592  0.00  0.00     0.083 C 
ATOM     29  C19 H3S d 301      19.416   9.043  31.416  0.00  0.00     0.147 C 
ATOM     30  O5  H3S d 301      16.324  11.801  35.162  0.00  0.00    -0.350 OA
ATOM     31  S20 H3S d 301      14.110   8.647  38.426  0.00  0.00     0.156 S 
ATOM     32  H   H3S d 301      15.710  11.939  37.138  0.00  0.00     0.131 H 
ATOM     33  H   H3S d 301      18.457   8.322  34.575  0.00  0.00     0.134 H 
ATOM     34  H   H3S d 301      15.278   9.500  33.798  0.00  0.00     0.091 H 
ATOM     35  H   H3S d 301      14.517  10.015  36.178  0.00  0.00     0.076 H 
ATOM     36  H   H3S d 301      17.395  10.842  32.099  0.00  0.00     0.078 H 
ATOM     37  H   H3S d 301      17.619  12.420  32.851  0.00  0.00     0.078 H 
ATOM     38  H   H3S d 301      19.188   7.850  29.727  0.00  0.00     0.085 H 
ATOM     39  H   H3S d 301      17.972  10.734  34.552  0.00  0.00     0.090 H 
ATOM     40  H   H3S d 301      14.504   9.003  40.323  0.00  0.00     0.231 HD
ATOM     41  H   H3S d 301      16.098   7.031  34.978  0.00  0.00     0.210 HD
ATOM     42  H   H3S d 301      19.174   5.813  31.204  0.00  0.00     0.093 H 
ATOM     43  H   H3S d 301      18.095  10.473  36.504  0.00  0.00     0.212 HD
ATOM     44  H   H3S d 301      13.060  10.509  38.875  0.00  0.00     0.231 HD
ATOM     45  H   H3S d 301      15.113  11.166  32.324  0.00  0.00     0.209 HD
ATOM     46  H   H3S d 301      15.682  10.148  38.512  0.00  0.00     0.140 HD
ATOM     47  H   H3S d 301      18.003   6.073  33.559  0.00  0.00     0.097 H 
ATOM     48  H   H3S d 301      13.000   7.086  37.948  0.00  0.00     0.231 HD
ATOM     49  H   H3S d 301      16.658   7.187  31.425  0.00  0.00     0.210 HD
ATOM     50  H   H3S d 301      17.254   8.803  35.968  0.00  0.00     0.089 H 
ENDROOT
TORSDOF 15
ENDMDL
MODEL 55
REMARK VINA RESULT:      -5.0      4.308      7.714
REMARK  0 active torsions:
REMARK  status: ('A' for Active; 'I' for Inactive)
REMARK       I    between atoms: C10_1  and  O15_19 
REMARK       I    between atoms: C7_2  and  O3_5 
REMARK       I    between atoms: C1_3  and  O3_5 
REMARK       I    between atoms: C8_4  and  N14_22 
REMARK       I    between atoms: C6_6  and  C2_9 
REMARK       I    between atoms: C6_6  and  O11_21 
REMARK       I    between atoms: O29_11  and  S20_31 
REMARK       I    between atoms: O9_13  and  C4_28 
REMARK       I    between atoms: C27_15  and  C19_29 
REMARK       I    between atoms: C17_16  and  O25_27 
REMARK       I    between atoms: S26_18  and  O18_24 
REMARK       I    between atoms: O30_20  and  S20_31 
REMARK       I    between atoms: N14_22  and  S20_31 
REMARK       I    between atoms: C12_23  and  O18_24 
REMARK       I    between atoms: O28_26  and  S20_31 
ROOT
ATOM      1  C10 H3S d 301      20.566  13.537  33.114  0.00  0.00     0.147 C 
ATOM      2  C7  H3S d 301      17.336  10.263  34.304  0.00  0.00     0.167 C 
ATOM      3  C1  H3S d 301      19.351  10.821  32.972  0.00  0.00     0.095 C 
ATOM      4  C8  H3S d 301      19.797  13.054  31.858  0.00  0.00     0.081 C 
ATOM      5  O3  H3S d 301      18.425   9.801  33.394  0.00  0.00    -0.348 OA
ATOM      6  C6  H3S d 301      20.931  10.214  34.935  0.00  0.00     0.043 C 
ATOM      7  C24 H3S d 301      17.038   7.684  35.547  0.00  0.00    -0.034 C 
ATOM      8  O34 H3S d 301      19.043   9.312  37.998  0.00  0.00    -0.642 OA
ATOM      9  C2  H3S d 301      20.205  11.373  34.203  0.00  0.00     0.089 C 
ATOM     10  O31 H3S d 301      13.070  11.475  35.282  0.00  0.00    -0.572 OA
ATOM     11  O29 H3S d 301      18.589  15.483  29.137  0.00  0.00    -0.296 OA
ATOM     12  O35 H3S d 301      18.850   7.083  37.773  0.00  0.00    -0.642 OA
ATOM     13  O9  H3S d 301      17.964  11.573  31.149  0.00  0.00    -0.391 OA
ATOM     14  O13 H3S d 301      17.704   9.978  35.715  0.00  0.00    -0.311 OA
ATOM     15  C27 H3S d 301      18.584   8.390  37.362  0.00  0.00     0.233 C 
ATOM     16  C17 H3S d 301      16.153   7.974  34.311  0.00  0.00     0.086 C 
ATOM     17  O32 H3S d 301      14.720  12.232  33.831  0.00  0.00    -0.572 OA
ATOM     18  S26 H3S d 301      14.001  11.069  34.281  0.00  0.00     0.252 S 
ATOM     19  O15 H3S d 301      19.663  14.241  34.007  0.00  0.00    -0.369 OA
ATOM     20  O30 H3S d 301      20.800  14.252  29.044  0.00  0.00    -0.296 OA
ATOM     21  O11 H3S d 301      22.008   9.681  34.144  0.00  0.00    -0.398 OA
ATOM     22  N14 H3S d 301      19.188  14.200  31.198  0.00  0.00    -0.210 NA
ATOM     23  C12 H3S d 301      15.975   9.523  34.012  0.00  0.00     0.135 C 
ATOM     24  O18 H3S d 301      14.966  10.033  34.927  0.00  0.00    -0.244 OA
ATOM     25  O33 H3S d 301      13.166  10.388  33.018  0.00  0.00    -0.572 OA
ATOM     26  O28 H3S d 301      18.520  13.170  29.000  0.00  0.00    -0.296 OA
ATOM     27  O25 H3S d 301      16.734   7.336  33.165  0.00  0.00    -0.389 OA
ATOM     28  C4  H3S d 301      18.712  12.041  32.282  0.00  0.00     0.083 C 
ATOM     29  C19 H3S d 301      17.753   8.674  36.177  0.00  0.00     0.147 C 
ATOM     30  O5  H3S d 301      21.177  12.400  33.814  0.00  0.00    -0.350 OA
ATOM     31  S20 H3S d 301      19.222  14.281  29.555  0.00  0.00     0.156 S 
ATOM     32  H   H3S d 301      21.344  14.202  32.802  0.00  0.00     0.131 H 
ATOM     33  H   H3S d 301      17.213  11.313  34.137  0.00  0.00     0.134 H 
ATOM     34  H   H3S d 301      19.962  10.319  32.251  0.00  0.00     0.091 H 
ATOM     35  H   H3S d 301      20.470  12.577  31.177  0.00  0.00     0.076 H 
ATOM     36  H   H3S d 301      20.226   9.433  35.134  0.00  0.00     0.078 H 
ATOM     37  H   H3S d 301      21.342  10.598  35.846  0.00  0.00     0.078 H 
ATOM     38  H   H3S d 301      17.092   6.719  35.909  0.00  0.00     0.085 H 
ATOM     39  H   H3S d 301      19.504  11.835  34.867  0.00  0.00     0.090 H 
ATOM     40  H   H3S d 301      19.060  16.244  29.511  0.00  0.00     0.231 HD
ATOM     41  H   H3S d 301      17.292  10.940  31.444  0.00  0.00     0.210 HD
ATOM     42  H   H3S d 301      15.179   7.586  34.523  0.00  0.00     0.093 H 
ATOM     43  H   H3S d 301      18.956  13.640  34.291  0.00  0.00     0.212 HD
ATOM     44  H   H3S d 301      21.277  15.007  29.421  0.00  0.00     0.231 HD
ATOM     45  H   H3S d 301      21.654   9.327  33.313  0.00  0.00     0.209 HD
ATOM     46  H   H3S d 301      19.661  15.033  31.548  0.00  0.00     0.140 HD
ATOM     47  H   H3S d 301      15.688   9.681  32.994  0.00  0.00     0.097 H 
ATOM     48  H   H3S d 301      18.544  13.224  28.032  0.00  0.00     0.231 HD
ATOM     49  H   H3S d 301      17.615   7.708  32.998  0.00  0.00     0.210 HD
ATOM     50  H   H3S d 301      18.055  12.547  32.958  0.00  0.00     0.089 H 
ENDROOT
TORSDOF 15
ENDMDL
MODEL 56
REMARK VINA RESULT:      -4.9      3.998      7.287
REMARK  0 active torsions:
REMARK  status: ('A' for Active; 'I' for Inactive)
REMARK       I    between atoms: C10_1  and  O15_19 
REMARK       I    between atoms: C7_2  and  O3_5 
REMARK       I    between atoms: C1_3  and  O3_5 
REMARK       I    between atoms: C8_4  and  N14_22 
REMARK       I    between atoms: C6_6  and  C2_9 
REMARK       I    between atoms: C6_6  and  O11_21 
REMARK       I    between atoms: O29_11  and  S20_31 
REMARK       I    between atoms: O9_13  and  C4_28 
REMARK       I    between atoms: C27_15  and  C19_29 
REMARK       I    between atoms: C17_16  and  O25_27 
REMARK       I    between atoms: S26_18  and  O18_24 
REMARK       I    between atoms: O30_20  and  S20_31 
REMARK       I    between atoms: N14_22  and  S20_31 
REMARK       I    between atoms: C12_23  and  O18_24 
REMARK       I    between atoms: O28_26  and  S20_31 
ROOT
ATOM      1  C10 H3S d 301      19.071   4.721  31.347  0.00  0.00     0.147 C 
ATOM      2  C7  H3S d 301      18.937   5.885  35.950  0.00  0.00     0.167 C 
ATOM      3  C1  H3S d 301      17.688   5.103  33.957  0.00  0.00     0.095 C 
ATOM      4  C8  H3S d 301      18.082   5.891  31.580  0.00  0.00     0.081 C 
ATOM      5  O3  H3S d 301      17.661   5.372  35.372  0.00  0.00    -0.348 OA
ATOM      6  C6  H3S d 301      18.299   2.628  34.432  0.00  0.00     0.043 C 
ATOM      7  C24 H3S d 301      18.385   4.822  38.568  0.00  0.00    -0.034 C 
ATOM      8  O34 H3S d 301      20.580   2.302  37.338  0.00  0.00    -0.642 OA
ATOM      9  C2  H3S d 301      18.676   3.894  33.618  0.00  0.00     0.089 C 
ATOM     10  O31 H3S d 301      21.667   9.120  37.596  0.00  0.00    -0.572 OA
ATOM     11  O29 H3S d 301      17.902   8.922  29.225  0.00  0.00    -0.296 OA
ATOM     12  O35 H3S d 301      19.124   2.022  39.029  0.00  0.00    -0.642 OA
ATOM     13  O9  H3S d 301      17.211   7.382  33.333  0.00  0.00    -0.391 OA
ATOM     14  O13 H3S d 301      19.697   4.766  36.565  0.00  0.00    -0.311 OA
ATOM     15  C27 H3S d 301      19.690   2.781  38.004  0.00  0.00     0.233 C 
ATOM     16  C17 H3S d 301      17.912   6.268  38.283  0.00  0.00     0.086 C 
ATOM     17  O32 H3S d 301      20.560   8.745  35.588  0.00  0.00    -0.572 OA
ATOM     18  S26 H3S d 301      20.404   8.797  37.018  0.00  0.00     0.252 S 
ATOM     19  O15 H3S d 301      20.427   5.153  31.641  0.00  0.00    -0.369 OA
ATOM     20  O30 H3S d 301      16.428   6.874  29.000  0.00  0.00    -0.296 OA
ATOM     21  O11 H3S d 301      17.071   2.044  33.962  0.00  0.00    -0.398 OA
ATOM     22  N14 H3S d 301      18.469   7.021  30.747  0.00  0.00    -0.210 NA
ATOM     23  C12 H3S d 301      18.681   6.958  37.078  0.00  0.00     0.135 C 
ATOM     24  O18 H3S d 301      19.967   7.415  37.581  0.00  0.00    -0.244 OA
ATOM     25  O33 H3S d 301      19.310   9.975  37.431  0.00  0.00    -0.572 OA
ATOM     26  O28 H3S d 301      16.424   8.473  30.953  0.00  0.00    -0.296 OA
ATOM     27  O25 H3S d 301      16.506   6.248  37.997  0.00  0.00    -0.389 OA
ATOM     28  C4  H3S d 301      18.107   6.291  33.072  0.00  0.00     0.083 C 
ATOM     29  C19 H3S d 301      19.235   4.156  37.719  0.00  0.00     0.147 C 
ATOM     30  O5  H3S d 301      18.719   3.571  32.188  0.00  0.00    -0.350 OA
ATOM     31  S20 H3S d 301      17.295   7.887  29.988  0.00  0.00     0.156 S 
ATOM     32  H   H3S d 301      19.010   4.423  30.321  0.00  0.00     0.131 H 
ATOM     33  H   H3S d 301      19.485   6.335  35.149  0.00  0.00     0.134 H 
ATOM     34  H   H3S d 301      16.670   4.866  33.729  0.00  0.00     0.091 H 
ATOM     35  H   H3S d 301      17.090   5.590  31.319  0.00  0.00     0.076 H 
ATOM     36  H   H3S d 301      18.184   2.898  35.461  0.00  0.00     0.078 H 
ATOM     37  H   H3S d 301      19.081   1.908  34.310  0.00  0.00     0.078 H 
ATOM     38  H   H3S d 301      18.053   4.345  39.420  0.00  0.00     0.085 H 
ATOM     39  H   H3S d 301      19.655   4.223  33.898  0.00  0.00     0.090 H 
ATOM     40  H   H3S d 301      18.497   8.531  28.566  0.00  0.00     0.231 HD
ATOM     41  H   H3S d 301      17.248   7.611  34.275  0.00  0.00     0.210 HD
ATOM     42  H   H3S d 301      18.125   6.846  39.157  0.00  0.00     0.093 H 
ATOM     43  H   H3S d 301      20.485   5.424  32.571  0.00  0.00     0.212 HD
ATOM     44  H   H3S d 301      17.021   6.476  28.344  0.00  0.00     0.231 HD
ATOM     45  H   H3S d 301      16.349   2.684  34.065  0.00  0.00     0.209 HD
ATOM     46  H   H3S d 301      19.090   6.659  30.023  0.00  0.00     0.140 HD
ATOM     47  H   H3S d 301      18.110   7.771  36.681  0.00  0.00     0.097 H 
ATOM     48  H   H3S d 301      15.734   8.982  30.500  0.00  0.00     0.231 HD
ATOM     49  H   H3S d 301      16.346   5.717  37.201  0.00  0.00     0.210 HD
ATOM     50  H   H3S d 301      19.109   6.589  33.301  0.00  0.00     0.089 H 
ENDROOT
TORSDOF 15
ENDMDL
MODEL 57
REMARK VINA RESULT:      -4.9      3.633      6.631
REMARK  0 active torsions:
REMARK  status: ('A' for Active; 'I' for Inactive)
REMARK       I    between atoms: C10_1  and  O15_19 
REMARK       I    between atoms: C7_2  and  O3_5 
REMARK       I    between atoms: C1_3  and  O3_5 
REMARK       I    between atoms: C8_4  and  N14_22 
REMARK       I    between atoms: C6_6  and  C2_9 
REMARK       I    between atoms: C6_6  and  O11_21 
REMARK       I    between atoms: O29_11  and  S20_31 
REMARK       I    between atoms: O9_13  and  C4_28 
REMARK       I    between atoms: C27_15  and  C19_29 
REMARK       I    between atoms: C17_16  and  O25_27 
REMARK       I    between atoms: S26_18  and  O18_24 
REMARK       I    between atoms: O30_20  and  S20_31 
REMARK       I    between atoms: N14_22  and  S20_31 
REMARK       I    between atoms: C12_23  and  O18_24 
REMARK       I    between atoms: O28_26  and  S20_31 
ROOT
ATOM      1  C10 H3S d 301      16.542   7.911  33.949  0.00  0.00     0.147 C 
ATOM      2  C7  H3S d 301      17.293  12.601  33.871  0.00  0.00     0.167 C 
ATOM      3  C1  H3S d 301      18.196  10.350  34.382  0.00  0.00     0.095 C 
ATOM      4  C8  H3S d 301      16.869   8.430  35.372  0.00  0.00     0.081 C 
ATOM      5  O3  H3S d 301      18.458  11.762  34.279  0.00  0.00    -0.348 OA
ATOM      6  C6  H3S d 301      18.996  10.015  31.939  0.00  0.00     0.043 C 
ATOM      7  C24 H3S d 301      18.946  14.638  32.686  0.00  0.00    -0.034 C 
ATOM      8  O34 H3S d 301      17.998  12.845  29.759  0.00  0.00    -0.642 OA
ATOM      9  C2  H3S d 301      17.861   9.719  32.954  0.00  0.00     0.089 C 
ATOM     10  O31 H3S d 301      13.881  15.500  34.630  0.00  0.00    -0.572 OA
ATOM     11  O29 H3S d 301      14.951   7.235  38.480  0.00  0.00    -0.296 OA
ATOM     12  O35 H3S d 301      19.792  14.192  29.914  0.00  0.00    -0.642 OA
ATOM     13  O9  H3S d 301      17.339  10.492  36.631  0.00  0.00    -0.391 OA
ATOM     14  O13 H3S d 301      17.354  12.871  32.411  0.00  0.00    -0.311 OA
ATOM     15  C27 H3S d 301      18.687  13.545  30.468  0.00  0.00     0.233 C 
ATOM     16  C17 H3S d 301      18.575  14.815  34.178  0.00  0.00     0.086 C 
ATOM     17  O32 H3S d 301      14.466  13.387  35.398  0.00  0.00    -0.572 OA
ATOM     18  S26 H3S d 301      14.943  14.728  35.185  0.00  0.00     0.252 S 
ATOM     19  O15 H3S d 301      15.276   8.464  33.500  0.00  0.00    -0.369 OA
ATOM     20  O30 H3S d 301      17.111   6.188  37.669  0.00  0.00    -0.296 OA
ATOM     21  O11 H3S d 301      20.184   9.259  32.238  0.00  0.00    -0.398 OA
ATOM     22  N14 H3S d 301      15.785   8.070  36.275  0.00  0.00    -0.210 NA
ATOM     23  C12 H3S d 301      17.285  13.995  34.608  0.00  0.00     0.135 C 
ATOM     24  O18 H3S d 301      16.120  14.745  34.168  0.00  0.00    -0.244 OA
ATOM     25  O33 H3S d 301      15.402  15.408  36.628  0.00  0.00    -0.572 OA
ATOM     26  O28 H3S d 301      16.855   8.557  38.501  0.00  0.00    -0.296 OA
ATOM     27  O25 H3S d 301      19.687  14.405  34.986  0.00  0.00    -0.389 OA
ATOM     28  C4  H3S d 301      17.044   9.964  35.329  0.00  0.00     0.083 C 
ATOM     29  C19 H3S d 301      18.334  13.699  31.892  0.00  0.00     0.147 C 
ATOM     30  O5  H3S d 301      17.608   8.275  33.008  0.00  0.00    -0.350 OA
ATOM     31  S20 H3S d 301      16.155   7.540  37.788  0.00  0.00     0.156 S 
ATOM     32  H   H3S d 301      16.469   6.844  33.984  0.00  0.00     0.131 H 
ATOM     33  H   H3S d 301      16.409  12.056  34.131  0.00  0.00     0.134 H 
ATOM     34  H   H3S d 301      19.103   9.958  34.792  0.00  0.00     0.091 H 
ATOM     35  H   H3S d 301      17.777   7.988  35.724  0.00  0.00     0.076 H 
ATOM     36  H   H3S d 301      19.231  11.058  31.974  0.00  0.00     0.078 H 
ATOM     37  H   H3S d 301      18.656   9.733  30.964  0.00  0.00     0.078 H 
ATOM     38  H   H3S d 301      19.676  15.241  32.276  0.00  0.00     0.085 H 
ATOM     39  H   H3S d 301      16.955  10.186  32.627  0.00  0.00     0.090 H 
ATOM     40  H   H3S d 301      14.469   6.543  38.000  0.00  0.00     0.231 HD
ATOM     41  H   H3S d 301      17.443  11.454  36.573  0.00  0.00     0.210 HD
ATOM     42  H   H3S d 301      18.346  15.850  34.324  0.00  0.00     0.093 H 
ATOM     43  H   H3S d 301      15.339   9.431  33.467  0.00  0.00     0.212 HD
ATOM     44  H   H3S d 301      16.635   5.497  37.184  0.00  0.00     0.231 HD
ATOM     45  H   H3S d 301      20.508   9.502  33.120  0.00  0.00     0.209 HD
ATOM     46  H   H3S d 301      15.250   7.330  35.821  0.00  0.00     0.140 HD
ATOM     47  H   H3S d 301      17.270  13.844  35.668  0.00  0.00     0.097 H 
ATOM     48  H   H3S d 301      17.070   8.239  39.392  0.00  0.00     0.231 HD
ATOM     49  H   H3S d 301      19.870  13.464  34.831  0.00  0.00     0.210 HD
ATOM     50  H   H3S d 301      16.121  10.376  34.977  0.00  0.00     0.089 H 
ENDROOT
TORSDOF 15
ENDMDL
MODEL 58
REMARK VINA RESULT:      -4.9      3.061      7.849
REMARK  0 active torsions:
REMARK  status: ('A' for Active; 'I' for Inactive)
REMARK       I    between atoms: C10_1  and  O15_19 
REMARK       I    between atoms: C7_2  and  O3_5 
REMARK       I    between atoms: C1_3  and  O3_5 
REMARK       I    between atoms: C8_4  and  N14_22 
REMARK       I    between atoms: C6_6  and  C2_9 
REMARK       I    between atoms: C6_6  and  O11_21 
REMARK       I    between atoms: O29_11  and  S20_31 
REMARK       I    between atoms: O9_13  and  C4_28 
REMARK       I    between atoms: C27_15  and  C19_29 
REMARK       I    between atoms: C17_16  and  O25_27 
REMARK       I    between atoms: S26_18  and  O18_24 
REMARK       I    between atoms: O30_20  and  S20_31 
REMARK       I    between atoms: N14_22  and  S20_31 
REMARK       I    between atoms: C12_23  and  O18_24 
REMARK       I    between atoms: O28_26  and  S20_31 
ROOT
ATOM      1  C10 H3S d 301      16.628   7.642  37.383  0.00  0.00     0.147 C 
ATOM      2  C7  H3S d 301      14.939  12.050  36.861  0.00  0.00     0.167 C 
ATOM      3  C1  H3S d 301      14.548   9.618  36.584  0.00  0.00     0.095 C 
ATOM      4  C8  H3S d 301      16.303   7.924  35.894  0.00  0.00     0.081 C 
ATOM      5  O3  H3S d 301      13.999  10.948  36.503  0.00  0.00    -0.348 OA
ATOM      6  C6  H3S d 301      13.664   9.390  39.010  0.00  0.00     0.043 C 
ATOM      7  C24 H3S d 301      12.828  13.812  37.714  0.00  0.00    -0.034 C 
ATOM      8  O34 H3S d 301      13.913  12.586  40.877  0.00  0.00    -0.642 OA
ATOM      9  C2  H3S d 301      14.904   9.230  38.091  0.00  0.00     0.089 C 
ATOM     10  O31 H3S d 301      17.737  15.500  35.915  0.00  0.00    -0.572 OA
ATOM     11  O29 H3S d 301      18.635   6.827  33.044  0.00  0.00    -0.296 OA
ATOM     12  O35 H3S d 301      11.899  13.503  40.478  0.00  0.00    -0.642 OA
ATOM     13  O9  H3S d 301      15.514   9.692  34.376  0.00  0.00    -0.391 OA
ATOM     14  O13 H3S d 301      14.722  12.458  38.274  0.00  0.00    -0.311 OA
ATOM     15  C27 H3S d 301      13.148  13.045  40.058  0.00  0.00     0.233 C 
ATOM     16  C17 H3S d 301      13.259  13.901  36.231  0.00  0.00     0.086 C 
ATOM     17  O32 H3S d 301      17.648  13.240  35.381  0.00  0.00    -0.572 OA
ATOM     18  S26 H3S d 301      16.895  14.467  35.409  0.00  0.00     0.252 S 
ATOM     19  O15 H3S d 301      17.721   8.492  37.820  0.00  0.00    -0.369 OA
ATOM     20  O30 H3S d 301      16.681   5.445  33.875  0.00  0.00    -0.296 OA
ATOM     21  O11 H3S d 301      12.678   8.375  38.750  0.00  0.00    -0.398 OA
ATOM     22  N14 H3S d 301      17.497   7.703  35.091  0.00  0.00    -0.210 NA
ATOM     23  C12 H3S d 301      14.715  13.327  35.962  0.00  0.00     0.135 C 
ATOM     24  O18 H3S d 301      15.671  14.347  36.362  0.00  0.00    -0.244 OA
ATOM     25  O33 H3S d 301      16.410  14.876  33.875  0.00  0.00    -0.572 OA
ATOM     26  O28 H3S d 301      16.509   7.711  32.776  0.00  0.00    -0.296 OA
ATOM     27  O25 H3S d 301      12.312  13.182  35.428  0.00  0.00    -0.389 OA
ATOM     28  C4  H3S d 301      15.818   9.382  35.744  0.00  0.00     0.083 C 
ATOM     29  C19 H3S d 301      13.561  13.114  38.643  0.00  0.00     0.147 C 
ATOM     30  O5  H3S d 301      15.447   7.874  38.223  0.00  0.00    -0.350 OA
ATOM     31  S20 H3S d 301      17.349   6.946  33.638  0.00  0.00     0.156 S 
ATOM     32  H   H3S d 301      16.918   6.616  37.480  0.00  0.00     0.131 H 
ATOM     33  H   H3S d 301      15.930  11.678  36.709  0.00  0.00     0.134 H 
ATOM     34  H   H3S d 301      13.770   9.003  36.183  0.00  0.00     0.091 H 
ATOM     35  H   H3S d 301      15.530   7.265  35.557  0.00  0.00     0.076 H 
ATOM     36  H   H3S d 301      13.226  10.351  38.838  0.00  0.00     0.078 H 
ATOM     37  H   H3S d 301      13.985   9.293  40.026  0.00  0.00     0.078 H 
ATOM     38  H   H3S d 301      11.965  14.291  38.015  0.00  0.00     0.085 H 
ATOM     39  H   H3S d 301      15.671   9.910  38.401  0.00  0.00     0.090 H 
ATOM     40  H   H3S d 301      19.213   6.307  33.625  0.00  0.00     0.231 HD
ATOM     41  H   H3S d 301      15.213  10.612  34.313  0.00  0.00     0.210 HD
ATOM     42  H   H3S d 301      13.284  14.938  35.972  0.00  0.00     0.093 H 
ATOM     43  H   H3S d 301      17.462   9.423  37.732  0.00  0.00     0.212 HD
ATOM     44  H   H3S d 301      17.252   4.926  34.461  0.00  0.00     0.231 HD
ATOM     45  H   H3S d 301      12.374   8.448  37.831  0.00  0.00     0.209 HD
ATOM     46  H   H3S d 301      18.138   7.144  35.655  0.00  0.00     0.140 HD
ATOM     47  H   H3S d 301      14.835  13.068  34.930  0.00  0.00     0.097 H 
ATOM     48  H   H3S d 301      16.425   7.260  31.922  0.00  0.00     0.231 HD
ATOM     49  H   H3S d 301      12.314  12.246  35.686  0.00  0.00     0.210 HD
ATOM     50  H   H3S d 301      16.611  10.014  36.086  0.00  0.00     0.089 H 
ENDROOT
TORSDOF 15
ENDMDL
MODEL 59
REMARK VINA RESULT:      -4.9      3.359      5.456
REMARK  0 active torsions:
REMARK  status: ('A' for Active; 'I' for Inactive)
REMARK       I    between atoms: C10_1  and  O15_19 
REMARK       I    between atoms: C7_2  and  O3_5 
REMARK       I    between atoms: C1_3  and  O3_5 
REMARK       I    between atoms: C8_4  and  N14_22 
REMARK       I    between atoms: C6_6  and  C2_9 
REMARK       I    between atoms: C6_6  and  O11_21 
REMARK       I    between atoms: O29_11  and  S20_31 
REMARK       I    between atoms: O9_13  and  C4_28 
REMARK       I    between atoms: C27_15  and  C19_29 
REMARK       I    between atoms: C17_16  and  O25_27 
REMARK       I    between atoms: S26_18  and  O18_24 
REMARK       I    between atoms: O30_20  and  S20_31 
REMARK       I    between atoms: N14_22  and  S20_31 
REMARK       I    between atoms: C12_23  and  O18_24 
REMARK       I    between atoms: O28_26  and  S20_31 
ROOT
ATOM      1  C10 H3S d 301      13.438   9.979  34.299  0.00  0.00     0.147 C 
ATOM      2  C7  H3S d 301      17.908  11.374  33.499  0.00  0.00     0.167 C 
ATOM      3  C1  H3S d 301      16.356  10.036  34.894  0.00  0.00     0.095 C 
ATOM      4  C8  H3S d 301      14.002  10.724  35.535  0.00  0.00     0.081 C 
ATOM      5  O3  H3S d 301      17.722  10.388  34.603  0.00  0.00    -0.348 OA
ATOM      6  C6  H3S d 301      16.533   7.999  33.300  0.00  0.00     0.043 C 
ATOM      7  C24 H3S d 301      20.529  10.394  32.824  0.00  0.00    -0.034 C 
ATOM      8  O34 H3S d 301      18.603   8.756  30.317  0.00  0.00    -0.642 OA
ATOM      9  C2  H3S d 301      15.691   9.248  33.675  0.00  0.00     0.089 C 
ATOM     10  O31 H3S d 301      18.774  15.499  31.808  0.00  0.00    -0.572 OA
ATOM     11  O29 H3S d 301      11.925  13.286  37.507  0.00  0.00    -0.296 OA
ATOM     12  O35 H3S d 301      20.642   8.100  31.001  0.00  0.00    -0.642 OA
ATOM     13  O9  H3S d 301      15.990  11.929  36.341  0.00  0.00    -0.391 OA
ATOM     14  O13 H3S d 301      18.224  10.660  32.234  0.00  0.00    -0.311 OA
ATOM     15  C27 H3S d 301      19.523   8.929  31.084  0.00  0.00     0.233 C 
ATOM     16  C17 H3S d 301      20.454  11.540  33.860  0.00  0.00     0.086 C 
ATOM     17  O32 H3S d 301      17.180  14.590  33.234  0.00  0.00    -0.572 OA
ATOM     18  S26 H3S d 301      18.591  14.695  32.971  0.00  0.00     0.252 S 
ATOM     19  O15 H3S d 301      13.327  10.896  33.178  0.00  0.00    -0.369 OA
ATOM     20  O30 H3S d 301      12.079  10.832  38.114  0.00  0.00    -0.296 OA
ATOM     21  O11 H3S d 301      16.434   6.974  34.304  0.00  0.00    -0.398 OA
ATOM     22  N14 H3S d 301      13.134  11.848  35.856  0.00  0.00    -0.210 NA
ATOM     23  C12 H3S d 301      19.099  12.366  33.791  0.00  0.00     0.135 C 
ATOM     24  O18 H3S d 301      19.209  13.298  32.680  0.00  0.00    -0.244 OA
ATOM     25  O33 H3S d 301      19.359  15.423  34.250  0.00  0.00    -0.572 OA
ATOM     26  O28 H3S d 301      14.000  12.468  38.137  0.00  0.00    -0.296 OA
ATOM     27  O25 H3S d 301      20.604  10.989  35.176  0.00  0.00    -0.389 OA
ATOM     28  C4  H3S d 301      15.430  11.222  35.225  0.00  0.00     0.083 C 
ATOM     29  C19 H3S d 301      19.439  10.017  32.078  0.00  0.00     0.147 C 
ATOM     30  O5  H3S d 301      14.304   8.850  33.937  0.00  0.00    -0.350 OA
ATOM     31  S20 H3S d 301      12.796  12.165  37.435  0.00  0.00     0.156 S 
ATOM     32  H   H3S d 301      12.468   9.600  34.543  0.00  0.00     0.131 H 
ATOM     33  H   H3S d 301      16.996  11.928  33.418  0.00  0.00     0.134 H 
ATOM     34  H   H3S d 301      16.437   9.429  35.770  0.00  0.00     0.091 H 
ATOM     35  H   H3S d 301      14.041  10.063  36.375  0.00  0.00     0.076 H 
ATOM     36  H   H3S d 301      17.558   8.289  33.199  0.00  0.00     0.078 H 
ATOM     37  H   H3S d 301      16.155   7.605  32.380  0.00  0.00     0.078 H 
ATOM     38  H   H3S d 301      21.423   9.897  32.690  0.00  0.00     0.085 H 
ATOM     39  H   H3S d 301      15.675   9.931  32.852  0.00  0.00     0.090 H 
ATOM     40  H   H3S d 301      11.103  13.088  37.031  0.00  0.00     0.231 HD
ATOM     41  H   H3S d 301      16.885  12.229  36.118  0.00  0.00     0.210 HD
ATOM     42  H   H3S d 301      21.244  12.224  33.630  0.00  0.00     0.093 H 
ATOM     43  H   H3S d 301      14.205  11.242  32.954  0.00  0.00     0.212 HD
ATOM     44  H   H3S d 301      11.260  10.626  37.636  0.00  0.00     0.231 HD
ATOM     45  H   H3S d 301      16.773   7.313  35.148  0.00  0.00     0.209 HD
ATOM     46  H   H3S d 301      12.243  11.681  35.388  0.00  0.00     0.140 HD
ATOM     47  H   H3S d 301      18.924  12.881  34.712  0.00  0.00     0.097 H 
ATOM     48  H   H3S d 301      13.795  12.654  39.066  0.00  0.00     0.231 HD
ATOM     49  H   H3S d 301      19.875  10.374  35.354  0.00  0.00     0.210 HD
ATOM     50  H   H3S d 301      15.358  11.881  34.384  0.00  0.00     0.089 H 
ENDROOT
TORSDOF 15
ENDMDL
MODEL 60
REMARK VINA RESULT:      -4.9      2.980      6.542
REMARK  0 active torsions:
REMARK  status: ('A' for Active; 'I' for Inactive)
REMARK       I    between atoms: C10_1  and  O15_19 
REMARK       I    between atoms: C7_2  and  O3_5 
REMARK       I    between atoms: C1_3  and  O3_5 
REMARK       I    between atoms: C8_4  and  N14_22 
REMARK       I    between atoms: C6_6  and  C2_9 
REMARK       I    between atoms: C6_6  and  O11_21 
REMARK       I    between atoms: O29_11  and  S20_31 
REMARK       I    between atoms: O9_13  and  C4_28 
REMARK       I    between atoms: C27_15  and  C19_29 
REMARK       I    between atoms: C17_16  and  O25_27 
REMARK       I    between atoms: S26_18  and  O18_24 
REMARK       I    between atoms: O30_20  and  S20_31 
REMARK       I    between atoms: N14_22  and  S20_31 
REMARK       I    between atoms: C12_23  and  O18_24 
REMARK       I    between atoms: O28_26  and  S20_31 
ROOT
ATOM      1  C10 H3S d 301      17.741   7.233  31.596  0.00  0.00     0.147 C 
ATOM      2  C7  H3S d 301      17.315   9.194  35.901  0.00  0.00     0.167 C 
ATOM      3  C1  H3S d 301      18.709   7.864  34.341  0.00  0.00     0.095 C 
ATOM      4  C8  H3S d 301      17.832   6.146  32.697  0.00  0.00     0.081 C 
ATOM      5  O3  H3S d 301      18.620   8.529  35.616  0.00  0.00    -0.348 OA
ATOM      6  C6  H3S d 301      19.731  10.002  33.288  0.00  0.00     0.043 C 
ATOM      7  C24 H3S d 301      18.491  11.149  37.656  0.00  0.00    -0.034 C 
ATOM      8  O34 H3S d 301      18.216  13.087  34.681  0.00  0.00    -0.642 OA
ATOM      9  C2  H3S d 301      18.637   8.911  33.137  0.00  0.00     0.089 C 
ATOM     10  O31 H3S d 301      13.249   9.522  37.898  0.00  0.00    -0.572 OA
ATOM     11  O29 H3S d 301      16.062   2.750  32.375  0.00  0.00    -0.296 OA
ATOM     12  O35 H3S d 301      19.607  13.546  36.387  0.00  0.00    -0.642 OA
ATOM     13  O9  H3S d 301      17.693   5.827  35.132  0.00  0.00    -0.391 OA
ATOM     14  O13 H3S d 301      17.407  10.642  35.582  0.00  0.00    -0.311 OA
ATOM     15  C27 H3S d 301      18.661  12.741  35.752  0.00  0.00     0.233 C 
ATOM     16  C17 H3S d 301      17.987   9.838  38.304  0.00  0.00     0.086 C 
ATOM     17  O32 H3S d 301      14.284   8.000  36.480  0.00  0.00    -0.572 OA
ATOM     18  S26 H3S d 301      14.429   8.745  37.703  0.00  0.00     0.252 S 
ATOM     19  O15 H3S d 301      16.411   7.817  31.587  0.00  0.00    -0.369 OA
ATOM     20  O30 H3S d 301      18.464   3.158  31.678  0.00  0.00    -0.296 OA
ATOM     21  O11 H3S d 301      21.045   9.471  33.038  0.00  0.00    -0.398 OA
ATOM     22  N14 H3S d 301      16.812   5.134  32.459  0.00  0.00    -0.210 NA
ATOM     23  C12 H3S d 301      16.913   9.070  37.421  0.00  0.00     0.135 C 
ATOM     24  O18 H3S d 301      15.631   9.728  37.616  0.00  0.00    -0.244 OA
ATOM     25  O33 H3S d 301      14.607   7.709  38.987  0.00  0.00    -0.572 OA
ATOM     26  O28 H3S d 301      17.575   3.326  34.035  0.00  0.00    -0.296 OA
ATOM     27  O25 H3S d 301      19.108   8.976  38.541  0.00  0.00    -0.389 OA
ATOM     28  C4  H3S d 301      17.626   6.801  34.080  0.00  0.00     0.083 C 
ATOM     29  C19 H3S d 301      18.185  11.483  36.359  0.00  0.00     0.147 C 
ATOM     30  O5  H3S d 301      18.746   8.279  31.818  0.00  0.00    -0.350 OA
ATOM     31  S20 H3S d 301      17.198   3.550  32.678  0.00  0.00     0.156 S 
ATOM     32  H   H3S d 301      17.932   6.774  30.648  0.00  0.00     0.131 H 
ATOM     33  H   H3S d 301      16.577   8.706  35.298  0.00  0.00     0.134 H 
ATOM     34  H   H3S d 301      19.655   7.367  34.385  0.00  0.00     0.091 H 
ATOM     35  H   H3S d 301      18.796   5.681  32.673  0.00  0.00     0.076 H 
ATOM     36  H   H3S d 301      19.697  10.392  34.284  0.00  0.00     0.078 H 
ATOM     37  H   H3S d 301      19.538  10.771  32.570  0.00  0.00     0.078 H 
ATOM     38  H   H3S d 301      19.075  11.792  38.213  0.00  0.00     0.085 H 
ATOM     39  H   H3S d 301      17.669   9.363  33.193  0.00  0.00     0.090 H 
ATOM     40  H   H3S d 301      15.800   2.898  31.453  0.00  0.00     0.231 HD
ATOM     41  H   H3S d 301      17.560   6.266  35.987  0.00  0.00     0.210 HD
ATOM     42  H   H3S d 301      17.500  10.106  39.218  0.00  0.00     0.093 H 
ATOM     43  H   H3S d 301      16.235   8.233  32.445  0.00  0.00     0.212 HD
ATOM     44  H   H3S d 301      18.207   3.311  30.756  0.00  0.00     0.231 HD
ATOM     45  H   H3S d 301      21.238   8.771  33.681  0.00  0.00     0.209 HD
ATOM     46  H   H3S d 301      16.509   5.237  31.491  0.00  0.00     0.140 HD
ATOM     47  H   H3S d 301      16.864   8.038  37.700  0.00  0.00     0.097 H 
ATOM     48  H   H3S d 301      17.801   2.391  34.157  0.00  0.00     0.231 HD
ATOM     49  H   H3S d 301      19.528   8.751  37.695  0.00  0.00     0.210 HD
ATOM     50  H   H3S d 301      16.656   7.253  34.072  0.00  0.00     0.089 H 
ENDROOT
TORSDOF 15
ENDMDL
MODEL 61
REMARK VINA RESULT:      -4.8      2.568      3.824
REMARK  0 active torsions:
REMARK  status: ('A' for Active; 'I' for Inactive)
REMARK       I    between atoms: C10_1  and  O15_19 
REMARK       I    between atoms: C7_2  and  O3_5 
REMARK       I    between atoms: C1_3  and  O3_5 
REMARK       I    between atoms: C8_4  and  N14_22 
REMARK       I    between atoms: C6_6  and  C2_9 
REMARK       I    between atoms: C6_6  and  O11_21 
REMARK       I    between atoms: O29_11  and  S20_31 
REMARK       I    between atoms: O9_13  and  C4_28 
REMARK       I    between atoms: C27_15  and  C19_29 
REMARK       I    between atoms: C17_16  and  O25_27 
REMARK       I    between atoms: S26_18  and  O18_24 
REMARK       I    between atoms: O30_20  and  S20_31 
REMARK       I    between atoms: N14_22  and  S20_31 
REMARK       I    between atoms: C12_23  and  O18_24 
REMARK       I    between atoms: O28_26  and  S20_31 
ROOT
ATOM      1  C10 H3S d 301      18.157   9.937  36.982  0.00  0.00     0.147 C 
ATOM      2  C7  H3S d 301      18.387   8.127  32.597  0.00  0.00     0.167 C 
ATOM      3  C1  H3S d 301      17.237   9.666  34.163  0.00  0.00     0.095 C 
ATOM      4  C8  H3S d 301      16.833   9.216  36.624  0.00  0.00     0.081 C 
ATOM      5  O3  H3S d 301      17.356   9.184  32.811  0.00  0.00    -0.348 OA
ATOM      6  C6  H3S d 301      18.892  11.590  33.633  0.00  0.00     0.043 C 
ATOM      7  C24 H3S d 301      18.807   8.844  29.841  0.00  0.00    -0.034 C 
ATOM      8  O34 H3S d 301      21.587  10.499  31.330  0.00  0.00    -0.642 OA
ATOM      9  C2  H3S d 301      18.557  10.440  34.619  0.00  0.00     0.089 C 
ATOM     10  O31 H3S d 301      19.781   3.857  31.929  0.00  0.00    -0.572 OA
ATOM     11  O29 H3S d 301      14.993   6.951  39.125  0.00  0.00    -0.296 OA
ATOM     12  O35 H3S d 301      20.709  11.016  29.326  0.00  0.00    -0.642 OA
ATOM     13  O9  H3S d 301      15.755   7.894  34.852  0.00  0.00    -0.391 OA
ATOM     14  O13 H3S d 301      19.639   8.742  32.083  0.00  0.00    -0.311 OA
ATOM     15  C27 H3S d 301      20.714  10.290  30.517  0.00  0.00     0.233 C 
ATOM     16  C17 H3S d 301      17.735   7.766  30.130  0.00  0.00     0.086 C 
ATOM     17  O32 H3S d 301      18.586   4.974  33.579  0.00  0.00    -0.572 OA
ATOM     18  S26 H3S d 301      18.683   4.737  32.163  0.00  0.00     0.252 S 
ATOM     19  O15 H3S d 301      19.241   8.972  37.055  0.00  0.00    -0.369 OA
ATOM     20  O30 H3S d 301      14.484   9.414  38.817  0.00  0.00    -0.296 OA
ATOM     21  O11 H3S d 301      17.953  12.674  33.746  0.00  0.00    -0.398 OA
ATOM     22  N14 H3S d 301      16.560   8.190  37.620  0.00  0.00    -0.210 NA
ATOM     23  C12 H3S d 301      17.919   7.056  31.538  0.00  0.00     0.135 C 
ATOM     24  O18 H3S d 301      18.967   6.058  31.394  0.00  0.00    -0.244 OA
ATOM     25  O33 H3S d 301      17.295   4.018  31.606  0.00  0.00    -0.572 OA
ATOM     26  O28 H3S d 301      14.171   7.625  37.064  0.00  0.00    -0.296 OA
ATOM     27  O25 H3S d 301      16.437   8.375  30.073  0.00  0.00    -0.389 OA
ATOM     28  C4  H3S d 301      16.959   8.583  35.222  0.00  0.00     0.083 C 
ATOM     29  C19 H3S d 301      19.688   9.270  30.805  0.00  0.00     0.147 C 
ATOM     30  O5  H3S d 301      18.471  10.967  35.985  0.00  0.00    -0.350 OA
ATOM     31  S20 H3S d 301      15.017   7.989  38.153  0.00  0.00     0.156 S 
ATOM     32  H   H3S d 301      18.041  10.410  37.935  0.00  0.00     0.131 H 
ATOM     33  H   H3S d 301      18.545   7.649  33.541  0.00  0.00     0.134 H 
ATOM     34  H   H3S d 301      16.385  10.312  34.123  0.00  0.00     0.091 H 
ATOM     35  H   H3S d 301      16.025   9.917  36.617  0.00  0.00     0.076 H 
ATOM     36  H   H3S d 301      18.864  11.210  32.633  0.00  0.00     0.078 H 
ATOM     37  H   H3S d 301      19.865  11.964  33.872  0.00  0.00     0.078 H 
ATOM     38  H   H3S d 301      18.863   9.255  28.896  0.00  0.00     0.085 H 
ATOM     39  H   H3S d 301      19.345   9.716  34.608  0.00  0.00     0.090 H 
ATOM     40  H   H3S d 301      15.566   7.192  39.869  0.00  0.00     0.231 HD
ATOM     41  H   H3S d 301      15.863   7.507  33.969  0.00  0.00     0.210 HD
ATOM     42  H   H3S d 301      17.844   7.007  29.384  0.00  0.00     0.093 H 
ATOM     43  H   H3S d 301      19.349   8.542  36.193  0.00  0.00     0.212 HD
ATOM     44  H   H3S d 301      15.059   9.662  39.557  0.00  0.00     0.231 HD
ATOM     45  H   H3S d 301      17.062  12.354  33.532  0.00  0.00     0.209 HD
ATOM     46  H   H3S d 301      17.133   8.405  38.437  0.00  0.00     0.140 HD
ATOM     47  H   H3S d 301      17.001   6.609  31.858  0.00  0.00     0.097 H 
ATOM     48  H   H3S d 301      13.263   7.509  37.384  0.00  0.00     0.231 HD
ATOM     49  H   H3S d 301      16.370   9.058  30.759  0.00  0.00     0.210 HD
ATOM     50  H   H3S d 301      17.771   7.887  35.263  0.00  0.00     0.089 H 
ENDROOT
TORSDOF 15
ENDMDL
MODEL 62
REMARK VINA RESULT:      -4.8      3.653      6.905
REMARK  0 active torsions:
REMARK  status: ('A' for Active; 'I' for Inactive)
REMARK       I    between atoms: C10_1  and  O15_19 
REMARK       I    between atoms: C7_2  and  O3_5 
REMARK       I    between atoms: C1_3  and  O3_5 
REMARK       I    between atoms: C8_4  and  N14_22 
REMARK       I    between atoms: C6_6  and  C2_9 
REMARK       I    between atoms: C6_6  and  O11_21 
REMARK       I    between atoms: O29_11  and  S20_31 
REMARK       I    between atoms: O9_13  and  C4_28 
REMARK       I    between atoms: C27_15  and  C19_29 
REMARK       I    between atoms: C17_16  and  O25_27 
REMARK       I    between atoms: S26_18  and  O18_24 
REMARK       I    between atoms: O30_20  and  S20_31 
REMARK       I    between atoms: N14_22  and  S20_31 
REMARK       I    between atoms: C12_23  and  O18_24 
REMARK       I    between atoms: O28_26  and  S20_31 
ROOT
ATOM      1  C10 H3S d 301      21.593  10.374  31.762  0.00  0.00     0.147 C 
ATOM      2  C7  H3S d 301      18.776   7.057  33.665  0.00  0.00     0.167 C 
ATOM      3  C1  H3S d 301      19.730   8.056  31.606  0.00  0.00     0.095 C 
ATOM      4  C8  H3S d 301      20.143  10.529  31.236  0.00  0.00     0.081 C 
ATOM      5  O3  H3S d 301      18.943   6.996  32.183  0.00  0.00    -0.348 OA
ATOM      6  C6  H3S d 301      21.853   6.576  31.762  0.00  0.00     0.043 C 
ATOM      7  C24 H3S d 301      18.438   4.210  33.922  0.00  0.00    -0.034 C 
ATOM      8  O34 H3S d 301      21.867   4.500  34.835  0.00  0.00    -0.642 OA
ATOM      9  C2  H3S d 301      21.252   7.971  32.082  0.00  0.00     0.089 C 
ATOM     10  O31 H3S d 301      16.466   7.899  37.483  0.00  0.00    -0.572 OA
ATOM     11  O29 H3S d 301      18.450  13.960  30.880  0.00  0.00    -0.296 OA
ATOM     12  O35 H3S d 301      20.888   2.610  34.111  0.00  0.00    -0.642 OA
ATOM     13  O9  H3S d 301      17.879   9.595  31.469  0.00  0.00    -0.391 OA
ATOM     14  O13 H3S d 301      19.765   6.162  34.320  0.00  0.00    -0.311 OA
ATOM     15  C27 H3S d 301      20.866   3.974  34.403  0.00  0.00     0.233 C 
ATOM     16  C17 H3S d 301      17.156   5.053  33.724  0.00  0.00     0.086 C 
ATOM     17  O32 H3S d 301      17.139   9.145  35.641  0.00  0.00    -0.572 OA
ATOM     18  S26 H3S d 301      16.479   7.935  36.058  0.00  0.00     0.252 S 
ATOM     19  O15 H3S d 301      21.634  10.651  33.188  0.00  0.00    -0.369 OA
ATOM     20  O30 H3S d 301      19.691  12.800  29.000  0.00  0.00    -0.296 OA
ATOM     21  O11 H3S d 301      22.056   6.400  30.348  0.00  0.00    -0.398 OA
ATOM     22  N14 H3S d 301      19.669  11.875  31.527  0.00  0.00    -0.210 NA
ATOM     23  C12 H3S d 301      17.340   6.582  34.113  0.00  0.00     0.135 C 
ATOM     24  O18 H3S d 301      17.252   6.680  35.561  0.00  0.00    -0.244 OA
ATOM     25  O33 H3S d 301      14.913   7.919  35.508  0.00  0.00    -0.572 OA
ATOM     26  O28 H3S d 301      17.590  11.950  30.110  0.00  0.00    -0.296 OA
ATOM     27  O25 H3S d 301      16.746   4.961  32.352  0.00  0.00    -0.389 OA
ATOM     28  C4  H3S d 301      19.237   9.482  31.919  0.00  0.00     0.083 C 
ATOM     29  C19 H3S d 301      19.651   4.788  34.204  0.00  0.00     0.147 C 
ATOM     30  O5  H3S d 301      22.095   9.020  31.501  0.00  0.00    -0.350 OA
ATOM     31  S20 H3S d 301      18.789  12.670  30.387  0.00  0.00     0.156 S 
ATOM     32  H   H3S d 301      22.219  11.074  31.248  0.00  0.00     0.131 H 
ATOM     33  H   H3S d 301      18.919   8.077  33.954  0.00  0.00     0.134 H 
ATOM     34  H   H3S d 301      19.628   7.897  30.554  0.00  0.00     0.091 H 
ATOM     35  H   H3S d 301      20.119  10.373  30.179  0.00  0.00     0.076 H 
ATOM     36  H   H3S d 301      21.183   5.820  32.113  0.00  0.00     0.078 H 
ATOM     37  H   H3S d 301      22.803   6.502  32.249  0.00  0.00     0.078 H 
ATOM     38  H   H3S d 301      18.380   3.183  33.839  0.00  0.00     0.085 H 
ATOM     39  H   H3S d 301      21.241   8.123  33.141  0.00  0.00     0.090 H 
ATOM     40  H   H3S d 301      19.261  14.457  31.071  0.00  0.00     0.231 HD
ATOM     41  H   H3S d 301      17.335   8.927  31.913  0.00  0.00     0.210 HD
ATOM     42  H   H3S d 301      16.412   4.655  34.381  0.00  0.00     0.093 H 
ATOM     43  H   H3S d 301      21.068  10.019  33.656  0.00  0.00     0.212 HD
ATOM     44  H   H3S d 301      20.506  13.290  29.189  0.00  0.00     0.231 HD
ATOM     45  H   H3S d 301      21.203   6.465  29.889  0.00  0.00     0.209 HD
ATOM     46  H   H3S d 301      20.490  12.446  31.723  0.00  0.00     0.140 HD
ATOM     47  H   H3S d 301      16.594   7.185  33.639  0.00  0.00     0.097 H 
ATOM     48  H   H3S d 301      17.076  12.423  29.438  0.00  0.00     0.231 HD
ATOM     49  H   H3S d 301      17.440   5.330  31.782  0.00  0.00     0.210 HD
ATOM     50  H   H3S d 301      19.281   9.666  32.972  0.00  0.00     0.089 H 
ENDROOT
TORSDOF 15
ENDMDL
MODEL 63
REMARK VINA RESULT:      -4.8      2.847      6.716
REMARK  0 active torsions:
REMARK  status: ('A' for Active; 'I' for Inactive)
REMARK       I    between atoms: C10_1  and  O15_19 
REMARK       I    between atoms: C7_2  and  O3_5 
REMARK       I    between atoms: C1_3  and  O3_5 
REMARK       I    between atoms: C8_4  and  N14_22 
REMARK       I    between atoms: C6_6  and  C2_9 
REMARK       I    between atoms: C6_6  and  O11_21 
REMARK       I    between atoms: O29_11  and  S20_31 
REMARK       I    between atoms: O9_13  and  C4_28 
REMARK       I    between atoms: C27_15  and  C19_29 
REMARK       I    between atoms: C17_16  and  O25_27 
REMARK       I    between atoms: S26_18  and  O18_24 
REMARK       I    between atoms: O30_20  and  S20_31 
REMARK       I    between atoms: N14_22  and  S20_31 
REMARK       I    between atoms: C12_23  and  O18_24 
REMARK       I    between atoms: O28_26  and  S20_31 
ROOT
ATOM      1  C10 H3S d 301      17.236   9.213  31.781  0.00  0.00     0.147 C 
ATOM      2  C7  H3S d 301      16.718   9.936  36.447  0.00  0.00     0.167 C 
ATOM      3  C1  H3S d 301      18.272   9.568  34.551  0.00  0.00     0.095 C 
ATOM      4  C8  H3S d 301      17.840   8.031  32.582  0.00  0.00     0.081 C 
ATOM      5  O3  H3S d 301      18.124   9.872  35.951  0.00  0.00    -0.348 OA
ATOM      6  C6  H3S d 301      18.345  12.100  34.000  0.00  0.00     0.043 C 
ATOM      7  C24 H3S d 301      17.361  11.774  38.566  0.00  0.00    -0.034 C 
ATOM      8  O34 H3S d 301      16.049  14.051  36.163  0.00  0.00    -0.642 OA
ATOM      9  C2  H3S d 301      17.687  10.742  33.639  0.00  0.00     0.089 C 
ATOM     10  O31 H3S d 301      13.085   8.325  38.645  0.00  0.00    -0.572 OA
ATOM     11  O29 H3S d 301      17.330   4.370  31.530  0.00  0.00    -0.296 OA
ATOM     12  O35 H3S d 301      17.403  14.621  37.865  0.00  0.00    -0.642 OA
ATOM     13  O9  H3S d 301      18.136   7.183  34.872  0.00  0.00    -0.391 OA
ATOM     14  O13 H3S d 301      16.261  11.349  36.483  0.00  0.00    -0.311 OA
ATOM     15  C27 H3S d 301      16.721  13.677  37.098  0.00  0.00     0.233 C 
ATOM     16  C17 H3S d 301      17.430  10.265  38.902  0.00  0.00     0.086 C 
ATOM     17  O32 H3S d 301      14.390   7.621  36.856  0.00  0.00    -0.572 OA
ATOM     18  S26 H3S d 301      14.425   8.095  38.215  0.00  0.00     0.252 S 
ATOM     19  O15 H3S d 301      15.797   9.256  31.973  0.00  0.00    -0.369 OA
ATOM     20  O30 H3S d 301      19.330   5.767  30.845  0.00  0.00    -0.296 OA
ATOM     21  O11 H3S d 301      19.717  12.153  33.571  0.00  0.00    -0.398 OA
ATOM     22  N14 H3S d 301      17.212   6.789  32.153  0.00  0.00    -0.210 NA
ATOM     23  C12 H3S d 301      16.585   9.359  37.909  0.00  0.00     0.135 C 
ATOM     24  O18 H3S d 301      15.191   9.445  38.314  0.00  0.00    -0.244 OA
ATOM     25  O33 H3S d 301      15.115   6.953  39.202  0.00  0.00    -0.572 OA
ATOM     26  O28 H3S d 301      18.751   5.101  33.210  0.00  0.00    -0.296 OA
ATOM     27  O25 H3S d 301      18.802   9.846  38.872  0.00  0.00    -0.389 OA
ATOM     28  C4  H3S d 301      17.601   8.261  34.090  0.00  0.00     0.083 C 
ATOM     29  C19 H3S d 301      16.793  12.235  37.404  0.00  0.00     0.147 C 
ATOM     30  O5  H3S d 301      17.837  10.484  32.204  0.00  0.00    -0.350 OA
ATOM     31  S20 H3S d 301      18.147   5.449  31.966  0.00  0.00     0.156 S 
ATOM     32  H   H3S d 301      17.450   9.065  30.743  0.00  0.00     0.131 H 
ATOM     33  H   H3S d 301      16.124   9.349  35.778  0.00  0.00     0.134 H 
ATOM     34  H   H3S d 301      19.329   9.454  34.431  0.00  0.00     0.091 H 
ATOM     35  H   H3S d 301      18.893   7.968  32.404  0.00  0.00     0.076 H 
ATOM     36  H   H3S d 301      18.308  12.234  35.061  0.00  0.00     0.078 H 
ATOM     37  H   H3S d 301      17.806  12.877  33.498  0.00  0.00     0.078 H 
ATOM     38  H   H3S d 301      17.753  12.455  39.236  0.00  0.00     0.085 H 
ATOM     39  H   H3S d 301      16.638  10.785  33.846  0.00  0.00     0.090 H 
ATOM     40  H   H3S d 301      16.915   4.600  30.684  0.00  0.00     0.231 HD
ATOM     41  H   H3S d 301      17.971   7.354  35.813  0.00  0.00     0.210 HD
ATOM     42  H   H3S d 301      17.003  10.139  39.874  0.00  0.00     0.093 H 
ATOM     43  H   H3S d 301      15.601   9.390  32.914  0.00  0.00     0.212 HD
ATOM     44  H   H3S d 301      18.919   6.003  30.000  0.00  0.00     0.231 HD
ATOM     45  H   H3S d 301      20.223  11.455  34.016  0.00  0.00     0.209 HD
ATOM     46  H   H3S d 301      16.769   6.974  31.253  0.00  0.00     0.140 HD
ATOM     47  H   H3S d 301      16.932   8.348  37.932  0.00  0.00     0.097 H 
ATOM     48  H   H3S d 301      19.301   4.311  33.093  0.00  0.00     0.231 HD
ATOM     49  H   H3S d 301      19.160   9.972  37.979  0.00  0.00     0.210 HD
ATOM     50  H   H3S d 301      16.542   8.316  34.235  0.00  0.00     0.089 H 
ENDROOT
TORSDOF 15
ENDMDL
MODEL 64
REMARK VINA RESULT:      -4.7      2.826      3.746
REMARK  0 active torsions:
REMARK  status: ('A' for Active; 'I' for Inactive)
REMARK       I    between atoms: C10_1  and  O15_19 
REMARK       I    between atoms: C7_2  and  O3_5 
REMARK       I    between atoms: C1_3  and  O3_5 
REMARK       I    between atoms: C8_4  and  N14_22 
REMARK       I    between atoms: C6_6  and  C2_9 
REMARK       I    between atoms: C6_6  and  O11_21 
REMARK       I    between atoms: O29_11  and  S20_31 
REMARK       I    between atoms: O9_13  and  C4_28 
REMARK       I    between atoms: C27_15  and  C19_29 
REMARK       I    between atoms: C17_16  and  O25_27 
REMARK       I    between atoms: S26_18  and  O18_24 
REMARK       I    between atoms: O30_20  and  S20_31 
REMARK       I    between atoms: N14_22  and  S20_31 
REMARK       I    between atoms: C12_23  and  O18_24 
REMARK       I    between atoms: O28_26  and  S20_31 
ROOT
ATOM      1  C10 H3S d 301      13.247  13.392  35.294  0.00  0.00     0.147 C 
ATOM      2  C7  H3S d 301      16.383   9.996  36.391  0.00  0.00     0.167 C 
ATOM      3  C1  H3S d 301      14.002  10.628  36.109  0.00  0.00     0.095 C 
ATOM      4  C8  H3S d 301      13.000  12.871  36.733  0.00  0.00     0.081 C 
ATOM      5  O3  H3S d 301      14.952   9.574  36.359  0.00  0.00    -0.348 OA
ATOM      6  C6  H3S d 301      14.066  10.097  33.572  0.00  0.00     0.043 C 
ATOM      7  C24 H3S d 301      17.348   7.414  35.562  0.00  0.00    -0.034 C 
ATOM      8  O34 H3S d 301      17.468   9.136  32.448  0.00  0.00    -0.642 OA
ATOM      9  C2  H3S d 301      14.172  11.222  34.636  0.00  0.00     0.089 C 
ATOM     10  O31 H3S d 301      20.289  11.039  38.461  0.00  0.00    -0.572 OA
ATOM     11  O29 H3S d 301      12.211  15.234  39.659  0.00  0.00    -0.296 OA
ATOM     12  O35 H3S d 301      17.407   6.900  32.676  0.00  0.00    -0.642 OA
ATOM     13  O9  H3S d 301      13.888  11.313  38.418  0.00  0.00    -0.391 OA
ATOM     14  O13 H3S d 301      17.015   9.734  35.072  0.00  0.00    -0.311 OA
ATOM     15  C27 H3S d 301      17.376   8.192  33.200  0.00  0.00     0.233 C 
ATOM     16  C17 H3S d 301      17.222   7.660  37.085  0.00  0.00     0.086 C 
ATOM     17  O32 H3S d 301      18.113  11.854  38.512  0.00  0.00    -0.572 OA
ATOM     18  S26 H3S d 301      18.920  10.665  38.602  0.00  0.00     0.252 S 
ATOM     19  O15 H3S d 301      14.533  14.063  35.226  0.00  0.00    -0.369 OA
ATOM     20  O30 H3S d 301      10.439  14.093  38.253  0.00  0.00    -0.296 OA
ATOM     21  O11 H3S d 301      12.720   9.604  33.456  0.00  0.00    -0.398 OA
ATOM     22  N14 H3S d 301      13.063  13.988  37.665  0.00  0.00    -0.210 NA
ATOM     23  C12 H3S d 301      17.206   9.199  37.475  0.00  0.00     0.135 C 
ATOM     24  O18 H3S d 301      18.581   9.673  37.453  0.00  0.00    -0.244 OA
ATOM     25  O33 H3S d 301      18.713   9.944  40.083  0.00  0.00    -0.572 OA
ATOM     26  O28 H3S d 301      12.111  12.919  39.736  0.00  0.00    -0.296 OA
ATOM     27  O25 H3S d 301      16.018   7.040  37.557  0.00  0.00    -0.389 OA
ATOM     28  C4  H3S d 301      14.072  11.817  37.086  0.00  0.00     0.083 C 
ATOM     29  C19 H3S d 301      17.243   8.435  34.650  0.00  0.00     0.147 C 
ATOM     30  O5  H3S d 301      13.209  12.285  34.331  0.00  0.00    -0.350 OA
ATOM     31  S20 H3S d 301      11.971  14.061  38.893  0.00  0.00     0.156 S 
ATOM     32  H   H3S d 301      12.472  14.086  35.046  0.00  0.00     0.131 H 
ATOM     33  H   H3S d 301      16.396  11.039  36.630  0.00  0.00     0.134 H 
ATOM     34  H   H3S d 301      13.056  10.148  36.243  0.00  0.00     0.091 H 
ATOM     35  H   H3S d 301      12.034  12.418  36.798  0.00  0.00     0.076 H 
ATOM     36  H   H3S d 301      14.709   9.289  33.856  0.00  0.00     0.078 H 
ATOM     37  H   H3S d 301      14.358  10.503  32.626  0.00  0.00     0.078 H 
ATOM     38  H   H3S d 301      17.516   6.454  35.222  0.00  0.00     0.085 H 
ATOM     39  H   H3S d 301      15.148  11.658  34.602  0.00  0.00     0.090 H 
ATOM     40  H   H3S d 301      12.118  16.015  39.092  0.00  0.00     0.231 HD
ATOM     41  H   H3S d 301      14.573  10.654  38.611  0.00  0.00     0.210 HD
ATOM     42  H   H3S d 301      18.089   7.234  37.545  0.00  0.00     0.093 H 
ATOM     43  H   H3S d 301      15.238  13.436  35.451  0.00  0.00     0.212 HD
ATOM     44  H   H3S d 301      10.344  14.869  37.680  0.00  0.00     0.231 HD
ATOM     45  H   H3S d 301      12.437   9.231  34.306  0.00  0.00     0.209 HD
ATOM     46  H   H3S d 301      12.955  14.841  37.117  0.00  0.00     0.140 HD
ATOM     47  H   H3S d 301      16.764   9.340  38.440  0.00  0.00     0.097 H 
ATOM     48  H   H3S d 301      11.464  12.968  40.457  0.00  0.00     0.231 HD
ATOM     49  H   H3S d 301      15.252   7.447  37.122  0.00  0.00     0.210 HD
ATOM     50  H   H3S d 301      15.024  12.300  37.015  0.00  0.00     0.089 H 
ENDROOT
TORSDOF 15
ENDMDL
MODEL 65
REMARK VINA RESULT:      -4.7      3.012      6.697
REMARK  0 active torsions:
REMARK  status: ('A' for Active; 'I' for Inactive)
REMARK       I    between atoms: C10_1  and  O15_19 
REMARK       I    between atoms: C7_2  and  O3_5 
REMARK       I    between atoms: C1_3  and  O3_5 
REMARK       I    between atoms: C8_4  and  N14_22 
REMARK       I    between atoms: C6_6  and  C2_9 
REMARK       I    between atoms: C6_6  and  O11_21 
REMARK       I    between atoms: O29_11  and  S20_31 
REMARK       I    between atoms: O9_13  and  C4_28 
REMARK       I    between atoms: C27_15  and  C19_29 
REMARK       I    between atoms: C17_16  and  O25_27 
REMARK       I    between atoms: S26_18  and  O18_24 
REMARK       I    between atoms: O30_20  and  S20_31 
REMARK       I    between atoms: N14_22  and  S20_31 
REMARK       I    between atoms: C12_23  and  O18_24 
REMARK       I    between atoms: O28_26  and  S20_31 
ROOT
ATOM      1  C10 H3S d 301      16.512   8.918  32.138  0.00  0.00     0.147 C 
ATOM      2  C7  H3S d 301      17.299   9.170  36.816  0.00  0.00     0.167 C 
ATOM      3  C1  H3S d 301      16.564  10.337  34.756  0.00  0.00     0.095 C 
ATOM      4  C8  H3S d 301      17.568  10.009  32.451  0.00  0.00     0.081 C 
ATOM      5  O3  H3S d 301      16.720  10.393  36.187  0.00  0.00    -0.348 OA
ATOM      6  C6  H3S d 301      14.125   9.507  35.044  0.00  0.00     0.043 C 
ATOM      7  C24 H3S d 301      15.990   9.631  39.338  0.00  0.00    -0.034 C 
ATOM      8  O34 H3S d 301      13.780   7.214  37.939  0.00  0.00    -0.642 OA
ATOM      9  C2  H3S d 301      15.480   9.243  34.334  0.00  0.00     0.089 C 
ATOM     10  O31 H3S d 301      20.628   6.748  38.733  0.00  0.00    -0.572 OA
ATOM     11  O29 H3S d 301      20.744  10.455  30.335  0.00  0.00    -0.296 OA
ATOM     12  O35 H3S d 301      13.241   8.644  39.589  0.00  0.00    -0.642 OA
ATOM     13  O9  H3S d 301      18.833  11.016  34.305  0.00  0.00    -0.391 OA
ATOM     14  O13 H3S d 301      16.207   8.314  37.350  0.00  0.00    -0.311 OA
ATOM     15  C27 H3S d 301      14.125   8.146  38.631  0.00  0.00     0.233 C 
ATOM     16  C17 H3S d 301      17.405  10.232  39.161  0.00  0.00     0.086 C 
ATOM     17  O32 H3S d 301      20.312   7.811  36.691  0.00  0.00    -0.572 OA
ATOM     18  S26 H3S d 301      20.239   7.975  38.119  0.00  0.00     0.252 S 
ATOM     19  O15 H3S d 301      17.040   7.608  32.478  0.00  0.00    -0.369 OA
ATOM     20  O30 H3S d 301      18.596  11.738  29.938  0.00  0.00    -0.296 OA
ATOM     21  O11 H3S d 301      13.472  10.676  34.519  0.00  0.00    -0.398 OA
ATOM     22  N14 H3S d 301      18.789   9.723  31.711  0.00  0.00    -0.210 NA
ATOM     23  C12 H3S d 301      18.253   9.524  38.020  0.00  0.00     0.135 C 
ATOM     24  O18 H3S d 301      18.784   8.287  38.570  0.00  0.00    -0.244 OA
ATOM     25  O33 H3S d 301      21.278   9.172  38.611  0.00  0.00    -0.572 OA
ATOM     26  O28 H3S d 301      20.031  11.892  32.008  0.00  0.00    -0.296 OA
ATOM     27  O25 H3S d 301      17.282  11.630  38.860  0.00  0.00    -0.389 OA
ATOM     28  C4  H3S d 301      17.851  10.025  33.969  0.00  0.00     0.083 C 
ATOM     29  C19 H3S d 301      15.471   8.723  38.448  0.00  0.00     0.147 C 
ATOM     30  O5  H3S d 301      15.274   9.168  32.885  0.00  0.00    -0.350 OA
ATOM     31  S20 H3S d 301      19.603  10.968  31.010  0.00  0.00     0.156 S 
ATOM     32  H   H3S d 301      16.291   8.948  31.091  0.00  0.00     0.131 H 
ATOM     33  H   H3S d 301      17.857   8.663  36.057  0.00  0.00     0.134 H 
ATOM     34  H   H3S d 301      16.256  11.329  34.500  0.00  0.00     0.091 H 
ATOM     35  H   H3S d 301      17.200  10.969  32.157  0.00  0.00     0.076 H 
ATOM     36  H   H3S d 301      14.303   9.648  36.090  0.00  0.00     0.078 H 
ATOM     37  H   H3S d 301      13.490   8.663  34.876  0.00  0.00     0.078 H 
ATOM     38  H   H3S d 301      15.420   9.921  40.147  0.00  0.00     0.085 H 
ATOM     39  H   H3S d 301      15.873   8.299  34.648  0.00  0.00     0.090 H 
ATOM     40  H   H3S d 301      20.461   9.825  29.654  0.00  0.00     0.231 HD
ATOM     41  H   H3S d 301      18.991  11.003  35.262  0.00  0.00     0.210 HD
ATOM     42  H   H3S d 301      17.931  10.074  40.079  0.00  0.00     0.093 H 
ATOM     43  H   H3S d 301      17.242   7.577  33.426  0.00  0.00     0.212 HD
ATOM     44  H   H3S d 301      18.305  11.110  29.259  0.00  0.00     0.231 HD
ATOM     45  H   H3S d 301      14.035  11.453  34.663  0.00  0.00     0.209 HD
ATOM     46  H   H3S d 301      18.542   9.070  30.968  0.00  0.00     0.140 HD
ATOM     47  H   H3S d 301      19.040  10.166  37.682  0.00  0.00     0.097 H 
ATOM     48  H   H3S d 301      20.510  12.623  31.589  0.00  0.00     0.231 HD
ATOM     49  H   H3S d 301      16.802  11.739  38.024  0.00  0.00     0.210 HD
ATOM     50  H   H3S d 301      18.219   9.054  34.230  0.00  0.00     0.089 H 
ENDROOT
TORSDOF 15
ENDMDL
MODEL 66
REMARK VINA RESULT:      -4.7      3.240      4.930
REMARK  0 active torsions:
REMARK  status: ('A' for Active; 'I' for Inactive)
REMARK       I    between atoms: C10_1  and  O15_19 
REMARK       I    between atoms: C7_2  and  O3_5 
REMARK       I    between atoms: C1_3  and  O3_5 
REMARK       I    between atoms: C8_4  and  N14_22 
REMARK       I    between atoms: C6_6  and  C2_9 
REMARK       I    between atoms: C6_6  and  O11_21 
REMARK       I    between atoms: O29_11  and  S20_31 
REMARK       I    between atoms: O9_13  and  C4_28 
REMARK       I    between atoms: C27_15  and  C19_29 
REMARK       I    between atoms: C17_16  and  O25_27 
REMARK       I    between atoms: S26_18  and  O18_24 
REMARK       I    between atoms: O30_20  and  S20_31 
REMARK       I    between atoms: N14_22  and  S20_31 
REMARK       I    between atoms: C12_23  and  O18_24 
REMARK       I    between atoms: O28_26  and  S20_31 
ROOT
ATOM      1  C10 H3S d 301      14.100   9.569  34.585  0.00  0.00     0.147 C 
ATOM      2  C7  H3S d 301      18.430  11.414  33.938  0.00  0.00     0.167 C 
ATOM      3  C1  H3S d 301      17.055   9.376  34.260  0.00  0.00     0.095 C 
ATOM      4  C8  H3S d 301      15.027   9.203  35.772  0.00  0.00     0.081 C 
ATOM      5  O3  H3S d 301      18.357   9.924  33.979  0.00  0.00    -0.348 OA
ATOM      6  C6  H3S d 301      16.577   9.186  31.719  0.00  0.00     0.043 C 
ATOM      7  C24 H3S d 301      20.666  11.433  32.125  0.00  0.00    -0.034 C 
ATOM      8  O34 H3S d 301      18.013  12.035  29.827  0.00  0.00    -0.642 OA
ATOM      9  C2  H3S d 301      16.028   9.693  33.079  0.00  0.00     0.089 C 
ATOM     10  O31 H3S d 301      19.475  15.500  35.622  0.00  0.00    -0.572 OA
ATOM     11  O29 H3S d 301      13.832   9.335  39.421  0.00  0.00    -0.296 OA
ATOM     12  O35 H3S d 301      20.038  11.234  29.268  0.00  0.00    -0.642 OA
ATOM     13  O9  H3S d 301      17.297   9.564  36.651  0.00  0.00    -0.391 OA
ATOM     14  O13 H3S d 301      18.349  11.883  32.531  0.00  0.00    -0.311 OA
ATOM     15  C27 H3S d 301      19.097  11.654  30.208  0.00  0.00     0.233 C 
ATOM     16  C17 H3S d 301      20.989  11.440  33.638  0.00  0.00     0.086 C 
ATOM     17  O32 H3S d 301      18.128  13.726  36.285  0.00  0.00    -0.572 OA
ATOM     18  S26 H3S d 301      19.445  14.089  35.831  0.00  0.00     0.252 S 
ATOM     19  O15 H3S d 301      13.873  11.004  34.560  0.00  0.00    -0.369 OA
ATOM     20  O30 H3S d 301      13.765   7.244  37.992  0.00  0.00    -0.296 OA
ATOM     21  O11 H3S d 301      16.560   7.750  31.644  0.00  0.00    -0.398 OA
ATOM     22  N14 H3S d 301      14.422   9.663  37.013  0.00  0.00    -0.210 NA
ATOM     23  C12 H3S d 301      19.785  11.952  34.538  0.00  0.00     0.135 C 
ATOM     24  O18 H3S d 301      19.775  13.405  34.474  0.00  0.00    -0.244 OA
ATOM     25  O33 H3S d 301      20.575  13.694  36.981  0.00  0.00    -0.572 OA
ATOM     26  O28 H3S d 301      15.857   8.467  38.700  0.00  0.00    -0.296 OA
ATOM     27  O25 H3S d 301      21.350  10.112  34.042  0.00  0.00    -0.389 OA
ATOM     28  C4  H3S d 301      16.406   9.868  35.567  0.00  0.00     0.083 C 
ATOM     29  C19 H3S d 301      19.394  11.651  31.654  0.00  0.00     0.147 C 
ATOM     30  O5  H3S d 301      14.692   9.135  33.313  0.00  0.00    -0.350 OA
ATOM     31  S20 H3S d 301      14.496   8.694  38.340  0.00  0.00     0.156 S 
ATOM     32  H   H3S d 301      13.165   9.065  34.714  0.00  0.00     0.131 H 
ATOM     33  H   H3S d 301      17.612  11.783  34.521  0.00  0.00     0.134 H 
ATOM     34  H   H3S d 301      17.242   8.328  34.360  0.00  0.00     0.091 H 
ATOM     35  H   H3S d 301      15.158   8.142  35.820  0.00  0.00     0.076 H 
ATOM     36  H   H3S d 301      17.584   9.528  31.602  0.00  0.00     0.078 H 
ATOM     37  H   H3S d 301      15.950   9.570  30.941  0.00  0.00     0.078 H 
ATOM     38  H   H3S d 301      21.427  11.260  31.451  0.00  0.00     0.085 H 
ATOM     39  H   H3S d 301      15.926  10.758  33.051  0.00  0.00     0.090 H 
ATOM     40  H   H3S d 301      12.905   9.493  39.183  0.00  0.00     0.231 HD
ATOM     41  H   H3S d 301      18.152   9.993  36.496  0.00  0.00     0.210 HD
ATOM     42  H   H3S d 301      21.797  12.126  33.784  0.00  0.00     0.093 H 
ATOM     43  H   H3S d 301      14.719  11.463  34.443  0.00  0.00     0.212 HD
ATOM     44  H   H3S d 301      12.840   7.399  37.747  0.00  0.00     0.231 HD
ATOM     45  H   H3S d 301      17.124   7.383  32.343  0.00  0.00     0.209 HD
ATOM     46  H   H3S d 301      13.435   9.832  36.820  0.00  0.00     0.140 HD
ATOM     47  H   H3S d 301      19.896  11.611  35.546  0.00  0.00     0.097 H 
ATOM     48  H   H3S d 301      15.893   7.894  39.483  0.00  0.00     0.231 HD
ATOM     49  H   H3S d 301      20.598   9.515  33.898  0.00  0.00     0.210 HD
ATOM     50  H   H3S d 301      16.242  10.925  35.526  0.00  0.00     0.089 H 
ENDROOT
TORSDOF 15
ENDMDL
