MODEL 1
REMARK VINA RESULT:      -9.7      0.000      0.000
REMARK  0 active torsions:
REMARK  status: ('A' for Active; 'I' for Inactive)
REMARK       I    between atoms: C8_1  and  C7_18 
REMARK       I    between atoms: O6_4  and  C6_20 
REMARK       I    between atoms: C3_6  and  O3_22 
REMARK       I    between atoms: O1_7  and  C1_15 
REMARK       I    between atoms: O4_9  and  C4_11 
REMARK       I    between atoms: C1_10  and  O3_22 
REMARK       I    between atoms: C5_12  and  C6_17 
REMARK       I    between atoms: C2_13  and  O2_25 
REMARK       I    between atoms: C5_16  and  C6_20 
REMARK       I    between atoms: C7_18  and  N2_19 
REMARK       I    between atoms: N2_19  and  C2_23 
REMARK       I    between atoms: C3_21  and  O3_24 
ROOT
ATOM      1  C8  NAG d 902       6.125 -14.411  32.468  0.00  0.00    -0.003 C 
ATOM      2  O6  NAG d 902      10.210  -7.017  31.957  0.00  0.00    -0.398 OA
ATOM      3  O7  NAG d 902       6.948 -12.578  33.857  0.00  0.00    -0.274 OA
ATOM      4  C3  NAG d 902       7.271 -10.150  30.942  0.00  0.00     0.093 C 
ATOM      5  O1  NAG d 902      10.337 -12.229  31.550  0.00  0.00    -0.369 OA
ATOM      6  O5  NAG d 902      10.138  -9.875  31.065  0.00  0.00    -0.349 OA
ATOM      7  O4  NAG d 902       7.138  -7.716  30.457  0.00  0.00    -0.390 OA
ATOM      8  C4  NAG d 902       7.931  -8.753  31.082  0.00  0.00     0.089 C 
ATOM      9  C1  NAG d 902       9.517 -11.232  30.953  0.00  0.00     0.151 C 
ATOM     10  C5  NAG d 902       9.306  -8.785  30.439  0.00  0.00     0.089 C 
ATOM     11  C7  NAG d 902       6.868 -13.113  32.718  0.00  0.00     0.214 C 
ATOM     12  N2  NAG d 902       7.421 -12.555  31.521  0.00  0.00    -0.349 N 
ATOM     13  C6  NAG d 902       9.994  -7.426  30.580  0.00  0.00     0.043 C 
ATOM     14  O3  NAG d 902       5.960 -10.169  31.557  0.00  0.00    -0.348 OA
ATOM     15  C2  NAG d 902       8.136 -11.218  31.621  0.00  0.00     0.087 C 
ATOM     16  H   NAG d 902       5.734 -14.782  33.391  0.00  0.00     0.040 H 
ATOM     17  H   NAG d 902       6.797 -15.131  32.050  0.00  0.00     0.040 H 
ATOM     18  H   NAG d 902       5.320 -14.236  31.785  0.00  0.00     0.040 H 
ATOM     19  H   NAG d 902      10.648  -6.151  31.972  0.00  0.00     0.209 HD
ATOM     20  H   NAG d 902       7.179 -10.358  29.896  0.00  0.00     0.091 H 
ATOM     21  H   NAG d 902      11.207 -12.231  31.122  0.00  0.00     0.212 HD
ATOM     22  H   NAG d 902       6.258  -7.692  30.865  0.00  0.00     0.210 HD
ATOM     23  H   NAG d 902       8.006  -8.526  32.126  0.00  0.00     0.091 H 
ATOM     24  H   NAG d 902       9.415 -11.471  29.915  0.00  0.00     0.132 H 
ATOM     25  H   NAG d 902       9.198  -8.994  29.395  0.00  0.00     0.090 H 
ATOM     26  H   NAG d 902       7.341 -13.023  30.658  0.00  0.00     0.163 HD
ATOM     27  H   NAG d 902      10.943  -7.477  30.090  0.00  0.00     0.078 H 
ATOM     28  H   NAG d 902       9.343  -6.701  30.138  0.00  0.00     0.078 H 
ATOM     29  H   NAG d 902       8.284 -11.007  32.660  0.00  0.00     0.084 H 
ATOM     30  O6A GCD d 901       3.069  -9.600  26.463  0.00  0.00    -0.642 OA
ATOM     31  O5  GCD d 901       4.705  -9.451  29.731  0.00  0.00    -0.311 OA
ATOM     32  C1  GCD d 901       4.819 -10.514  30.798  0.00  0.00     0.165 C 
ATOM     33  C5  GCD d 901       3.528  -9.581  28.800  0.00  0.00     0.147 C 
ATOM     34  C2  GCD d 901       3.563 -10.475  31.612  0.00  0.00     0.111 C 
ATOM     35  O6B GCD d 901       4.253  -7.847  27.460  0.00  0.00    -0.642 OA
ATOM     36  C6  GCD d 901       3.705  -9.008  27.416  0.00  0.00     0.233 C 
ATOM     37  C3  GCD d 901       2.407 -10.866  30.625  0.00  0.00     0.084 C 
ATOM     38  O3  GCD d 901       1.194 -10.806  31.352  0.00  0.00    -0.389 OA
ATOM     39  O2  GCD d 901       3.618 -11.407  32.739  0.00  0.00    -0.388 OA
ATOM     40  C4  GCD d 901       2.478 -10.340  29.177  0.00  0.00    -0.034 C 
ATOM     41  H   GCD d 901       4.930 -11.507  30.416  0.00  0.00     0.134 H 
ATOM     42  H   GCD d 901       3.415  -9.505  32.039  0.00  0.00     0.095 H 
ATOM     43  H   GCD d 901       2.526 -11.879  30.301  0.00  0.00     0.093 H 
ATOM     44  H   GCD d 901       1.049  -9.899  31.664  0.00  0.00     0.210 HD
ATOM     45  H   GCD d 901       3.753 -12.308  32.407  0.00  0.00     0.210 HD
ATOM     46  H   GCD d 901       1.730 -10.567  28.503  0.00  0.00     0.085 H 
ENDROOT
TORSDOF 11
ENDMDL
MODEL 2
REMARK VINA RESULT:      -8.9      2.871      6.447
REMARK  0 active torsions:
REMARK  status: ('A' for Active; 'I' for Inactive)
REMARK       I    between atoms: C8_1  and  C7_18 
REMARK       I    between atoms: O6_4  and  C6_20 
REMARK       I    between atoms: C3_6  and  O3_22 
REMARK       I    between atoms: O1_7  and  C1_15 
REMARK       I    between atoms: O4_9  and  C4_11 
REMARK       I    between atoms: C1_10  and  O3_22 
REMARK       I    between atoms: C5_12  and  C6_17 
REMARK       I    between atoms: C2_13  and  O2_25 
REMARK       I    between atoms: C5_16  and  C6_20 
REMARK       I    between atoms: C7_18  and  N2_19 
REMARK       I    between atoms: N2_19  and  C2_23 
REMARK       I    between atoms: C3_21  and  O3_24 
ROOT
ATOM      1  C8  NAG d 902       1.696 -13.041  27.398  0.00  0.00    -0.003 C 
ATOM      2  O6  NAG d 902       3.981  -5.130  29.350  0.00  0.00    -0.398 OA
ATOM      3  O7  NAG d 902       2.259 -10.900  26.364  0.00  0.00    -0.274 OA
ATOM      4  C3  NAG d 902       3.987  -9.543  29.474  0.00  0.00     0.093 C 
ATOM      5  O1  NAG d 902       0.301  -8.845  29.343  0.00  0.00    -0.369 OA
ATOM      6  O5  NAG d 902       2.125  -7.398  29.969  0.00  0.00    -0.349 OA
ATOM      7  O4  NAG d 902       5.821  -7.995  30.119  0.00  0.00    -0.390 OA
ATOM      8  C4  NAG d 902       4.477  -8.075  29.588  0.00  0.00     0.089 C 
ATOM      9  C1  NAG d 902       1.634  -8.805  29.838  0.00  0.00     0.151 C 
ATOM     10  C5  NAG d 902       3.535  -7.305  30.497  0.00  0.00     0.089 C 
ATOM     11  C7  NAG d 902       2.048 -11.567  27.414  0.00  0.00     0.214 C 
ATOM     12  N2  NAG d 902       2.153 -11.040  28.742  0.00  0.00    -0.349 N 
ATOM     13  C6  NAG d 902       3.977  -5.847  30.614  0.00  0.00     0.043 C 
ATOM     14  O3  NAG d 902       4.850 -10.311  28.601  0.00  0.00    -0.348 OA
ATOM     15  C2  NAG d 902       2.565  -9.586  28.902  0.00  0.00     0.087 C 
ATOM     16  H   NAG d 902       1.631 -13.381  26.386  0.00  0.00     0.040 H 
ATOM     17  H   NAG d 902       0.755 -13.188  27.884  0.00  0.00     0.040 H 
ATOM     18  H   NAG d 902       2.454 -13.595  27.911  0.00  0.00     0.040 H 
ATOM     19  H   NAG d 902       4.270  -4.216  29.498  0.00  0.00     0.209 HD
ATOM     20  H   NAG d 902       4.004  -9.965  30.457  0.00  0.00     0.091 H 
ATOM     21  H   NAG d 902      -0.281  -8.350  29.941  0.00  0.00     0.212 HD
ATOM     22  H   NAG d 902       6.426  -8.485  29.541  0.00  0.00     0.210 HD
ATOM     23  H   NAG d 902       4.485  -7.652  28.605  0.00  0.00     0.091 H 
ATOM     24  H   NAG d 902       1.635  -9.255  30.809  0.00  0.00     0.132 H 
ATOM     25  H   NAG d 902       3.562  -7.739  31.476  0.00  0.00     0.090 H 
ATOM     26  H   NAG d 902       1.964 -11.602  29.527  0.00  0.00     0.163 HD
ATOM     27  H   NAG d 902       3.311  -5.345  31.284  0.00  0.00     0.078 H 
ATOM     28  H   NAG d 902       4.987  -5.856  30.970  0.00  0.00     0.078 H 
ATOM     29  H   NAG d 902       2.511  -9.126  27.938  0.00  0.00     0.084 H 
ATOM     30  O6A GCD d 901       7.775 -12.877  33.016  0.00  0.00    -0.642 OA
ATOM     31  O5  GCD d 901       6.412 -11.012  30.180  0.00  0.00    -0.311 OA
ATOM     32  C1  GCD d 901       5.493 -11.476  29.076  0.00  0.00     0.165 C 
ATOM     33  C5  GCD d 901       7.246 -12.082  30.834  0.00  0.00     0.147 C 
ATOM     34  C2  GCD d 901       6.339 -12.126  28.027  0.00  0.00     0.111 C 
ATOM     35  O6B GCD d 901       8.059 -10.631  32.434  0.00  0.00    -0.642 OA
ATOM     36  C6  GCD d 901       7.646 -11.836  32.266  0.00  0.00     0.233 C 
ATOM     37  C3  GCD d 901       6.981 -13.381  28.717  0.00  0.00     0.084 C 
ATOM     38  O3  GCD d 901       7.820 -14.005  27.762  0.00  0.00    -0.389 OA
ATOM     39  O2  GCD d 901       5.547 -12.525  26.862  0.00  0.00    -0.388 OA
ATOM     40  C4  GCD d 901       7.430 -13.252  30.187  0.00  0.00    -0.034 C 
ATOM     41  H   GCD d 901       4.758 -12.188  29.389  0.00  0.00     0.134 H 
ATOM     42  H   GCD d 901       7.081 -11.448  27.659  0.00  0.00     0.095 H 
ATOM     43  H   GCD d 901       6.221 -14.089  28.974  0.00  0.00     0.093 H 
ATOM     44  H   GCD d 901       8.526 -13.392  27.502  0.00  0.00     0.210 HD
ATOM     45  H   GCD d 901       4.855 -13.145  27.139  0.00  0.00     0.210 HD
ATOM     46  H   GCD d 901       7.867 -14.052  30.670  0.00  0.00     0.085 H 
ENDROOT
TORSDOF 11
ENDMDL
MODEL 3
REMARK VINA RESULT:      -8.8      1.686      5.919
REMARK  0 active torsions:
REMARK  status: ('A' for Active; 'I' for Inactive)
REMARK       I    between atoms: C8_1  and  C7_18 
REMARK       I    between atoms: O6_4  and  C6_20 
REMARK       I    between atoms: C3_6  and  O3_22 
REMARK       I    between atoms: O1_7  and  C1_15 
REMARK       I    between atoms: O4_9  and  C4_11 
REMARK       I    between atoms: C1_10  and  O3_22 
REMARK       I    between atoms: C5_12  and  C6_17 
REMARK       I    between atoms: C2_13  and  O2_25 
REMARK       I    between atoms: C5_16  and  C6_20 
REMARK       I    between atoms: C7_18  and  N2_19 
REMARK       I    between atoms: N2_19  and  C2_23 
REMARK       I    between atoms: C3_21  and  O3_24 
ROOT
ATOM      1  C8  NAG d 902       7.064 -13.472  34.349  0.00  0.00    -0.003 C 
ATOM      2  O6  NAG d 902       2.051 -12.151  27.659  0.00  0.00    -0.398 OA
ATOM      3  O7  NAG d 902       6.280 -14.549  32.301  0.00  0.00    -0.274 OA
ATOM      4  C3  NAG d 902       5.132 -11.290  30.701  0.00  0.00     0.093 C 
ATOM      5  O1  NAG d 902       2.514 -12.968  32.804  0.00  0.00    -0.369 OA
ATOM      6  O5  NAG d 902       2.323 -11.934  30.634  0.00  0.00    -0.349 OA
ATOM      7  O4  NAG d 902       4.867 -10.251  28.459  0.00  0.00    -0.390 OA
ATOM      8  C4  NAG d 902       4.337 -11.243  29.369  0.00  0.00     0.089 C 
ATOM      9  C1  NAG d 902       3.080 -12.006  31.923  0.00  0.00     0.151 C 
ATOM     10  C5  NAG d 902       2.884 -10.920  29.669  0.00  0.00     0.089 C 
ATOM     11  C7  NAG d 902       6.221 -13.569  33.092  0.00  0.00     0.214 C 
ATOM     12  N2  NAG d 902       5.394 -12.416  32.893  0.00  0.00    -0.349 N 
ATOM     13  C6  NAG d 902       2.066 -10.888  28.377  0.00  0.00     0.043 C 
ATOM     14  O3  NAG d 902       6.524 -11.612  30.463  0.00  0.00    -0.348 OA
ATOM     15  C2  NAG d 902       4.546 -12.356  31.634  0.00  0.00     0.087 C 
ATOM     16  H   NAG d 902       7.659 -14.355  34.448  0.00  0.00     0.040 H 
ATOM     17  H   NAG d 902       6.424 -13.375  35.201  0.00  0.00     0.040 H 
ATOM     18  H   NAG d 902       7.704 -12.617  34.284  0.00  0.00     0.040 H 
ATOM     19  H   NAG d 902       1.517 -12.059  26.855  0.00  0.00     0.209 HD
ATOM     20  H   NAG d 902       5.060 -10.323  31.152  0.00  0.00     0.091 H 
ATOM     21  H   NAG d 902       1.589 -12.739  32.981  0.00  0.00     0.212 HD
ATOM     22  H   NAG d 902       5.796 -10.454  28.265  0.00  0.00     0.210 HD
ATOM     23  H   NAG d 902       4.423 -12.201  28.899  0.00  0.00     0.091 H 
ATOM     24  H   NAG d 902       3.023 -11.051  32.402  0.00  0.00     0.132 H 
ATOM     25  H   NAG d 902       2.827  -9.951  30.119  0.00  0.00     0.090 H 
ATOM     26  H   NAG d 902       5.377 -11.684  33.551  0.00  0.00     0.163 HD
ATOM     27  H   NAG d 902       1.058 -10.628  28.623  0.00  0.00     0.078 H 
ATOM     28  H   NAG d 902       2.530 -10.170  27.734  0.00  0.00     0.078 H 
ATOM     29  H   NAG d 902       4.562 -13.328  31.186  0.00  0.00     0.084 H 
ATOM     30  O6A GCD d 901       8.355  -6.039  30.938  0.00  0.00    -0.642 OA
ATOM     31  O5  GCD d 901       7.329  -9.453  30.120  0.00  0.00    -0.311 OA
ATOM     32  C1  GCD d 901       7.544 -10.733  30.892  0.00  0.00     0.165 C 
ATOM     33  C5  GCD d 901       8.326  -8.355  30.380  0.00  0.00     0.147 C 
ATOM     34  C2  GCD d 901       8.911 -11.241  30.553  0.00  0.00     0.111 C 
ATOM     35  O6B GCD d 901       7.157  -6.835  29.095  0.00  0.00    -0.642 OA
ATOM     36  C6  GCD d 901       7.832  -6.943  30.183  0.00  0.00     0.233 C 
ATOM     37  C3  GCD d 901       9.910 -10.153  31.082  0.00  0.00     0.084 C 
ATOM     38  O3  GCD d 901      11.217 -10.583  30.748  0.00  0.00    -0.389 OA
ATOM     39  O2  GCD d 901       9.178 -12.537  31.180  0.00  0.00    -0.388 OA
ATOM     40  C4  GCD d 901       9.514  -8.670  30.937  0.00  0.00    -0.034 C 
ATOM     41  H   GCD d 901       7.493 -10.616  31.954  0.00  0.00     0.134 H 
ATOM     42  H   GCD d 901       9.010 -11.398  29.499  0.00  0.00     0.095 H 
ATOM     43  H   GCD d 901       9.864 -10.098  32.150  0.00  0.00     0.093 H 
ATOM     44  H   GCD d 901      11.300 -10.645  29.784  0.00  0.00     0.210 HD
ATOM     45  H   GCD d 901       9.101 -12.452  32.143  0.00  0.00     0.210 HD
ATOM     46  H   GCD d 901      10.151  -7.926  31.263  0.00  0.00     0.085 H 
ENDROOT
TORSDOF 11
ENDMDL
MODEL 4
REMARK VINA RESULT:      -8.7      3.233      6.727
REMARK  0 active torsions:
REMARK  status: ('A' for Active; 'I' for Inactive)
REMARK       I    between atoms: C8_1  and  C7_18 
REMARK       I    between atoms: O6_4  and  C6_20 
REMARK       I    between atoms: C3_6  and  O3_22 
REMARK       I    between atoms: O1_7  and  C1_15 
REMARK       I    between atoms: O4_9  and  C4_11 
REMARK       I    between atoms: C1_10  and  O3_22 
REMARK       I    between atoms: C5_12  and  C6_17 
REMARK       I    between atoms: C2_13  and  O2_25 
REMARK       I    between atoms: C5_16  and  C6_20 
REMARK       I    between atoms: C7_18  and  N2_19 
REMARK       I    between atoms: N2_19  and  C2_23 
REMARK       I    between atoms: C3_21  and  O3_24 
ROOT
ATOM      1  C8  NAG d 902       1.749 -12.341  26.715  0.00  0.00    -0.003 C 
ATOM      2  O6  NAG d 902       2.955  -5.808  31.958  0.00  0.00    -0.398 OA
ATOM      3  O7  NAG d 902       2.331  -9.968  26.716  0.00  0.00    -0.274 OA
ATOM      4  C3  NAG d 902       3.292  -9.924  30.400  0.00  0.00     0.093 C 
ATOM      5  O1  NAG d 902      -0.339  -9.221  29.756  0.00  0.00    -0.369 OA
ATOM      6  O5  NAG d 902       1.202  -8.134  31.259  0.00  0.00    -0.349 OA
ATOM      7  O4  NAG d 902       4.830  -8.752  31.960  0.00  0.00    -0.390 OA
ATOM      8  C4  NAG d 902       3.629  -8.617  31.164  0.00  0.00     0.089 C 
ATOM      9  C1  NAG d 902       0.861  -9.379  30.503  0.00  0.00     0.151 C 
ATOM     10  C5  NAG d 902       2.466  -8.256  32.072  0.00  0.00     0.089 C 
ATOM     11  C7  NAG d 902       1.970 -10.988  27.364  0.00  0.00     0.214 C 
ATOM     12  N2  NAG d 902       1.766 -11.016  28.781  0.00  0.00    -0.349 N 
ATOM     13  C6  NAG d 902       2.758  -6.958  32.824  0.00  0.00     0.043 C 
ATOM     14  O3  NAG d 902       4.370 -10.297  29.508  0.00  0.00    -0.348 OA
ATOM     15  C2  NAG d 902       2.020  -9.740  29.564  0.00  0.00     0.087 C 
ATOM     16  H   NAG d 902       1.914 -12.262  25.661  0.00  0.00     0.040 H 
ATOM     17  H   NAG d 902       0.744 -12.662  26.896  0.00  0.00     0.040 H 
ATOM     18  H   NAG d 902       2.432 -13.052  27.130  0.00  0.00     0.040 H 
ATOM     19  H   NAG d 902       3.135  -5.023  32.499  0.00  0.00     0.209 HD
ATOM     20  H   NAG d 902       3.147 -10.694  31.129  0.00  0.00     0.091 H 
ATOM     21  H   NAG d 902      -1.065  -8.994  30.357  0.00  0.00     0.212 HD
ATOM     22  H   NAG d 902       5.576  -8.982  31.384  0.00  0.00     0.210 HD
ATOM     23  H   NAG d 902       3.798  -7.846  30.441  0.00  0.00     0.091 H 
ATOM     24  H   NAG d 902       0.706 -10.170  31.207  0.00  0.00     0.132 H 
ATOM     25  H   NAG d 902       2.334  -9.035  32.794  0.00  0.00     0.090 H 
ATOM     26  H   NAG d 902       1.471 -11.839  29.235  0.00  0.00     0.163 HD
ATOM     27  H   NAG d 902       1.934  -6.753  33.474  0.00  0.00     0.078 H 
ATOM     28  H   NAG d 902       3.674  -7.107  33.357  0.00  0.00     0.078 H 
ATOM     29  H   NAG d 902       2.122  -8.942  28.858  0.00  0.00     0.084 H 
ATOM     30  O6A GCD d 901       6.557 -14.380  33.139  0.00  0.00    -0.642 OA
ATOM     31  O5  GCD d 901       5.639 -11.559  31.000  0.00  0.00    -0.311 OA
ATOM     32  C1  GCD d 901       4.998 -11.557  29.633  0.00  0.00     0.165 C 
ATOM     33  C5  GCD d 901       6.409 -12.801  31.362  0.00  0.00     0.147 C 
ATOM     34  C2  GCD d 901       6.085 -11.753  28.623  0.00  0.00     0.111 C 
ATOM     35  O6B GCD d 901       6.769 -12.084  33.526  0.00  0.00    -0.642 OA
ATOM     36  C6  GCD d 901       6.496 -13.130  32.831  0.00  0.00     0.233 C 
ATOM     37  C3  GCD d 901       6.676 -13.179  28.907  0.00  0.00     0.084 C 
ATOM     38  O3  GCD d 901       7.736 -13.387  27.991  0.00  0.00    -0.389 OA
ATOM     39  O2  GCD d 901       5.575 -11.668  27.254  0.00  0.00    -0.388 OA
ATOM     40  C4  GCD d 901       6.812 -13.630  30.376  0.00  0.00    -0.034 C 
ATOM     41  H   GCD d 901       4.275 -12.333  29.488  0.00  0.00     0.134 H 
ATOM     42  H   GCD d 901       6.828 -10.987  28.708  0.00  0.00     0.095 H 
ATOM     43  H   GCD d 901       5.940 -13.929  28.708  0.00  0.00     0.093 H 
ATOM     44  H   GCD d 901       8.427 -12.723  28.141  0.00  0.00     0.210 HD
ATOM     45  H   GCD d 901       4.893 -12.345  27.120  0.00  0.00     0.210 HD
ATOM     46  H   GCD d 901       7.207 -14.556  30.602  0.00  0.00     0.085 H 
ENDROOT
TORSDOF 11
ENDMDL
MODEL 5
REMARK VINA RESULT:      -8.6      2.627      4.421
REMARK  0 active torsions:
REMARK  status: ('A' for Active; 'I' for Inactive)
REMARK       I    between atoms: C8_1  and  C7_18 
REMARK       I    between atoms: O6_4  and  C6_20 
REMARK       I    between atoms: C3_6  and  O3_22 
REMARK       I    between atoms: O1_7  and  C1_15 
REMARK       I    between atoms: O4_9  and  C4_11 
REMARK       I    between atoms: C1_10  and  O3_22 
REMARK       I    between atoms: C5_12  and  C6_17 
REMARK       I    between atoms: C2_13  and  O2_25 
REMARK       I    between atoms: C5_16  and  C6_20 
REMARK       I    between atoms: C7_18  and  N2_19 
REMARK       I    between atoms: N2_19  and  C2_23 
REMARK       I    between atoms: C3_21  and  O3_24 
ROOT
ATOM      1  C8  NAG d 902      12.071 -10.439  31.235  0.00  0.00    -0.003 C 
ATOM      2  O6  NAG d 902       6.580  -4.000  31.168  0.00  0.00    -0.398 OA
ATOM      3  O7  NAG d 902      11.003  -8.818  32.718  0.00  0.00    -0.274 OA
ATOM      4  C3  NAG d 902       8.210  -8.001  30.262  0.00  0.00     0.093 C 
ATOM      5  O1  NAG d 902      11.280  -5.878  29.852  0.00  0.00    -0.369 OA
ATOM      6  O5  NAG d 902       8.952  -5.248  29.832  0.00  0.00    -0.349 OA
ATOM      7  O4  NAG d 902       5.832  -7.281  30.242  0.00  0.00    -0.390 OA
ATOM      8  C4  NAG d 902       7.191  -6.856  30.501  0.00  0.00     0.089 C 
ATOM      9  C1  NAG d 902       9.954  -6.339  29.619  0.00  0.00     0.151 C 
ATOM     10  C5  NAG d 902       7.530  -5.689  29.590  0.00  0.00     0.089 C 
ATOM     11  C7  NAG d 902      11.195  -9.241  31.545  0.00  0.00     0.214 C 
ATOM     12  N2  NAG d 902      10.590  -8.682  30.374  0.00  0.00    -0.349 N 
ATOM     13  C6  NAG d 902       6.556  -4.533  29.816  0.00  0.00     0.043 C 
ATOM     14  O3  NAG d 902       7.933  -9.131  31.124  0.00  0.00    -0.348 OA
ATOM     15  C2  NAG d 902       9.635  -7.514  30.552  0.00  0.00     0.087 C 
ATOM     16  H   NAG d 902      12.496 -10.815  32.142  0.00  0.00     0.040 H 
ATOM     17  H   NAG d 902      12.855 -10.144  30.570  0.00  0.00     0.040 H 
ATOM     18  H   NAG d 902      11.480 -11.203  30.775  0.00  0.00     0.040 H 
ATOM     19  H   NAG d 902       5.941  -3.274  31.240  0.00  0.00     0.209 HD
ATOM     20  H   NAG d 902       8.123  -8.300  29.238  0.00  0.00     0.091 H 
ATOM     21  H   NAG d 902      11.473  -5.136  29.259  0.00  0.00     0.212 HD
ATOM     22  H   NAG d 902       5.611  -8.027  30.822  0.00  0.00     0.210 HD
ATOM     23  H   NAG d 902       7.255  -6.565  31.529  0.00  0.00     0.091 H 
ATOM     24  H   NAG d 902       9.894  -6.658  28.600  0.00  0.00     0.132 H 
ATOM     25  H   NAG d 902       7.439  -6.004  28.571  0.00  0.00     0.090 H 
ATOM     26  H   NAG d 902      10.787  -9.044  29.480  0.00  0.00     0.163 HD
ATOM     27  H   NAG d 902       6.806  -3.744  29.139  0.00  0.00     0.078 H 
ATOM     28  H   NAG d 902       5.571  -4.919  29.651  0.00  0.00     0.078 H 
ATOM     29  H   NAG d 902       9.737  -7.163  31.558  0.00  0.00     0.084 H 
ATOM     30  O6A GCD d 901       5.242 -12.246  26.918  0.00  0.00    -0.642 OA
ATOM     31  O5  GCD d 901       6.426 -10.258  29.750  0.00  0.00    -0.311 OA
ATOM     32  C1  GCD d 901       7.685 -10.408  30.571  0.00  0.00     0.165 C 
ATOM     33  C5  GCD d 901       5.930 -11.510  29.076  0.00  0.00     0.147 C 
ATOM     34  C2  GCD d 901       7.419 -11.440  31.622  0.00  0.00     0.111 C 
ATOM     35  O6B GCD d 901       4.277 -10.374  27.933  0.00  0.00    -0.642 OA
ATOM     36  C6  GCD d 901       5.141 -11.317  27.805  0.00  0.00     0.233 C 
ATOM     37  C3  GCD d 901       7.155 -12.778  30.845  0.00  0.00     0.084 C 
ATOM     38  O3  GCD d 901       6.864 -13.774  31.807  0.00  0.00    -0.389 OA
ATOM     39  O2  GCD d 901       8.553 -11.588  32.535  0.00  0.00    -0.388 OA
ATOM     40  C4  GCD d 901       6.358 -12.707  29.526  0.00  0.00    -0.034 C 
ATOM     41  H   GCD d 901       8.538 -10.726  30.009  0.00  0.00     0.134 H 
ATOM     42  H   GCD d 901       6.586 -11.159  32.231  0.00  0.00     0.095 H 
ATOM     43  H   GCD d 901       8.042 -13.088  30.333  0.00  0.00     0.093 H 
ATOM     44  H   GCD d 901       6.062 -13.529  32.294  0.00  0.00     0.210 HD
ATOM     45  H   GCD d 901       9.342 -11.843  32.032  0.00  0.00     0.210 HD
ATOM     46  H   GCD d 901       6.156 -13.568  28.994  0.00  0.00     0.085 H 
ENDROOT
TORSDOF 11
ENDMDL
MODEL 6
REMARK VINA RESULT:      -8.4      2.596      4.765
REMARK  0 active torsions:
REMARK  status: ('A' for Active; 'I' for Inactive)
REMARK       I    between atoms: C8_1  and  C7_18 
REMARK       I    between atoms: O6_4  and  C6_20 
REMARK       I    between atoms: C3_6  and  O3_22 
REMARK       I    between atoms: O1_7  and  C1_15 
REMARK       I    between atoms: O4_9  and  C4_11 
REMARK       I    between atoms: C1_10  and  O3_22 
REMARK       I    between atoms: C5_12  and  C6_17 
REMARK       I    between atoms: C2_13  and  O2_25 
REMARK       I    between atoms: C5_16  and  C6_20 
REMARK       I    between atoms: C7_18  and  N2_19 
REMARK       I    between atoms: N2_19  and  C2_23 
REMARK       I    between atoms: C3_21  and  O3_24 
ROOT
ATOM      1  C8  NAG d 902       5.048  -7.379  32.041  0.00  0.00    -0.003 C 
ATOM      2  O6  NAG d 902       8.920 -13.988  28.443  0.00  0.00    -0.398 OA
ATOM      3  O7  NAG d 902       7.104  -7.990  30.871  0.00  0.00    -0.274 OA
ATOM      4  C3  NAG d 902       5.646 -11.190  29.410  0.00  0.00     0.093 C 
ATOM      5  O1  NAG d 902       7.222 -11.628  32.789  0.00  0.00    -0.369 OA
ATOM      6  O5  NAG d 902       7.382 -13.009  30.819  0.00  0.00    -0.349 OA
ATOM      7  O4  NAG d 902       5.865 -12.652  27.413  0.00  0.00    -0.390 OA
ATOM      8  C4  NAG d 902       6.504 -12.228  28.640  0.00  0.00     0.089 C 
ATOM      9  C1  NAG d 902       6.579 -11.999  31.576  0.00  0.00     0.151 C 
ATOM     10  C5  NAG d 902       6.736 -13.439  29.526  0.00  0.00     0.089 C 
ATOM     11  C7  NAG d 902       6.010  -8.350  31.386  0.00  0.00     0.214 C 
ATOM     12  N2  NAG d 902       5.520  -9.696  31.383  0.00  0.00    -0.349 N 
ATOM     13  C6  NAG d 902       7.598 -14.473  28.803  0.00  0.00     0.043 C 
ATOM     14  O3  NAG d 902       5.413 -10.008  28.605  0.00  0.00    -0.348 OA
ATOM     15  C2  NAG d 902       6.359 -10.760  30.698  0.00  0.00     0.087 C 
ATOM     16  H   NAG d 902       5.462  -6.393  32.015  0.00  0.00     0.040 H 
ATOM     17  H   NAG d 902       4.884  -7.670  33.057  0.00  0.00     0.040 H 
ATOM     18  H   NAG d 902       4.117  -7.388  31.512  0.00  0.00     0.040 H 
ATOM     19  H   NAG d 902       9.410 -14.693  27.990  0.00  0.00     0.209 HD
ATOM     20  H   NAG d 902       4.711 -11.655  29.642  0.00  0.00     0.091 H 
ATOM     21  H   NAG d 902       7.356 -12.416  33.338  0.00  0.00     0.212 HD
ATOM     22  H   NAG d 902       5.715 -11.881  26.843  0.00  0.00     0.210 HD
ATOM     23  H   NAG d 902       7.434 -11.763  28.383  0.00  0.00     0.091 H 
ATOM     24  H   NAG d 902       5.636 -12.437  31.827  0.00  0.00     0.132 H 
ATOM     25  H   NAG d 902       5.793 -13.893  29.750  0.00  0.00     0.090 H 
ATOM     26  H   NAG d 902       4.664  -9.924  31.813  0.00  0.00     0.163 HD
ATOM     27  H   NAG d 902       7.714 -15.322  29.444  0.00  0.00     0.078 H 
ATOM     28  H   NAG d 902       7.095 -14.714  27.890  0.00  0.00     0.078 H 
ATOM     29  H   NAG d 902       7.320 -10.335  30.496  0.00  0.00     0.084 H 
ATOM     30  O6A GCD d 901      -0.035 -11.598  27.049  0.00  0.00    -0.642 OA
ATOM     31  O5  GCD d 901       3.483 -10.709  27.505  0.00  0.00    -0.311 OA
ATOM     32  C1  GCD d 901       4.095  -9.590  28.314  0.00  0.00     0.165 C 
ATOM     33  C5  GCD d 901       2.070 -10.482  27.038  0.00  0.00     0.147 C 
ATOM     34  C2  GCD d 901       4.065  -8.354  27.471  0.00  0.00     0.111 C 
ATOM     35  O6B GCD d 901       1.885 -12.624  26.197  0.00  0.00    -0.642 OA
ATOM     36  C6  GCD d 901       1.229 -11.717  26.828  0.00  0.00     0.233 C 
ATOM     37  C3  GCD d 901       2.546  -8.039  27.235  0.00  0.00     0.084 C 
ATOM     38  O3  GCD d 901       2.477  -6.891  26.409  0.00  0.00    -0.389 OA
ATOM     39  O2  GCD d 901       4.729  -7.230  28.134  0.00  0.00    -0.388 OA
ATOM     40  C4  GCD d 901       1.585  -9.223  27.010  0.00  0.00    -0.034 C 
ATOM     41  H   GCD d 901       3.578  -9.376  29.226  0.00  0.00     0.134 H 
ATOM     42  H   GCD d 901       4.591  -8.505  26.552  0.00  0.00     0.095 H 
ATOM     43  H   GCD d 901       2.074  -7.785  28.161  0.00  0.00     0.093 H 
ATOM     44  H   GCD d 901       2.896  -7.081  25.555  0.00  0.00     0.210 HD
ATOM     45  H   GCD d 901       4.290  -7.048  28.980  0.00  0.00     0.210 HD
ATOM     46  H   GCD d 901       0.581  -9.055  26.840  0.00  0.00     0.085 H 
ENDROOT
TORSDOF 11
ENDMDL
MODEL 7
REMARK VINA RESULT:      -8.3      1.761      2.265
REMARK  0 active torsions:
REMARK  status: ('A' for Active; 'I' for Inactive)
REMARK       I    between atoms: C8_1  and  C7_18 
REMARK       I    between atoms: O6_4  and  C6_20 
REMARK       I    between atoms: C3_6  and  O3_22 
REMARK       I    between atoms: O1_7  and  C1_15 
REMARK       I    between atoms: O4_9  and  C4_11 
REMARK       I    between atoms: C1_10  and  O3_22 
REMARK       I    between atoms: C5_12  and  C6_17 
REMARK       I    between atoms: C2_13  and  O2_25 
REMARK       I    between atoms: C5_16  and  C6_20 
REMARK       I    between atoms: C7_18  and  N2_19 
REMARK       I    between atoms: N2_19  and  C2_23 
REMARK       I    between atoms: C3_21  and  O3_24 
ROOT
ATOM      1  C8  NAG d 902       8.600 -13.077  30.087  0.00  0.00    -0.003 C 
ATOM      2  O6  NAG d 902       9.270  -5.844  34.428  0.00  0.00    -0.398 OA
ATOM      3  O7  NAG d 902       8.778 -12.223  32.370  0.00  0.00    -0.274 OA
ATOM      4  C3  NAG d 902       7.740  -8.685  31.417  0.00  0.00     0.093 C 
ATOM      5  O1  NAG d 902      11.432  -9.316  31.170  0.00  0.00    -0.369 OA
ATOM      6  O5  NAG d 902      10.246  -7.423  32.078  0.00  0.00    -0.349 OA
ATOM      7  O4  NAG d 902       6.581  -6.709  32.379  0.00  0.00    -0.390 OA
ATOM      8  C4  NAG d 902       7.793  -7.498  32.414  0.00  0.00     0.089 C 
ATOM      9  C1  NAG d 902      10.214  -8.582  31.132  0.00  0.00     0.151 C 
ATOM     10  C5  NAG d 902       8.976  -6.610  32.068  0.00  0.00     0.089 C 
ATOM     11  C7  NAG d 902       8.782 -11.991  31.129  0.00  0.00     0.214 C 
ATOM     12  N2  NAG d 902       8.914 -10.688  30.550  0.00  0.00    -0.349 N 
ATOM     13  C6  NAG d 902       9.070  -5.440  33.047  0.00  0.00     0.043 C 
ATOM     14  O3  NAG d 902       6.633  -9.569  31.721  0.00  0.00    -0.348 OA
ATOM     15  C2  NAG d 902       9.037  -9.499  31.488  0.00  0.00     0.087 C 
ATOM     16  H   NAG d 902       8.507 -14.026  30.573  0.00  0.00     0.040 H 
ATOM     17  H   NAG d 902       9.449 -13.092  29.436  0.00  0.00     0.040 H 
ATOM     18  H   NAG d 902       7.717 -12.881  29.517  0.00  0.00     0.040 H 
ATOM     19  H   NAG d 902       9.321  -5.055  34.991  0.00  0.00     0.209 HD
ATOM     20  H   NAG d 902       7.613  -8.276  30.436  0.00  0.00     0.091 H 
ATOM     21  H   NAG d 902      12.170  -8.729  30.944  0.00  0.00     0.212 HD
ATOM     22  H   NAG d 902       5.822  -7.273  32.600  0.00  0.00     0.210 HD
ATOM     23  H   NAG d 902       7.897  -7.900  33.401  0.00  0.00     0.091 H 
ATOM     24  H   NAG d 902      10.092  -8.204  30.139  0.00  0.00     0.132 H 
ATOM     25  H   NAG d 902       8.835  -6.209  31.086  0.00  0.00     0.090 H 
ATOM     26  H   NAG d 902       8.925 -10.566  29.573  0.00  0.00     0.163 HD
ATOM     27  H   NAG d 902       9.893  -4.822  32.755  0.00  0.00     0.078 H 
ATOM     28  H   NAG d 902       8.134  -4.923  33.006  0.00  0.00     0.078 H 
ATOM     29  H   NAG d 902       9.213  -9.881  32.473  0.00  0.00     0.084 H 
ATOM     30  O6A GCD d 901       3.161  -7.401  27.493  0.00  0.00    -0.642 OA
ATOM     31  O5  GCD d 901       4.983  -8.508  30.464  0.00  0.00    -0.311 OA
ATOM     32  C1  GCD d 901       5.644  -9.836  30.748  0.00  0.00     0.165 C 
ATOM     33  C5  GCD d 901       3.854  -8.537  29.468  0.00  0.00     0.147 C 
ATOM     34  C2  GCD d 901       4.588 -10.769  31.253  0.00  0.00     0.111 C 
ATOM     35  O6B GCD d 901       3.652  -6.238  29.461  0.00  0.00    -0.642 OA
ATOM     36  C6  GCD d 901       3.615  -7.267  28.692  0.00  0.00     0.233 C 
ATOM     37  C3  GCD d 901       3.576 -10.946  30.067  0.00  0.00     0.084 C 
ATOM     38  O3  GCD d 901       2.539 -11.797  30.520  0.00  0.00    -0.389 OA
ATOM     39  O2  GCD d 901       5.150 -12.060  31.651  0.00  0.00    -0.388 OA
ATOM     40  C4  GCD d 901       3.253  -9.714  29.197  0.00  0.00    -0.034 C 
ATOM     41  H   GCD d 901       6.097 -10.290  29.892  0.00  0.00     0.134 H 
ATOM     42  H   GCD d 901       4.115 -10.372  32.127  0.00  0.00     0.095 H 
ATOM     43  H   GCD d 901       4.052 -11.444  29.247  0.00  0.00     0.093 H 
ATOM     44  H   GCD d 901       2.081 -11.379  31.265  0.00  0.00     0.210 HD
ATOM     45  H   GCD d 901       5.595 -12.467  30.890  0.00  0.00     0.210 HD
ATOM     46  H   GCD d 901       2.584  -9.790  28.415  0.00  0.00     0.085 H 
ENDROOT
TORSDOF 11
ENDMDL
MODEL 8
REMARK VINA RESULT:      -8.2      2.874      4.654
REMARK  0 active torsions:
REMARK  status: ('A' for Active; 'I' for Inactive)
REMARK       I    between atoms: C8_1  and  C7_18 
REMARK       I    between atoms: O6_4  and  C6_20 
REMARK       I    between atoms: C3_6  and  O3_22 
REMARK       I    between atoms: O1_7  and  C1_15 
REMARK       I    between atoms: O4_9  and  C4_11 
REMARK       I    between atoms: C1_10  and  O3_22 
REMARK       I    between atoms: C5_12  and  C6_17 
REMARK       I    between atoms: C2_13  and  O2_25 
REMARK       I    between atoms: C5_16  and  C6_20 
REMARK       I    between atoms: C7_18  and  N2_19 
REMARK       I    between atoms: N2_19  and  C2_23 
REMARK       I    between atoms: C3_21  and  O3_24 
ROOT
ATOM      1  C8  NAG d 902      -0.001 -11.543  34.277  0.00  0.00    -0.003 C 
ATOM      2  O6  NAG d 902       7.588 -10.394  30.712  0.00  0.00    -0.398 OA
ATOM      3  O7  NAG d 902       2.066 -10.268  34.542  0.00  0.00    -0.274 OA
ATOM      4  C3  NAG d 902       3.203 -10.843  30.954  0.00  0.00     0.093 C 
ATOM      5  O1  NAG d 902       4.319 -13.501  33.359  0.00  0.00    -0.369 OA
ATOM      6  O5  NAG d 902       5.545 -12.395  31.602  0.00  0.00    -0.349 OA
ATOM      7  O4  NAG d 902       4.528  -9.734  29.168  0.00  0.00    -0.390 OA
ATOM      8  C4  NAG d 902       4.605 -10.420  30.440  0.00  0.00     0.089 C 
ATOM      9  C1  NAG d 902       4.204 -12.804  32.124  0.00  0.00     0.151 C 
ATOM     10  C5  NAG d 902       5.473 -11.657  30.289  0.00  0.00     0.089 C 
ATOM     11  C7  NAG d 902       1.423 -11.161  33.925  0.00  0.00     0.214 C 
ATOM     12  N2  NAG d 902       1.929 -11.892  32.803  0.00  0.00    -0.349 N 
ATOM     13  C6  NAG d 902       6.871 -11.272  29.803  0.00  0.00     0.043 C 
ATOM     14  O3  NAG d 902       2.344  -9.690  31.129  0.00  0.00    -0.348 OA
ATOM     15  C2  NAG d 902       3.325 -11.559  32.305  0.00  0.00     0.087 C 
ATOM     16  H   NAG d 902      -0.328 -10.969  35.118  0.00  0.00     0.040 H 
ATOM     17  H   NAG d 902      -0.042 -12.584  34.518  0.00  0.00     0.040 H 
ATOM     18  H   NAG d 902      -0.640 -11.345  33.442  0.00  0.00     0.040 H 
ATOM     19  H   NAG d 902       8.462 -10.191  30.344  0.00  0.00     0.209 HD
ATOM     20  H   NAG d 902       2.778 -11.500  30.224  0.00  0.00     0.091 H 
ATOM     21  H   NAG d 902       4.875 -14.286  33.236  0.00  0.00     0.212 HD
ATOM     22  H   NAG d 902       3.974  -8.943  29.260  0.00  0.00     0.210 HD
ATOM     23  H   NAG d 902       5.028  -9.745  31.154  0.00  0.00     0.091 H 
ATOM     24  H   NAG d 902       3.753 -13.466  31.416  0.00  0.00     0.132 H 
ATOM     25  H   NAG d 902       5.036 -12.303  29.556  0.00  0.00     0.090 H 
ATOM     26  H   NAG d 902       1.389 -12.590  32.367  0.00  0.00     0.163 HD
ATOM     27  H   NAG d 902       7.443 -12.167  29.679  0.00  0.00     0.078 H 
ATOM     28  H   NAG d 902       6.745 -10.735  28.887  0.00  0.00     0.078 H 
ATOM     29  H   NAG d 902       3.792 -10.940  33.041  0.00  0.00     0.084 H 
ATOM     30  O6A GCD d 901      -0.558 -10.530  26.079  0.00  0.00    -0.642 OA
ATOM     31  O5  GCD d 901       1.463  -9.580  28.975  0.00  0.00    -0.311 OA
ATOM     32  C1  GCD d 901       1.112  -9.607  30.443  0.00  0.00     0.165 C 
ATOM     33  C5  GCD d 901       0.301  -9.459  28.025  0.00  0.00     0.147 C 
ATOM     34  C2  GCD d 901       0.373  -8.342  30.754  0.00  0.00     0.111 C 
ATOM     35  O6B GCD d 901       1.643  -9.748  26.169  0.00  0.00    -0.642 OA
ATOM     36  C6  GCD d 901       0.494 -10.057  26.654  0.00  0.00     0.233 C 
ATOM     37  C3  GCD d 901      -0.950  -8.406  29.913  0.00  0.00     0.084 C 
ATOM     38  O3  GCD d 901      -1.661  -7.206  30.154  0.00  0.00    -0.389 OA
ATOM     39  O2  GCD d 901       0.072  -8.228  32.183  0.00  0.00    -0.388 OA
ATOM     40  C4  GCD d 901      -0.879  -9.001  28.492  0.00  0.00    -0.034 C 
ATOM     41  H   GCD d 901       0.487 -10.427  30.729  0.00  0.00     0.134 H 
ATOM     42  H   GCD d 901       0.964  -7.485  30.509  0.00  0.00     0.095 H 
ATOM     43  H   GCD d 901      -1.567  -9.209  30.257  0.00  0.00     0.093 H 
ATOM     44  H   GCD d 901      -1.133  -6.451  29.854  0.00  0.00     0.210 HD
ATOM     45  H   GCD d 901      -0.465  -8.985  32.462  0.00  0.00     0.210 HD
ATOM     46  H   GCD d 901      -1.726  -9.049  27.904  0.00  0.00     0.085 H 
ENDROOT
TORSDOF 11
ENDMDL
MODEL 9
REMARK VINA RESULT:      -8.2      2.393      4.750
REMARK  0 active torsions:
REMARK  status: ('A' for Active; 'I' for Inactive)
REMARK       I    between atoms: C8_1  and  C7_18 
REMARK       I    between atoms: O6_4  and  C6_20 
REMARK       I    between atoms: C3_6  and  O3_22 
REMARK       I    between atoms: O1_7  and  C1_15 
REMARK       I    between atoms: O4_9  and  C4_11 
REMARK       I    between atoms: C1_10  and  O3_22 
REMARK       I    between atoms: C5_12  and  C6_17 
REMARK       I    between atoms: C2_13  and  O2_25 
REMARK       I    between atoms: C5_16  and  C6_20 
REMARK       I    between atoms: C7_18  and  N2_19 
REMARK       I    between atoms: N2_19  and  C2_23 
REMARK       I    between atoms: C3_21  and  O3_24 
ROOT
ATOM      1  C8  NAG d 902       9.632  -7.268  32.409  0.00  0.00    -0.003 C 
ATOM      2  O6  NAG d 902       8.414 -14.080  27.537  0.00  0.00    -0.398 OA
ATOM      3  O7  NAG d 902       9.985  -8.082  30.132  0.00  0.00    -0.274 OA
ATOM      4  C3  NAG d 902       7.460 -10.914  30.462  0.00  0.00     0.093 C 
ATOM      5  O1  NAG d 902      10.941 -11.834  31.527  0.00  0.00    -0.369 OA
ATOM      6  O5  NAG d 902       9.355 -13.070  30.195  0.00  0.00    -0.349 OA
ATOM      7  O4  NAG d 902       5.880 -12.236  29.073  0.00  0.00    -0.390 OA
ATOM      8  C4  NAG d 902       7.276 -12.005  29.374  0.00  0.00     0.089 C 
ATOM      9  C1  NAG d 902       9.560 -12.013  31.234  0.00  0.00     0.151 C 
ATOM     10  C5  NAG d 902       7.904 -13.300  29.856  0.00  0.00     0.089 C 
ATOM     11  C7  NAG d 902       9.611  -8.317  31.314  0.00  0.00     0.214 C 
ATOM     12  N2  NAG d 902       9.087  -9.572  31.763  0.00  0.00    -0.349 N 
ATOM     13  C6  NAG d 902       7.759 -14.392  28.796  0.00  0.00     0.043 C 
ATOM     14  O3  NAG d 902       6.889  -9.653  30.035  0.00  0.00    -0.348 OA
ATOM     15  C2  NAG d 902       8.951 -10.693  30.747  0.00  0.00     0.087 C 
ATOM     16  H   NAG d 902      10.030  -6.354  32.020  0.00  0.00     0.040 H 
ATOM     17  H   NAG d 902      10.243  -7.609  33.217  0.00  0.00     0.040 H 
ATOM     18  H   NAG d 902       8.635  -7.100  32.761  0.00  0.00     0.040 H 
ATOM     19  H   NAG d 902       8.282 -14.812  26.914  0.00  0.00     0.209 HD
ATOM     20  H   NAG d 902       6.961 -11.254  31.345  0.00  0.00     0.091 H 
ATOM     21  H   NAG d 902      11.318 -12.672  31.834  0.00  0.00     0.212 HD
ATOM     22  H   NAG d 902       5.474 -11.410  28.764  0.00  0.00     0.210 HD
ATOM     23  H   NAG d 902       7.754 -11.662  28.479  0.00  0.00     0.091 H 
ATOM     24  H   NAG d 902       9.074 -12.327  32.134  0.00  0.00     0.132 H 
ATOM     25  H   NAG d 902       7.395 -13.627  30.739  0.00  0.00     0.090 H 
ATOM     26  H   NAG d 902       8.823  -9.705  32.702  0.00  0.00     0.163 HD
ATOM     27  H   NAG d 902       8.184 -15.295  29.182  0.00  0.00     0.078 H 
ATOM     28  H   NAG d 902       6.714 -14.487  28.588  0.00  0.00     0.078 H 
ATOM     29  H   NAG d 902       9.483 -10.398  29.867  0.00  0.00     0.084 H 
ATOM     30  O6A GCD d 901       1.970 -10.304  33.201  0.00  0.00    -0.642 OA
ATOM     31  O5  GCD d 901       4.714  -9.978  30.804  0.00  0.00    -0.311 OA
ATOM     32  C1  GCD d 901       5.886  -9.026  30.808  0.00  0.00     0.165 C 
ATOM     33  C5  GCD d 901       3.488  -9.512  31.545  0.00  0.00     0.147 C 
ATOM     34  C2  GCD d 901       5.424  -7.737  30.201  0.00  0.00     0.111 C 
ATOM     35  O6B GCD d 901       2.410 -11.533  31.261  0.00  0.00    -0.642 OA
ATOM     36  C6  GCD d 901       2.601 -10.591  32.113  0.00  0.00     0.233 C 
ATOM     37  C3  GCD d 901       4.318  -7.186  31.168  0.00  0.00     0.084 C 
ATOM     38  O3  GCD d 901       3.830  -5.981  30.607  0.00  0.00    -0.389 OA
ATOM     39  O2  GCD d 901       6.521  -6.777  30.070  0.00  0.00    -0.388 OA
ATOM     40  C4  GCD d 901       3.348  -8.197  31.814  0.00  0.00    -0.034 C 
ATOM     41  H   GCD d 901       6.269  -8.808  31.783  0.00  0.00     0.134 H 
ATOM     42  H   GCD d 901       5.051  -7.894  29.211  0.00  0.00     0.095 H 
ATOM     43  H   GCD d 901       4.746  -6.938  32.116  0.00  0.00     0.093 H 
ATOM     44  H   GCD d 901       3.431  -6.165  29.742  0.00  0.00     0.210 HD
ATOM     45  H   GCD d 901       6.900  -6.597  30.945  0.00  0.00     0.210 HD
ATOM     46  H   GCD d 901       2.600  -7.871  32.445  0.00  0.00     0.085 H 
ENDROOT
TORSDOF 11
ENDMDL
MODEL 10
REMARK VINA RESULT:      -8.2      2.139      4.083
REMARK  0 active torsions:
REMARK  status: ('A' for Active; 'I' for Inactive)
REMARK       I    between atoms: C8_1  and  C7_18 
REMARK       I    between atoms: O6_4  and  C6_20 
REMARK       I    between atoms: C3_6  and  O3_22 
REMARK       I    between atoms: O1_7  and  C1_15 
REMARK       I    between atoms: O4_9  and  C4_11 
REMARK       I    between atoms: C1_10  and  O3_22 
REMARK       I    between atoms: C5_12  and  C6_17 
REMARK       I    between atoms: C2_13  and  O2_25 
REMARK       I    between atoms: C5_16  and  C6_20 
REMARK       I    between atoms: C7_18  and  N2_19 
REMARK       I    between atoms: N2_19  and  C2_23 
REMARK       I    between atoms: C3_21  and  O3_24 
ROOT
ATOM      1  C8  NAG d 902      11.537 -12.041  30.437  0.00  0.00    -0.003 C 
ATOM      2  O6  NAG d 902       8.631  -4.646  33.351  0.00  0.00    -0.398 OA
ATOM      3  O7  NAG d 902      11.715 -10.534  32.352  0.00  0.00    -0.274 OA
ATOM      4  C3  NAG d 902       8.503  -8.662  31.525  0.00  0.00     0.093 C 
ATOM      5  O1  NAG d 902      11.569  -7.241  29.889  0.00  0.00    -0.369 OA
ATOM      6  O5  NAG d 902       9.742  -6.115  30.989  0.00  0.00    -0.349 OA
ATOM      7  O4  NAG d 902       6.659  -7.439  32.655  0.00  0.00    -0.390 OA
ATOM      8  C4  NAG d 902       8.057  -7.385  32.285  0.00  0.00     0.089 C 
ATOM      9  C1  NAG d 902      10.200  -7.341  30.264  0.00  0.00     0.151 C 
ATOM     10  C5  NAG d 902       8.293  -6.173  31.402  0.00  0.00     0.089 C 
ATOM     11  C7  NAG d 902      11.259 -10.759  31.197  0.00  0.00     0.214 C 
ATOM     12  N2  NAG d 902      10.400  -9.866  30.478  0.00  0.00    -0.349 N 
ATOM     13  C6  NAG d 902       7.883  -4.893  32.131  0.00  0.00     0.043 C 
ATOM     14  O3  NAG d 902       8.310  -9.845  32.338  0.00  0.00    -0.348 OA
ATOM     15  C2  NAG d 902       9.989  -8.571  31.156  0.00  0.00     0.087 C 
ATOM     16  H   NAG d 902      12.181 -12.667  31.017  0.00  0.00     0.040 H 
ATOM     17  H   NAG d 902      12.010 -11.808  29.506  0.00  0.00     0.040 H 
ATOM     18  H   NAG d 902      10.615 -12.552  30.251  0.00  0.00     0.040 H 
ATOM     19  H   NAG d 902       8.321  -3.822  33.759  0.00  0.00     0.209 HD
ATOM     20  H   NAG d 902       7.906  -8.735  30.640  0.00  0.00     0.091 H 
ATOM     21  H   NAG d 902      11.693  -6.462  29.325  0.00  0.00     0.212 HD
ATOM     22  H   NAG d 902       6.504  -8.213  33.219  0.00  0.00     0.210 HD
ATOM     23  H   NAG d 902       8.634  -7.317  33.184  0.00  0.00     0.091 H 
ATOM     24  H   NAG d 902       9.623  -7.439  29.369  0.00  0.00     0.132 H 
ATOM     25  H   NAG d 902       7.690  -6.259  30.522  0.00  0.00     0.090 H 
ATOM     26  H   NAG d 902      10.084 -10.086  29.572  0.00  0.00     0.163 HD
ATOM     27  H   NAG d 902       8.033  -4.066  31.470  0.00  0.00     0.078 H 
ATOM     28  H   NAG d 902       6.857  -5.011  32.413  0.00  0.00     0.078 H 
ATOM     29  H   NAG d 902      10.605  -8.449  32.023  0.00  0.00     0.084 H 
ATOM     30  O6A GCD d 901       3.318 -11.422  29.650  0.00  0.00    -0.642 OA
ATOM     31  O5  GCD d 901       6.110 -10.324  31.743  0.00  0.00    -0.311 OA
ATOM     32  C1  GCD d 901       7.497 -10.904  31.877  0.00  0.00     0.165 C 
ATOM     33  C5  GCD d 901       5.039 -11.282  31.291  0.00  0.00     0.147 C 
ATOM     34  C2  GCD d 901       7.423 -12.032  32.859  0.00  0.00     0.111 C 
ATOM     35  O6B GCD d 901       3.457  -9.610  31.121  0.00  0.00    -0.642 OA
ATOM     36  C6  GCD d 901       3.875 -10.680  30.545  0.00  0.00     0.233 C 
ATOM     37  C3  GCD d 901       6.484 -13.104  32.203  0.00  0.00     0.084 C 
ATOM     38  O3  GCD d 901       6.359 -14.175  33.121  0.00  0.00    -0.389 OA
ATOM     39  O2  GCD d 901       8.744 -12.600  33.133  0.00  0.00    -0.388 OA
ATOM     40  C4  GCD d 901       5.257 -12.608  31.410  0.00  0.00    -0.034 C 
ATOM     41  H   GCD d 901       7.899 -11.293  30.965  0.00  0.00     0.134 H 
ATOM     42  H   GCD d 901       7.047 -11.693  33.802  0.00  0.00     0.095 H 
ATOM     43  H   GCD d 901       6.938 -13.502  31.320  0.00  0.00     0.093 H 
ATOM     44  H   GCD d 901       5.949 -13.854  33.939  0.00  0.00     0.210 HD
ATOM     45  H   GCD d 901       9.134 -12.925  32.306  0.00  0.00     0.210 HD
ATOM     46  H   GCD d 901       4.611 -13.284  30.974  0.00  0.00     0.085 H 
ENDROOT
TORSDOF 11
ENDMDL
MODEL 11
REMARK VINA RESULT:      -8.1      3.924      8.085
REMARK  0 active torsions:
REMARK  status: ('A' for Active; 'I' for Inactive)
REMARK       I    between atoms: C8_1  and  C7_18 
REMARK       I    between atoms: O6_4  and  C6_20 
REMARK       I    between atoms: C3_6  and  O3_22 
REMARK       I    between atoms: O1_7  and  C1_15 
REMARK       I    between atoms: O4_9  and  C4_11 
REMARK       I    between atoms: C1_10  and  O3_22 
REMARK       I    between atoms: C5_12  and  C6_17 
REMARK       I    between atoms: C2_13  and  O2_25 
REMARK       I    between atoms: C5_16  and  C6_20 
REMARK       I    between atoms: C7_18  and  N2_19 
REMARK       I    between atoms: N2_19  and  C2_23 
REMARK       I    between atoms: C3_21  and  O3_24 
ROOT
ATOM      1  C8  NAG d 902       2.638 -11.641  26.798  0.00  0.00    -0.003 C 
ATOM      2  O6  NAG d 902      -1.427  -5.467  30.918  0.00  0.00    -0.398 OA
ATOM      3  O7  NAG d 902       2.726  -9.235  27.212  0.00  0.00    -0.274 OA
ATOM      4  C3  NAG d 902       0.464  -9.403  30.270  0.00  0.00     0.093 C 
ATOM      5  O1  NAG d 902      -1.375  -8.962  27.028  0.00  0.00    -0.369 OA
ATOM      6  O5  NAG d 902      -1.706  -7.870  29.152  0.00  0.00    -0.349 OA
ATOM      7  O4  NAG d 902       0.076  -8.231  32.427  0.00  0.00    -0.390 OA
ATOM      8  C4  NAG d 902      -0.069  -8.136  30.991  0.00  0.00     0.089 C 
ATOM      9  C1  NAG d 902      -1.189  -9.076  28.433  0.00  0.00     0.151 C 
ATOM     10  C5  NAG d 902      -1.536  -7.949  30.649  0.00  0.00     0.089 C 
ATOM     11  C7  NAG d 902       2.118 -10.331  27.355  0.00  0.00     0.214 C 
ATOM     12  N2  NAG d 902       0.896 -10.488  28.085  0.00  0.00    -0.349 N 
ATOM     13  C6  NAG d 902      -2.088  -6.694  31.326  0.00  0.00     0.043 C 
ATOM     14  O3  NAG d 902       1.868  -9.611  30.557  0.00  0.00    -0.348 OA
ATOM     15  C2  NAG d 902       0.300  -9.261  28.753  0.00  0.00     0.087 C 
ATOM     16  H   NAG d 902       3.548 -11.466  26.264  0.00  0.00     0.040 H 
ATOM     17  H   NAG d 902       1.911 -12.060  26.134  0.00  0.00     0.040 H 
ATOM     18  H   NAG d 902       2.823 -12.322  27.601  0.00  0.00     0.040 H 
ATOM     19  H   NAG d 902      -1.825  -4.715  31.384  0.00  0.00     0.209 HD
ATOM     20  H   NAG d 902      -0.102 -10.237  30.628  0.00  0.00     0.091 H 
ATOM     21  H   NAG d 902      -2.318  -8.845  26.835  0.00  0.00     0.212 HD
ATOM     22  H   NAG d 902       1.013  -8.351  32.651  0.00  0.00     0.210 HD
ATOM     23  H   NAG d 902       0.508  -7.299  30.656  0.00  0.00     0.091 H 
ATOM     24  H   NAG d 902      -1.740  -9.930  28.767  0.00  0.00     0.132 H 
ATOM     25  H   NAG d 902      -2.089  -8.791  31.012  0.00  0.00     0.090 H 
ATOM     26  H   NAG d 902       0.455 -11.366  28.153  0.00  0.00     0.163 HD
ATOM     27  H   NAG d 902      -3.127  -6.612  31.089  0.00  0.00     0.078 H 
ATOM     28  H   NAG d 902      -1.915  -6.806  32.376  0.00  0.00     0.078 H 
ATOM     29  H   NAG d 902       0.818  -8.404  28.376  0.00  0.00     0.084 H 
ATOM     30  O6A GCD d 901       0.884 -13.769  34.604  0.00  0.00    -0.642 OA
ATOM     31  O5  GCD d 901       1.646 -10.875  32.501  0.00  0.00    -0.311 OA
ATOM     32  C1  GCD d 901       2.306 -10.819  31.145  0.00  0.00     0.165 C 
ATOM     33  C5  GCD d 901       1.988 -12.071  33.349  0.00  0.00     0.147 C 
ATOM     34  C2  GCD d 901       3.788 -10.840  31.362  0.00  0.00     0.111 C 
ATOM     35  O6B GCD d 901       0.452 -11.501  34.975  0.00  0.00    -0.642 OA
ATOM     36  C6  GCD d 901       0.941 -12.507  34.343  0.00  0.00     0.233 C 
ATOM     37  C3  GCD d 901       4.099 -12.229  32.023  0.00  0.00     0.084 C 
ATOM     38  O3  GCD d 901       5.491 -12.273  32.277  0.00  0.00    -0.389 OA
ATOM     39  O2  GCD d 901       4.522 -10.691  30.104  0.00  0.00    -0.388 OA
ATOM     40  C4  GCD d 901       3.097 -12.782  33.058  0.00  0.00    -0.034 C 
ATOM     41  H   GCD d 901       2.059 -11.639  30.504  0.00  0.00     0.134 H 
ATOM     42  H   GCD d 901       4.095 -10.023  31.980  0.00  0.00     0.095 H 
ATOM     43  H   GCD d 901       3.882 -13.021  31.337  0.00  0.00     0.093 H 
ATOM     44  H   GCD d 901       5.729 -11.567  32.898  0.00  0.00     0.210 HD
ATOM     45  H   GCD d 901       4.280 -11.411  29.500  0.00  0.00     0.210 HD
ATOM     46  H   GCD d 901       3.274 -13.686  33.522  0.00  0.00     0.085 H 
ENDROOT
TORSDOF 11
ENDMDL
MODEL 12
REMARK VINA RESULT:      -8.1      2.652      5.860
REMARK  0 active torsions:
REMARK  status: ('A' for Active; 'I' for Inactive)
REMARK       I    between atoms: C8_1  and  C7_18 
REMARK       I    between atoms: O6_4  and  C6_20 
REMARK       I    between atoms: C3_6  and  O3_22 
REMARK       I    between atoms: O1_7  and  C1_15 
REMARK       I    between atoms: O4_9  and  C4_11 
REMARK       I    between atoms: C1_10  and  O3_22 
REMARK       I    between atoms: C5_12  and  C6_17 
REMARK       I    between atoms: C2_13  and  O2_25 
REMARK       I    between atoms: C5_16  and  C6_20 
REMARK       I    between atoms: C7_18  and  N2_19 
REMARK       I    between atoms: N2_19  and  C2_23 
REMARK       I    between atoms: C3_21  and  O3_24 
ROOT
ATOM      1  C8  NAG d 902       2.880 -11.081  27.097  0.00  0.00    -0.003 C 
ATOM      2  O6  NAG d 902       8.041  -5.352  30.584  0.00  0.00    -0.398 OA
ATOM      3  O7  NAG d 902       4.658  -9.507  26.525  0.00  0.00    -0.274 OA
ATOM      4  C3  NAG d 902       5.896  -9.182  30.111  0.00  0.00     0.093 C 
ATOM      5  O1  NAG d 902       3.193  -6.742  29.198  0.00  0.00    -0.369 OA
ATOM      6  O5  NAG d 902       5.237  -6.394  30.430  0.00  0.00    -0.349 OA
ATOM      7  O4  NAG d 902       7.990  -8.750  31.379  0.00  0.00    -0.390 OA
ATOM      8  C4  NAG d 902       6.977  -8.152  30.536  0.00  0.00     0.089 C 
ATOM      9  C1  NAG d 902       4.188  -7.370  29.998  0.00  0.00     0.151 C 
ATOM     10  C5  NAG d 902       6.311  -7.013  31.288  0.00  0.00     0.089 C 
ATOM     11  C7  NAG d 902       3.875  -9.978  27.395  0.00  0.00     0.214 C 
ATOM     12  N2  NAG d 902       3.851  -9.569  28.767  0.00  0.00    -0.349 N 
ATOM     13  C6  NAG d 902       7.347  -5.968  31.702  0.00  0.00     0.043 C 
ATOM     14  O3  NAG d 902       6.487 -10.280  29.375  0.00  0.00    -0.348 OA
ATOM     15  C2  NAG d 902       4.847  -8.513  29.216  0.00  0.00     0.087 C 
ATOM     16  H   NAG d 902       2.940 -11.347  26.063  0.00  0.00     0.040 H 
ATOM     17  H   NAG d 902       1.891 -10.739  27.320  0.00  0.00     0.040 H 
ATOM     18  H   NAG d 902       3.105 -11.937  27.698  0.00  0.00     0.040 H 
ATOM     19  H   NAG d 902       8.679  -4.703  30.918  0.00  0.00     0.209 HD
ATOM     20  H   NAG d 902       5.439  -9.553  31.004  0.00  0.00     0.091 H 
ATOM     21  H   NAG d 902       2.782  -6.021  29.699  0.00  0.00     0.212 HD
ATOM     22  H   NAG d 902       8.418  -9.479  30.902  0.00  0.00     0.210 HD
ATOM     23  H   NAG d 902       7.456  -7.792  29.649  0.00  0.00     0.091 H 
ATOM     24  H   NAG d 902       3.708  -7.758  30.871  0.00  0.00     0.132 H 
ATOM     25  H   NAG d 902       5.858  -7.400  32.177  0.00  0.00     0.090 H 
ATOM     26  H   NAG d 902       3.208  -9.961  29.402  0.00  0.00     0.163 HD
ATOM     27  H   NAG d 902       6.848  -5.200  32.254  0.00  0.00     0.078 H 
ATOM     28  H   NAG d 902       8.086  -6.477  32.285  0.00  0.00     0.078 H 
ATOM     29  H   NAG d 902       5.287  -8.090  28.337  0.00  0.00     0.084 H 
ATOM     30  O6A GCD d 901       6.484 -13.950  33.976  0.00  0.00    -0.642 OA
ATOM     31  O5  GCD d 901       7.020 -11.661  31.174  0.00  0.00    -0.311 OA
ATOM     32  C1  GCD d 901       6.334 -11.609  29.830  0.00  0.00     0.165 C 
ATOM     33  C5  GCD d 901       7.023 -13.003  31.858  0.00  0.00     0.147 C 
ATOM     34  C2  GCD d 901       7.016 -12.597  28.936  0.00  0.00     0.111 C 
ATOM     35  O6B GCD d 901       7.958 -12.145  33.786  0.00  0.00    -0.642 OA
ATOM     36  C6  GCD d 901       7.081 -12.985  33.365  0.00  0.00     0.233 C 
ATOM     37  C3  GCD d 901       6.760 -14.003  29.585  0.00  0.00     0.084 C 
ATOM     38  O3  GCD d 901       7.423 -14.964  28.784  0.00  0.00    -0.389 OA
ATOM     39  O2  GCD d 901       6.484 -12.552  27.573  0.00  0.00    -0.388 OA
ATOM     40  C4  GCD d 901       6.793 -14.111  31.123  0.00  0.00    -0.034 C 
ATOM     41  H   GCD d 901       5.295 -11.860  29.860  0.00  0.00     0.134 H 
ATOM     42  H   GCD d 901       8.060 -12.379  28.851  0.00  0.00     0.095 H 
ATOM     43  H   GCD d 901       5.717 -14.238  29.555  0.00  0.00     0.093 H 
ATOM     44  H   GCD d 901       8.376 -14.785  28.785  0.00  0.00     0.210 HD
ATOM     45  H   GCD d 901       5.533 -12.745  27.590  0.00  0.00     0.210 HD
ATOM     46  H   GCD d 901       6.641 -15.021  31.585  0.00  0.00     0.085 H 
ENDROOT
TORSDOF 11
ENDMDL
MODEL 13
REMARK VINA RESULT:      -8.1      3.771      6.093
REMARK  0 active torsions:
REMARK  status: ('A' for Active; 'I' for Inactive)
REMARK       I    between atoms: C8_1  and  C7_18 
REMARK       I    between atoms: O6_4  and  C6_20 
REMARK       I    between atoms: C3_6  and  O3_22 
REMARK       I    between atoms: O1_7  and  C1_15 
REMARK       I    between atoms: O4_9  and  C4_11 
REMARK       I    between atoms: C1_10  and  O3_22 
REMARK       I    between atoms: C5_12  and  C6_17 
REMARK       I    between atoms: C2_13  and  O2_25 
REMARK       I    between atoms: C5_16  and  C6_20 
REMARK       I    between atoms: C7_18  and  N2_19 
REMARK       I    between atoms: N2_19  and  C2_23 
REMARK       I    between atoms: C3_21  and  O3_24 
ROOT
ATOM      1  C8  NAG d 902      -0.722  -7.267  32.012  0.00  0.00    -0.003 C 
ATOM      2  O6  NAG d 902       6.056 -12.191  33.208  0.00  0.00    -0.398 OA
ATOM      3  O7  NAG d 902       1.550  -7.213  32.911  0.00  0.00    -0.274 OA
ATOM      4  C3  NAG d 902       2.638 -10.373  31.087  0.00  0.00     0.093 C 
ATOM      5  O1  NAG d 902       1.121 -11.000  34.463  0.00  0.00    -0.369 OA
ATOM      6  O5  NAG d 902       3.079 -11.973  33.444  0.00  0.00    -0.349 OA
ATOM      7  O4  NAG d 902       4.672 -11.407  30.102  0.00  0.00    -0.390 OA
ATOM      8  C4  NAG d 902       4.008 -11.058  31.339  0.00  0.00     0.089 C 
ATOM      9  C1  NAG d 902       1.760 -11.300  33.228  0.00  0.00     0.151 C 
ATOM     10  C5  NAG d 902       3.791 -12.317  32.161  0.00  0.00     0.089 C 
ATOM     11  C7  NAG d 902       0.604  -7.884  32.413  0.00  0.00     0.214 C 
ATOM     12  N2  NAG d 902       0.669  -9.285  32.126  0.00  0.00    -0.349 N 
ATOM     13  C6  NAG d 902       5.125 -13.006  32.446  0.00  0.00     0.043 C 
ATOM     14  O3  NAG d 902       2.801  -9.157  30.318  0.00  0.00    -0.348 OA
ATOM     15  C2  NAG d 902       1.970 -10.014  32.419  0.00  0.00     0.087 C 
ATOM     16  H   NAG d 902      -0.716  -6.224  32.249  0.00  0.00     0.040 H 
ATOM     17  H   NAG d 902      -1.514  -7.748  32.545  0.00  0.00     0.040 H 
ATOM     18  H   NAG d 902      -0.870  -7.393  30.960  0.00  0.00     0.040 H 
ATOM     19  H   NAG d 902       6.877 -12.688  33.352  0.00  0.00     0.209 HD
ATOM     20  H   NAG d 902       2.030 -11.064  30.541  0.00  0.00     0.091 H 
ATOM     21  H   NAG d 902       0.992 -11.818  34.967  0.00  0.00     0.212 HD
ATOM     22  H   NAG d 902       4.813 -10.605  29.574  0.00  0.00     0.210 HD
ATOM     23  H   NAG d 902       4.632 -10.366  31.865  0.00  0.00     0.091 H 
ATOM     24  H   NAG d 902       1.125 -11.970  32.686  0.00  0.00     0.132 H 
ATOM     25  H   NAG d 902       3.181 -12.997  31.603  0.00  0.00     0.090 H 
ATOM     26  H   NAG d 902      -0.105  -9.762  31.749  0.00  0.00     0.163 HD
ATOM     27  H   NAG d 902       4.931 -13.901  32.998  0.00  0.00     0.078 H 
ATOM     28  H   NAG d 902       5.584 -13.199  31.499  0.00  0.00     0.078 H 
ATOM     29  H   NAG d 902       2.581  -9.361  33.007  0.00  0.00     0.084 H 
ATOM     30  O6A GCD d 901       1.168 -11.625  25.231  0.00  0.00    -0.642 OA
ATOM     31  O5  GCD d 901       2.676 -10.073  28.180  0.00  0.00    -0.311 OA
ATOM     32  C1  GCD d 901       2.129  -8.996  29.085  0.00  0.00     0.165 C 
ATOM     33  C5  GCD d 901       2.132 -10.089  26.776  0.00  0.00     0.147 C 
ATOM     34  C2  GCD d 901       2.426  -7.675  28.446  0.00  0.00     0.111 C 
ATOM     35  O6B GCD d 901       3.226 -12.053  26.253  0.00  0.00    -0.642 OA
ATOM     36  C6  GCD d 901       2.118 -11.427  26.080  0.00  0.00     0.233 C 
ATOM     37  C3  GCD d 901       1.620  -7.666  27.099  0.00  0.00     0.084 C 
ATOM     38  O3  GCD d 901       1.904  -6.442  26.446  0.00  0.00    -0.389 OA
ATOM     39  O2  GCD d 901       2.019  -6.556  29.298  0.00  0.00    -0.388 OA
ATOM     40  C4  GCD d 901       1.533  -8.980  26.296  0.00  0.00    -0.034 C 
ATOM     41  H   GCD d 901       1.073  -9.051  29.243  0.00  0.00     0.134 H 
ATOM     42  H   GCD d 901       3.477  -7.555  28.285  0.00  0.00     0.095 H 
ATOM     43  H   GCD d 901       0.569  -7.677  27.298  0.00  0.00     0.093 H 
ATOM     44  H   GCD d 901       2.852  -6.394  26.247  0.00  0.00     0.210 HD
ATOM     45  H   GCD d 901       1.068  -6.615  29.477  0.00  0.00     0.210 HD
ATOM     46  H   GCD d 901       1.022  -9.009  25.400  0.00  0.00     0.085 H 
ENDROOT
TORSDOF 11
ENDMDL
MODEL 14
REMARK VINA RESULT:      -8.0      2.566      6.504
REMARK  0 active torsions:
REMARK  status: ('A' for Active; 'I' for Inactive)
REMARK       I    between atoms: C8_1  and  C7_18 
REMARK       I    between atoms: O6_4  and  C6_20 
REMARK       I    between atoms: C3_6  and  O3_22 
REMARK       I    between atoms: O1_7  and  C1_15 
REMARK       I    between atoms: O4_9  and  C4_11 
REMARK       I    between atoms: C1_10  and  O3_22 
REMARK       I    between atoms: C5_12  and  C6_17 
REMARK       I    between atoms: C2_13  and  O2_25 
REMARK       I    between atoms: C5_16  and  C6_20 
REMARK       I    between atoms: C7_18  and  N2_19 
REMARK       I    between atoms: N2_19  and  C2_23 
REMARK       I    between atoms: C3_21  and  O3_24 
ROOT
ATOM      1  C8  NAG d 902       3.371  -6.095  31.363  0.00  0.00    -0.003 C 
ATOM      2  O6  NAG d 902       6.417 -13.954  32.130  0.00  0.00    -0.398 OA
ATOM      3  O7  NAG d 902       3.349  -8.019  32.869  0.00  0.00    -0.274 OA
ATOM      4  C3  NAG d 902       6.438  -9.615  31.317  0.00  0.00     0.093 C 
ATOM      5  O1  NAG d 902       3.210 -10.623  29.686  0.00  0.00    -0.369 OA
ATOM      6  O5  NAG d 902       5.114 -11.967  30.306  0.00  0.00    -0.349 OA
ATOM      7  O4  NAG d 902       8.360 -11.061  31.940  0.00  0.00    -0.390 OA
ATOM      8  C4  NAG d 902       6.933 -11.034  31.702  0.00  0.00     0.089 C 
ATOM      9  C1  NAG d 902       4.609 -10.606  29.942  0.00  0.00     0.151 C 
ATOM     10  C5  NAG d 902       6.596 -12.000  30.581  0.00  0.00     0.089 C 
ATOM     11  C7  NAG d 902       3.697  -7.520  31.764  0.00  0.00     0.214 C 
ATOM     12  N2  NAG d 902       4.471  -8.208  30.775  0.00  0.00    -0.349 N 
ATOM     13  C6  NAG d 902       7.052 -13.415  30.939  0.00  0.00     0.043 C 
ATOM     14  O3  NAG d 902       6.725  -8.661  32.368  0.00  0.00    -0.348 OA
ATOM     15  C2  NAG d 902       4.923  -9.626  31.080  0.00  0.00     0.087 C 
ATOM     16  H   NAG d 902       2.794  -5.631  32.135  0.00  0.00     0.040 H 
ATOM     17  H   NAG d 902       2.809  -6.101  30.453  0.00  0.00     0.040 H 
ATOM     18  H   NAG d 902       4.279  -5.548  31.219  0.00  0.00     0.040 H 
ATOM     19  H   NAG d 902       6.750 -14.849  32.297  0.00  0.00     0.209 HD
ATOM     20  H   NAG d 902       6.950  -9.328  30.422  0.00  0.00     0.091 H 
ATOM     21  H   NAG d 902       3.021 -11.244  28.966  0.00  0.00     0.212 HD
ATOM     22  H   NAG d 902       8.580 -10.444  32.657  0.00  0.00     0.210 HD
ATOM     23  H   NAG d 902       6.442 -11.320  32.609  0.00  0.00     0.091 H 
ATOM     24  H   NAG d 902       5.102 -10.292  29.046  0.00  0.00     0.132 H 
ATOM     25  H   NAG d 902       7.115 -11.701  29.694  0.00  0.00     0.090 H 
ATOM     26  H   NAG d 902       4.704  -7.774  29.922  0.00  0.00     0.163 HD
ATOM     27  H   NAG d 902       6.827 -14.060  30.116  0.00  0.00     0.078 H 
ATOM     28  H   NAG d 902       8.101 -13.362  31.143  0.00  0.00     0.078 H 
ATOM     29  H   NAG d 902       4.388  -9.956  31.946  0.00  0.00     0.084 H 
ATOM     30  O6A GCD d 901      11.469  -6.449  29.677  0.00  0.00    -0.642 OA
ATOM     31  O5  GCD d 901       8.868  -8.038  31.700  0.00  0.00    -0.311 OA
ATOM     32  C1  GCD d 901       7.509  -7.516  32.100  0.00  0.00     0.165 C 
ATOM     33  C5  GCD d 901       9.907  -6.992  31.392  0.00  0.00     0.147 C 
ATOM     34  C2  GCD d 901       7.693  -6.657  33.312  0.00  0.00     0.111 C 
ATOM     35  O6B GCD d 901      11.439  -8.563  30.676  0.00  0.00    -0.642 OA
ATOM     36  C6  GCD d 901      10.986  -7.389  30.416  0.00  0.00     0.233 C 
ATOM     37  C3  GCD d 901       8.583  -5.452  32.847  0.00  0.00     0.084 C 
ATOM     38  O3  GCD d 901       8.810  -4.633  33.979  0.00  0.00    -0.389 OA
ATOM     39  O2  GCD d 901       6.412  -6.181  33.838  0.00  0.00    -0.388 OA
ATOM     40  C4  GCD d 901       9.722  -5.735  31.845  0.00  0.00    -0.034 C 
ATOM     41  H   GCD d 901       7.029  -6.923  31.350  0.00  0.00     0.134 H 
ATOM     42  H   GCD d 901       8.149  -7.210  34.106  0.00  0.00     0.095 H 
ATOM     43  H   GCD d 901       8.054  -4.857  32.132  0.00  0.00     0.093 H 
ATOM     44  H   GCD d 901       9.290  -5.138  34.653  0.00  0.00     0.210 HD
ATOM     45  H   GCD d 901       5.952  -5.669  33.155  0.00  0.00     0.210 HD
ATOM     46  H   GCD d 901      10.336  -4.969  31.525  0.00  0.00     0.085 H 
ENDROOT
TORSDOF 11
ENDMDL
MODEL 15
REMARK VINA RESULT:      -8.0      2.477      2.854
REMARK  0 active torsions:
REMARK  status: ('A' for Active; 'I' for Inactive)
REMARK       I    between atoms: C8_1  and  C7_18 
REMARK       I    between atoms: O6_4  and  C6_20 
REMARK       I    between atoms: C3_6  and  O3_22 
REMARK       I    between atoms: O1_7  and  C1_15 
REMARK       I    between atoms: O4_9  and  C4_11 
REMARK       I    between atoms: C1_10  and  O3_22 
REMARK       I    between atoms: C5_12  and  C6_17 
REMARK       I    between atoms: C2_13  and  O2_25 
REMARK       I    between atoms: C5_16  and  C6_20 
REMARK       I    between atoms: C7_18  and  N2_19 
REMARK       I    between atoms: N2_19  and  C2_23 
REMARK       I    between atoms: C3_21  and  O3_24 
ROOT
ATOM      1  C8  NAG d 902       2.411 -13.001  31.840  0.00  0.00    -0.003 C 
ATOM      2  O6  NAG d 902      10.007  -9.272  31.937  0.00  0.00    -0.398 OA
ATOM      3  O7  NAG d 902       4.267 -12.474  33.340  0.00  0.00    -0.274 OA
ATOM      4  C3  NAG d 902       5.715  -9.798  31.050  0.00  0.00     0.093 C 
ATOM      5  O1  NAG d 902       7.006 -13.258  30.371  0.00  0.00    -0.369 OA
ATOM      6  O5  NAG d 902       8.192 -11.161  30.486  0.00  0.00    -0.349 OA
ATOM      7  O4  NAG d 902       7.001  -7.675  31.166  0.00  0.00    -0.390 OA
ATOM      8  C4  NAG d 902       7.080  -9.112  31.320  0.00  0.00     0.089 C 
ATOM      9  C1  NAG d 902       6.884 -11.846  30.241  0.00  0.00     0.151 C 
ATOM     10  C5  NAG d 902       8.114  -9.661  30.353  0.00  0.00     0.089 C 
ATOM     11  C7  NAG d 902       3.793 -12.471  32.170  0.00  0.00     0.214 C 
ATOM     12  N2  NAG d 902       4.468 -11.940  31.025  0.00  0.00    -0.349 N 
ATOM     13  C6  NAG d 902       9.478  -9.020  30.607  0.00  0.00     0.043 C 
ATOM     14  O3  NAG d 902       4.701  -9.314  31.964  0.00  0.00    -0.348 OA
ATOM     15  C2  NAG d 902       5.838 -11.316  31.230  0.00  0.00     0.087 C 
ATOM     16  H   NAG d 902       1.954 -13.384  32.728  0.00  0.00     0.040 H 
ATOM     17  H   NAG d 902       2.493 -13.783  31.115  0.00  0.00     0.040 H 
ATOM     18  H   NAG d 902       1.810 -12.208  31.445  0.00  0.00     0.040 H 
ATOM     19  H   NAG d 902      10.870  -8.838  32.029  0.00  0.00     0.209 HD
ATOM     20  H   NAG d 902       5.432  -9.566  30.044  0.00  0.00     0.091 H 
ATOM     21  H   NAG d 902       7.668 -13.584  29.743  0.00  0.00     0.212 HD
ATOM     22  H   NAG d 902       6.341  -7.320  31.783  0.00  0.00     0.210 HD
ATOM     23  H   NAG d 902       7.360  -9.320  32.332  0.00  0.00     0.091 H 
ATOM     24  H   NAG d 902       6.576 -11.636  29.239  0.00  0.00     0.132 H 
ATOM     25  H   NAG d 902       7.818  -9.422  29.353  0.00  0.00     0.090 H 
ATOM     26  H   NAG d 902       4.056 -11.976  30.131  0.00  0.00     0.163 HD
ATOM     27  H   NAG d 902      10.171  -9.407  29.890  0.00  0.00     0.078 H 
ATOM     28  H   NAG d 902       9.346  -7.962  30.520  0.00  0.00     0.078 H 
ATOM     29  H   NAG d 902       6.167 -11.574  32.215  0.00  0.00     0.084 H 
ATOM     30  O6A GCD d 901       2.291  -5.643  28.045  0.00  0.00    -0.642 OA
ATOM     31  O5  GCD d 901       3.963  -7.482  30.729  0.00  0.00    -0.311 OA
ATOM     32  C1  GCD d 901       3.518  -8.721  31.468  0.00  0.00     0.165 C 
ATOM     33  C5  GCD d 901       2.864  -6.645  30.129  0.00  0.00     0.147 C 
ATOM     34  C2  GCD d 901       2.598  -8.286  32.567  0.00  0.00     0.111 C 
ATOM     35  O6B GCD d 901       4.357  -5.244  29.064  0.00  0.00    -0.642 OA
ATOM     36  C6  GCD d 901       3.229  -5.838  28.908  0.00  0.00     0.233 C 
ATOM     37  C3  GCD d 901       1.357  -7.646  31.851  0.00  0.00     0.084 C 
ATOM     38  O3  GCD d 901       0.477  -7.188  32.862  0.00  0.00    -0.389 OA
ATOM     39  O2  GCD d 901       2.187  -9.412  33.407  0.00  0.00    -0.388 OA
ATOM     40  C4  GCD d 901       1.604  -6.797  30.587  0.00  0.00    -0.034 C 
ATOM     41  H   GCD d 901       2.990  -9.426  30.861  0.00  0.00     0.134 H 
ATOM     42  H   GCD d 901       3.085  -7.593  33.221  0.00  0.00     0.095 H 
ATOM     43  H   GCD d 901       0.829  -8.390  31.292  0.00  0.00     0.093 H 
ATOM     44  H   GCD d 901       0.920  -6.509  33.393  0.00  0.00     0.210 HD
ATOM     45  H   GCD d 901       1.737 -10.075  32.861  0.00  0.00     0.210 HD
ATOM     46  H   GCD d 901       0.814  -6.351  30.096  0.00  0.00     0.085 H 
ENDROOT
TORSDOF 11
ENDMDL
MODEL 16
REMARK VINA RESULT:      -8.0      2.829      4.716
REMARK  0 active torsions:
REMARK  status: ('A' for Active; 'I' for Inactive)
REMARK       I    between atoms: C8_1  and  C7_18 
REMARK       I    between atoms: O6_4  and  C6_20 
REMARK       I    between atoms: C3_6  and  O3_22 
REMARK       I    between atoms: O1_7  and  C1_15 
REMARK       I    between atoms: O4_9  and  C4_11 
REMARK       I    between atoms: C1_10  and  O3_22 
REMARK       I    between atoms: C5_12  and  C6_17 
REMARK       I    between atoms: C2_13  and  O2_25 
REMARK       I    between atoms: C5_16  and  C6_20 
REMARK       I    between atoms: C7_18  and  N2_19 
REMARK       I    between atoms: N2_19  and  C2_23 
REMARK       I    between atoms: C3_21  and  O3_24 
ROOT
ATOM      1  C8  NAG d 902      11.340  -9.257  30.875  0.00  0.00    -0.003 C 
ATOM      2  O6  NAG d 902       5.520  -4.426  34.670  0.00  0.00    -0.398 OA
ATOM      3  O7  NAG d 902      10.625  -8.500  33.085  0.00  0.00    -0.274 OA
ATOM      4  C3  NAG d 902       7.160  -7.451  31.905  0.00  0.00     0.093 C 
ATOM      5  O1  NAG d 902       9.756  -4.754  31.621  0.00  0.00    -0.369 OA
ATOM      6  O5  NAG d 902       7.483  -4.633  32.417  0.00  0.00    -0.349 OA
ATOM      7  O4  NAG d 902       4.831  -7.258  32.750  0.00  0.00    -0.390 OA
ATOM      8  C4  NAG d 902       6.160  -6.688  32.814  0.00  0.00     0.089 C 
ATOM      9  C1  NAG d 902       8.469  -5.359  31.558  0.00  0.00     0.151 C 
ATOM     10  C5  NAG d 902       6.101  -5.235  32.378  0.00  0.00     0.089 C 
ATOM     11  C7  NAG d 902      10.493  -8.441  31.832  0.00  0.00     0.214 C 
ATOM     12  N2  NAG d 902       9.515  -7.642  31.158  0.00  0.00    -0.349 N 
ATOM     13  C6  NAG d 902       5.138  -4.448  33.268  0.00  0.00     0.043 C 
ATOM     14  O3  NAG d 902       7.260  -8.842  32.297  0.00  0.00    -0.348 OA
ATOM     15  C2  NAG d 902       8.555  -6.824  32.005  0.00  0.00     0.087 C 
ATOM     16  H   NAG d 902      12.051  -9.833  31.429  0.00  0.00     0.040 H 
ATOM     17  H   NAG d 902      11.857  -8.600  30.208  0.00  0.00     0.040 H 
ATOM     18  H   NAG d 902      10.711  -9.914  30.313  0.00  0.00     0.040 H 
ATOM     19  H   NAG d 902       4.869  -3.912  35.173  0.00  0.00     0.209 HD
ATOM     20  H   NAG d 902       6.796  -7.387  30.901  0.00  0.00     0.091 H 
ATOM     21  H   NAG d 902       9.692  -3.830  31.336  0.00  0.00     0.212 HD
ATOM     22  H   NAG d 902       4.864  -8.187  33.028  0.00  0.00     0.210 HD
ATOM     23  H   NAG d 902       6.504  -6.767  33.824  0.00  0.00     0.091 H 
ATOM     24  H   NAG d 902       8.134  -5.309  30.543  0.00  0.00     0.132 H 
ATOM     25  H   NAG d 902       5.735  -5.186  31.373  0.00  0.00     0.090 H 
ATOM     26  H   NAG d 902       9.465  -7.622  30.175  0.00  0.00     0.163 HD
ATOM     27  H   NAG d 902       5.099  -3.440  32.913  0.00  0.00     0.078 H 
ATOM     28  H   NAG d 902       4.190  -4.940  33.211  0.00  0.00     0.078 H 
ATOM     29  H   NAG d 902       8.923  -6.832  33.010  0.00  0.00     0.084 H 
ATOM     30  O6A GCD d 901       3.722 -10.766  28.005  0.00  0.00    -0.642 OA
ATOM     31  O5  GCD d 901       5.518  -9.695  31.006  0.00  0.00    -0.311 OA
ATOM     32  C1  GCD d 901       6.974  -9.868  31.369  0.00  0.00     0.165 C 
ATOM     33  C5  GCD d 901       4.958 -10.706  30.041  0.00  0.00     0.147 C 
ATOM     34  C2  GCD d 901       7.133 -11.233  31.964  0.00  0.00     0.111 C 
ATOM     35  O6B GCD d 901       2.941  -9.597  29.873  0.00  0.00    -0.642 OA
ATOM     36  C6  GCD d 901       3.809 -10.244  29.181  0.00  0.00     0.233 C 
ATOM     37  C3  GCD d 901       6.771 -12.240  30.817  0.00  0.00     0.084 C 
ATOM     38  O3  GCD d 901       6.875 -13.546  31.353  0.00  0.00    -0.389 OA
ATOM     39  O2  GCD d 901       8.498 -11.461  32.440  0.00  0.00    -0.388 OA
ATOM     40  C4  GCD d 901       5.610 -11.875  29.868  0.00  0.00    -0.034 C 
ATOM     41  H   GCD d 901       7.643  -9.795  30.537  0.00  0.00     0.134 H 
ATOM     42  H   GCD d 901       6.500 -11.353  32.818  0.00  0.00     0.095 H 
ATOM     43  H   GCD d 901       7.487 -12.170  30.024  0.00  0.00     0.093 H 
ATOM     44  H   GCD d 901       6.238 -13.650  32.077  0.00  0.00     0.210 HD
ATOM     45  H   GCD d 901       9.119 -11.363  31.701  0.00  0.00     0.210 HD
ATOM     46  H   GCD d 901       5.336 -12.518  29.109  0.00  0.00     0.085 H 
ENDROOT
TORSDOF 11
ENDMDL
MODEL 17
REMARK VINA RESULT:      -7.9      1.729      2.323
REMARK  0 active torsions:
REMARK  status: ('A' for Active; 'I' for Inactive)
REMARK       I    between atoms: C8_1  and  C7_18 
REMARK       I    between atoms: O6_4  and  C6_20 
REMARK       I    between atoms: C3_6  and  O3_22 
REMARK       I    between atoms: O1_7  and  C1_15 
REMARK       I    between atoms: O4_9  and  C4_11 
REMARK       I    between atoms: C1_10  and  O3_22 
REMARK       I    between atoms: C5_12  and  C6_17 
REMARK       I    between atoms: C2_13  and  O2_25 
REMARK       I    between atoms: C5_16  and  C6_20 
REMARK       I    between atoms: C7_18  and  N2_19 
REMARK       I    between atoms: N2_19  and  C2_23 
REMARK       I    between atoms: C3_21  and  O3_24 
ROOT
ATOM      1  C8  NAG d 902       8.485 -12.659  30.785  0.00  0.00    -0.003 C 
ATOM      2  O6  NAG d 902       8.342  -4.358  32.426  0.00  0.00    -0.398 OA
ATOM      3  O7  NAG d 902       8.444 -11.075  32.645  0.00  0.00    -0.274 OA
ATOM      4  C3  NAG d 902       7.228  -8.172  30.502  0.00  0.00     0.093 C 
ATOM      5  O1  NAG d 902      10.964  -8.515  30.638  0.00  0.00    -0.369 OA
ATOM      6  O5  NAG d 902       9.587  -6.541  30.797  0.00  0.00    -0.349 OA
ATOM      7  O4  NAG d 902       5.868  -6.100  30.685  0.00  0.00    -0.390 OA
ATOM      8  C4  NAG d 902       7.128  -6.718  31.037  0.00  0.00     0.089 C 
ATOM      9  C1  NAG d 902       9.703  -7.948  30.302  0.00  0.00     0.151 C 
ATOM     10  C5  NAG d 902       8.266  -5.896  30.458  0.00  0.00     0.089 C 
ATOM     11  C7  NAG d 902       8.518 -11.274  31.401  0.00  0.00     0.214 C 
ATOM     12  N2  NAG d 902       8.597 -10.235  30.419  0.00  0.00    -0.349 N 
ATOM     13  C6  NAG d 902       8.210  -4.462  30.983  0.00  0.00     0.043 C 
ATOM     14  O3  NAG d 902       6.168  -8.997  31.043  0.00  0.00    -0.348 OA
ATOM     15  C2  NAG d 902       8.571  -8.795  30.900  0.00  0.00     0.087 C 
ATOM     16  H   NAG d 902       8.426 -13.394  31.560  0.00  0.00     0.040 H 
ATOM     17  H   NAG d 902       9.376 -12.815  30.213  0.00  0.00     0.040 H 
ATOM     18  H   NAG d 902       7.632 -12.746  30.146  0.00  0.00     0.040 H 
ATOM     19  H   NAG d 902       8.298  -3.425  32.689  0.00  0.00     0.209 HD
ATOM     20  H   NAG d 902       7.141  -8.129  29.437  0.00  0.00     0.091 H 
ATOM     21  H   NAG d 902      11.672  -7.974  30.256  0.00  0.00     0.212 HD
ATOM     22  H   NAG d 902       5.138  -6.622  31.053  0.00  0.00     0.210 HD
ATOM     23  H   NAG d 902       7.192  -6.754  32.105  0.00  0.00     0.091 H 
ATOM     24  H   NAG d 902       9.623  -7.938  29.235  0.00  0.00     0.132 H 
ATOM     25  H   NAG d 902       8.166  -5.862  29.393  0.00  0.00     0.090 H 
ATOM     26  H   NAG d 902       8.667 -10.448  29.460  0.00  0.00     0.163 HD
ATOM     27  H   NAG d 902       9.006  -3.906  30.532  0.00  0.00     0.078 H 
ATOM     28  H   NAG d 902       7.245  -4.075  30.730  0.00  0.00     0.078 H 
ATOM     29  H   NAG d 902       8.705  -8.805  31.962  0.00  0.00     0.084 H 
ATOM     30  O6A GCD d 901       2.852  -8.697  26.189  0.00  0.00    -0.642 OA
ATOM     31  O5  GCD d 901       4.538  -8.573  29.433  0.00  0.00    -0.311 OA
ATOM     32  C1  GCD d 901       5.270  -9.663  30.179  0.00  0.00     0.165 C 
ATOM     33  C5  GCD d 901       3.485  -9.036  28.461  0.00  0.00     0.147 C 
ATOM     34  C2  GCD d 901       4.249 -10.463  30.928  0.00  0.00     0.111 C 
ATOM     35  O6B GCD d 901       3.123  -6.901  27.662  0.00  0.00    -0.642 OA
ATOM     36  C6  GCD d 901       3.212  -8.127  27.289  0.00  0.00     0.233 C 
ATOM     37  C3  GCD d 901       3.337 -11.119  29.832  0.00  0.00     0.084 C 
ATOM     38  O3  GCD d 901       2.334 -11.857  30.504  0.00  0.00    -0.389 OA
ATOM     39  O2  GCD d 901       4.872 -11.490  31.764  0.00  0.00    -0.388 OA
ATOM     40  C4  GCD d 901       2.989 -10.285  28.582  0.00  0.00    -0.034 C 
ATOM     41  H   GCD d 901       5.812 -10.336  29.548  0.00  0.00     0.134 H 
ATOM     42  H   GCD d 901       3.690  -9.840  31.594  0.00  0.00     0.095 H 
ATOM     43  H   GCD d 901       3.903 -11.818  29.251  0.00  0.00     0.093 H 
ATOM     44  H   GCD d 901       1.797 -11.256  31.044  0.00  0.00     0.210 HD
ATOM     45  H   GCD d 901       5.396 -12.087  31.207  0.00  0.00     0.210 HD
ATOM     46  H   GCD d 901       2.383 -10.679  27.845  0.00  0.00     0.085 H 
ENDROOT
TORSDOF 11
ENDMDL
MODEL 18
REMARK VINA RESULT:      -7.9      2.426      6.981
REMARK  0 active torsions:
REMARK  status: ('A' for Active; 'I' for Inactive)
REMARK       I    between atoms: C8_1  and  C7_18 
REMARK       I    between atoms: O6_4  and  C6_20 
REMARK       I    between atoms: C3_6  and  O3_22 
REMARK       I    between atoms: O1_7  and  C1_15 
REMARK       I    between atoms: O4_9  and  C4_11 
REMARK       I    between atoms: C1_10  and  O3_22 
REMARK       I    between atoms: C5_12  and  C6_17 
REMARK       I    between atoms: C2_13  and  O2_25 
REMARK       I    between atoms: C5_16  and  C6_20 
REMARK       I    between atoms: C7_18  and  N2_19 
REMARK       I    between atoms: N2_19  and  C2_23 
REMARK       I    between atoms: C3_21  and  O3_24 
ROOT
ATOM      1  C8  NAG d 902       7.791  -5.246  28.500  0.00  0.00    -0.003 C 
ATOM      2  O6  NAG d 902       1.282  -8.981  32.413  0.00  0.00    -0.398 OA
ATOM      3  O7  NAG d 902       6.330  -5.003  30.443  0.00  0.00    -0.274 OA
ATOM      4  C3  NAG d 902       5.184  -8.634  30.377  0.00  0.00     0.093 C 
ATOM      5  O1  NAG d 902       3.088  -6.328  28.283  0.00  0.00    -0.369 OA
ATOM      6  O5  NAG d 902       2.415  -8.089  29.788  0.00  0.00    -0.349 OA
ATOM      7  O4  NAG d 902       4.421 -10.426  31.921  0.00  0.00    -0.390 OA
ATOM      8  C4  NAG d 902       4.054  -9.174  31.293  0.00  0.00     0.089 C 
ATOM      9  C1  NAG d 902       3.493  -7.541  28.906  0.00  0.00     0.151 C 
ATOM     10  C5  NAG d 902       2.798  -9.380  30.466  0.00  0.00     0.089 C 
ATOM     11  C7  NAG d 902       6.619  -5.626  29.384  0.00  0.00     0.214 C 
ATOM     12  N2  NAG d 902       5.919  -6.779  28.907  0.00  0.00    -0.349 N 
ATOM     13  C6  NAG d 902       1.656  -9.892  31.345  0.00  0.00     0.043 C 
ATOM     14  O3  NAG d 902       6.400  -8.407  31.130  0.00  0.00    -0.348 OA
ATOM     15  C2  NAG d 902       4.761  -7.306  29.737  0.00  0.00     0.087 C 
ATOM     16  H   NAG d 902       8.276  -4.382  28.902  0.00  0.00     0.040 H 
ATOM     17  H   NAG d 902       7.437  -5.030  27.514  0.00  0.00     0.040 H 
ATOM     18  H   NAG d 902       8.486  -6.059  28.460  0.00  0.00     0.040 H 
ATOM     19  H   NAG d 902       0.557  -9.367  32.928  0.00  0.00     0.209 HD
ATOM     20  H   NAG d 902       5.362  -9.369  29.620  0.00  0.00     0.091 H 
ATOM     21  H   NAG d 902       2.286  -6.486  27.761  0.00  0.00     0.212 HD
ATOM     22  H   NAG d 902       5.224 -10.299  32.451  0.00  0.00     0.210 HD
ATOM     23  H   NAG d 902       3.884  -8.455  32.067  0.00  0.00     0.091 H 
ATOM     24  H   NAG d 902       3.693  -8.254  28.134  0.00  0.00     0.132 H 
ATOM     25  H   NAG d 902       2.992 -10.117  29.714  0.00  0.00     0.090 H 
ATOM     26  H   NAG d 902       6.179  -7.219  28.065  0.00  0.00     0.163 HD
ATOM     27  H   NAG d 902       0.800 -10.054  30.725  0.00  0.00     0.078 H 
ATOM     28  H   NAG d 902       2.002 -10.792  31.811  0.00  0.00     0.078 H 
ATOM     29  H   NAG d 902       4.529  -6.566  30.475  0.00  0.00     0.084 H 
ATOM     30  O6A GCD d 901       8.961 -13.398  29.350  0.00  0.00    -0.642 OA
ATOM     31  O5  GCD d 901       7.332 -10.533  30.938  0.00  0.00    -0.311 OA
ATOM     32  C1  GCD d 901       7.599  -9.057  30.763  0.00  0.00     0.165 C 
ATOM     33  C5  GCD d 901       8.489 -11.449  30.636  0.00  0.00     0.147 C 
ATOM     34  C2  GCD d 901       8.740  -8.695  31.662  0.00  0.00     0.111 C 
ATOM     35  O6B GCD d 901       7.199 -13.347  30.887  0.00  0.00    -0.642 OA
ATOM     36  C6  GCD d 901       8.137 -12.839  30.170  0.00  0.00     0.233 C 
ATOM     37  C3  GCD d 901       9.975  -9.502  31.128  0.00  0.00     0.084 C 
ATOM     38  O3  GCD d 901      11.069  -9.212  31.978  0.00  0.00    -0.389 OA
ATOM     39  O2  GCD d 901       9.013  -7.257  31.638  0.00  0.00    -0.388 OA
ATOM     40  C4  GCD d 901       9.738 -10.939  30.620  0.00  0.00    -0.034 C 
ATOM     41  H   GCD d 901       7.868  -8.776  29.766  0.00  0.00     0.134 H 
ATOM     42  H   GCD d 901       8.515  -8.934  32.681  0.00  0.00     0.095 H 
ATOM     43  H   GCD d 901      10.241  -9.163  30.149  0.00  0.00     0.093 H 
ATOM     44  H   GCD d 901      10.865  -9.506  32.879  0.00  0.00     0.210 HD
ATOM     45  H   GCD d 901       9.225  -6.983  30.732  0.00  0.00     0.210 HD
ATOM     46  H   GCD d 901      10.528 -11.505  30.272  0.00  0.00     0.085 H 
ENDROOT
TORSDOF 11
ENDMDL
MODEL 19
REMARK VINA RESULT:      -7.9      2.405      5.161
REMARK  0 active torsions:
REMARK  status: ('A' for Active; 'I' for Inactive)
REMARK       I    between atoms: C8_1  and  C7_18 
REMARK       I    between atoms: O6_4  and  C6_20 
REMARK       I    between atoms: C3_6  and  O3_22 
REMARK       I    between atoms: O1_7  and  C1_15 
REMARK       I    between atoms: O4_9  and  C4_11 
REMARK       I    between atoms: C1_10  and  O3_22 
REMARK       I    between atoms: C5_12  and  C6_17 
REMARK       I    between atoms: C2_13  and  O2_25 
REMARK       I    between atoms: C5_16  and  C6_20 
REMARK       I    between atoms: C7_18  and  N2_19 
REMARK       I    between atoms: N2_19  and  C2_23 
REMARK       I    between atoms: C3_21  and  O3_24 
ROOT
ATOM      1  C8  NAG d 902       4.440  -5.536  29.903  0.00  0.00    -0.003 C 
ATOM      2  O6  NAG d 902       8.607 -12.878  29.320  0.00  0.00    -0.398 OA
ATOM      3  O7  NAG d 902       5.330  -7.107  28.257  0.00  0.00    -0.274 OA
ATOM      4  C3  NAG d 902       5.595  -9.981  30.742  0.00  0.00     0.093 C 
ATOM      5  O1  NAG d 902       8.650  -7.804  30.586  0.00  0.00    -0.369 OA
ATOM      6  O5  NAG d 902       8.468 -10.208  30.669  0.00  0.00    -0.349 OA
ATOM      7  O4  NAG d 902       5.480 -12.462  30.813  0.00  0.00    -0.390 OA
ATOM      8  C4  NAG d 902       6.278 -11.330  30.394  0.00  0.00     0.089 C 
ATOM      9  C1  NAG d 902       7.826  -8.894  30.983  0.00  0.00     0.151 C 
ATOM     10  C5  NAG d 902       7.632 -11.394  31.079  0.00  0.00     0.089 C 
ATOM     11  C7  NAG d 902       5.207  -6.768  29.467  0.00  0.00     0.214 C 
ATOM     12  N2  NAG d 902       5.731  -7.512  30.572  0.00  0.00    -0.349 N 
ATOM     13  C6  NAG d 902       8.342 -12.704  30.738  0.00  0.00     0.043 C 
ATOM     14  O3  NAG d 902       4.304  -9.871  30.094  0.00  0.00    -0.348 OA
ATOM     15  C2  NAG d 902       6.467  -8.808  30.277  0.00  0.00     0.087 C 
ATOM     16  H   NAG d 902       4.073  -5.020  29.041  0.00  0.00     0.040 H 
ATOM     17  H   NAG d 902       5.089  -4.889  30.456  0.00  0.00     0.040 H 
ATOM     18  H   NAG d 902       3.617  -5.828  30.521  0.00  0.00     0.040 H 
ATOM     19  H   NAG d 902       9.057 -13.726  29.178  0.00  0.00     0.209 HD
ATOM     20  H   NAG d 902       5.468  -9.949  31.803  0.00  0.00     0.091 H 
ATOM     21  H   NAG d 902       9.506  -7.866  31.037  0.00  0.00     0.212 HD
ATOM     22  H   NAG d 902       4.614 -12.425  30.377  0.00  0.00     0.210 HD
ATOM     23  H   NAG d 902       6.389 -11.380  29.330  0.00  0.00     0.091 H 
ATOM     24  H   NAG d 902       7.688  -8.830  32.042  0.00  0.00     0.132 H 
ATOM     25  H   NAG d 902       7.489 -11.361  32.139  0.00  0.00     0.090 H 
ATOM     26  H   NAG d 902       5.618  -7.194  31.497  0.00  0.00     0.163 HD
ATOM     27  H   NAG d 902       9.275 -12.727  31.261  0.00  0.00     0.078 H 
ATOM     28  H   NAG d 902       7.688 -13.498  31.032  0.00  0.00     0.078 H 
ATOM     29  H   NAG d 902       6.650  -8.843  29.223  0.00  0.00     0.084 H 
ATOM     30  O6A GCD d 901       1.264 -11.299  34.927  0.00  0.00    -0.642 OA
ATOM     31  O5  GCD d 901       3.002 -10.891  31.735  0.00  0.00    -0.311 OA
ATOM     32  C1  GCD d 901       3.136  -9.666  30.862  0.00  0.00     0.165 C 
ATOM     33  C5  GCD d 901       1.796 -10.927  32.635  0.00  0.00     0.147 C 
ATOM     34  C2  GCD d 901       1.906  -9.580  30.012  0.00  0.00     0.111 C 
ATOM     35  O6B GCD d 901       2.502 -12.852  33.694  0.00  0.00    -0.642 OA
ATOM     36  C6  GCD d 901       1.937 -11.719  33.910  0.00  0.00     0.233 C 
ATOM     37  C3  GCD d 901       0.715  -9.367  31.011  0.00  0.00     0.084 C 
ATOM     38  O3  GCD d 901      -0.475  -9.316  30.245  0.00  0.00    -0.389 OA
ATOM     39  O2  GCD d 901       1.984  -8.474  29.057  0.00  0.00    -0.388 OA
ATOM     40  C4  GCD d 901       0.748 -10.125  32.354  0.00  0.00    -0.034 C 
ATOM     41  H   GCD d 901       3.221  -8.749  31.406  0.00  0.00     0.134 H 
ATOM     42  H   GCD d 901       1.784 -10.467  29.426  0.00  0.00     0.095 H 
ATOM     43  H   GCD d 901       0.810  -8.421  31.502  0.00  0.00     0.093 H 
ATOM     44  H   GCD d 901      -0.597 -10.160  29.782  0.00  0.00     0.210 HD
ATOM     45  H   GCD d 901       2.096  -7.639  29.537  0.00  0.00     0.210 HD
ATOM     46  H   GCD d 901      -0.024 -10.018  33.031  0.00  0.00     0.085 H 
ENDROOT
TORSDOF 11
ENDMDL
MODEL 20
REMARK VINA RESULT:      -7.9      3.032      4.945
REMARK  0 active torsions:
REMARK  status: ('A' for Active; 'I' for Inactive)
REMARK       I    between atoms: C8_1  and  C7_18 
REMARK       I    between atoms: O6_4  and  C6_20 
REMARK       I    between atoms: C3_6  and  O3_22 
REMARK       I    between atoms: O1_7  and  C1_15 
REMARK       I    between atoms: O4_9  and  C4_11 
REMARK       I    between atoms: C1_10  and  O3_22 
REMARK       I    between atoms: C5_12  and  C6_17 
REMARK       I    between atoms: C2_13  and  O2_25 
REMARK       I    between atoms: C5_16  and  C6_20 
REMARK       I    between atoms: C7_18  and  N2_19 
REMARK       I    between atoms: N2_19  and  C2_23 
REMARK       I    between atoms: C3_21  and  O3_24 
ROOT
ATOM      1  C8  NAG d 902      10.794  -8.542  31.502  0.00  0.00    -0.003 C 
ATOM      2  O6  NAG d 902       3.523  -5.125  34.163  0.00  0.00    -0.398 OA
ATOM      3  O7  NAG d 902       9.505  -8.125  33.536  0.00  0.00    -0.274 OA
ATOM      4  C3  NAG d 902       6.232  -7.564  31.672  0.00  0.00     0.093 C 
ATOM      5  O1  NAG d 902       8.291  -4.457  32.121  0.00  0.00    -0.369 OA
ATOM      6  O5  NAG d 902       5.918  -4.791  32.396  0.00  0.00    -0.349 OA
ATOM      7  O4  NAG d 902       3.782  -7.841  31.986  0.00  0.00    -0.390 OA
ATOM      8  C4  NAG d 902       4.941  -7.066  32.375  0.00  0.00     0.089 C 
ATOM      9  C1  NAG d 902       7.179  -5.259  31.740  0.00  0.00     0.151 C 
ATOM     10  C5  NAG d 902       4.710  -5.609  32.017  0.00  0.00     0.089 C 
ATOM     11  C7  NAG d 902       9.630  -7.972  32.289  0.00  0.00     0.214 C 
ATOM     12  N2  NAG d 902       8.685  -7.288  31.459  0.00  0.00    -0.349 N 
ATOM     13  C6  NAG d 902       3.455  -5.080  32.712  0.00  0.00     0.043 C 
ATOM     14  O3  NAG d 902       6.500  -8.949  32.000  0.00  0.00    -0.348 OA
ATOM     15  C2  NAG d 902       7.436  -6.724  32.115  0.00  0.00     0.087 C 
ATOM     16  H   NAG d 902      11.466  -9.041  32.169  0.00  0.00     0.040 H 
ATOM     17  H   NAG d 902      11.309  -7.749  31.003  0.00  0.00     0.040 H 
ATOM     18  H   NAG d 902      10.427  -9.240  30.779  0.00  0.00     0.040 H 
ATOM     19  H   NAG d 902       2.698  -4.776  34.536  0.00  0.00     0.209 HD
ATOM     20  H   NAG d 902       6.081  -7.467  30.617  0.00  0.00     0.091 H 
ATOM     21  H   NAG d 902       8.120  -3.533  31.880  0.00  0.00     0.212 HD
ATOM     22  H   NAG d 902       3.926  -8.773  32.213  0.00  0.00     0.210 HD
ATOM     23  H   NAG d 902       5.075  -7.180  33.431  0.00  0.00     0.091 H 
ATOM     24  H   NAG d 902       7.061  -5.171  30.680  0.00  0.00     0.132 H 
ATOM     25  H   NAG d 902       4.560  -5.528  30.960  0.00  0.00     0.090 H 
ATOM     26  H   NAG d 902       8.840  -7.186  30.492  0.00  0.00     0.163 HD
ATOM     27  H   NAG d 902       3.307  -4.064  32.413  0.00  0.00     0.078 H 
ATOM     28  H   NAG d 902       2.645  -5.715  32.419  0.00  0.00     0.078 H 
ATOM     29  H   NAG d 902       7.580  -6.764  33.174  0.00  0.00     0.084 H 
ATOM     30  O6A GCD d 901       4.355 -11.027  26.929  0.00  0.00    -0.642 OA
ATOM     31  O5  GCD d 901       5.255  -9.956  30.309  0.00  0.00    -0.311 OA
ATOM     32  C1  GCD d 901       6.608  -9.917  30.976  0.00  0.00     0.165 C 
ATOM     33  C5  GCD d 901       5.104 -10.952  29.189  0.00  0.00     0.147 C 
ATOM     34  C2  GCD d 901       6.886 -11.285  31.517  0.00  0.00     0.111 C 
ATOM     35  O6B GCD d 901       2.999 -10.184  28.637  0.00  0.00    -0.642 OA
ATOM     36  C6  GCD d 901       4.096 -10.609  28.121  0.00  0.00     0.233 C 
ATOM     37  C3  GCD d 901       6.963 -12.228  30.264  0.00  0.00     0.084 C 
ATOM     38  O3  GCD d 901       7.190 -13.542  30.738  0.00  0.00    -0.389 OA
ATOM     39  O2  GCD d 901       8.139 -11.326  32.272  0.00  0.00    -0.388 OA
ATOM     40  C4  GCD d 901       5.981 -11.974  29.102  0.00  0.00    -0.034 C 
ATOM     41  H   GCD d 901       7.412  -9.656  30.321  0.00  0.00     0.134 H 
ATOM     42  H   GCD d 901       6.121 -11.589  32.200  0.00  0.00     0.095 H 
ATOM     43  H   GCD d 901       7.804 -11.966  29.657  0.00  0.00     0.093 H 
ATOM     44  H   GCD d 901       6.446 -13.818  31.296  0.00  0.00     0.210 HD
ATOM     45  H   GCD d 901       8.873 -11.057  31.696  0.00  0.00     0.210 HD
ATOM     46  H   GCD d 901       5.994 -12.580  28.267  0.00  0.00     0.085 H 
ENDROOT
TORSDOF 11
ENDMDL
MODEL 21
REMARK VINA RESULT:      -7.9      3.723      6.696
REMARK  0 active torsions:
REMARK  status: ('A' for Active; 'I' for Inactive)
REMARK       I    between atoms: C8_1  and  C7_18 
REMARK       I    between atoms: O6_4  and  C6_20 
REMARK       I    between atoms: C3_6  and  O3_22 
REMARK       I    between atoms: O1_7  and  C1_15 
REMARK       I    between atoms: O4_9  and  C4_11 
REMARK       I    between atoms: C1_10  and  O3_22 
REMARK       I    between atoms: C5_12  and  C6_17 
REMARK       I    between atoms: C2_13  and  O2_25 
REMARK       I    between atoms: C5_16  and  C6_20 
REMARK       I    between atoms: C7_18  and  N2_19 
REMARK       I    between atoms: N2_19  and  C2_23 
REMARK       I    between atoms: C3_21  and  O3_24 
ROOT
ATOM      1  C8  NAG d 902      -2.069  -7.600  31.830  0.00  0.00    -0.003 C 
ATOM      2  O6  NAG d 902       5.771 -10.787  31.752  0.00  0.00    -0.398 OA
ATOM      3  O7  NAG d 902       0.249  -6.995  32.309  0.00  0.00    -0.274 OA
ATOM      4  C3  NAG d 902       1.705  -9.878  30.292  0.00  0.00     0.093 C 
ATOM      5  O1  NAG d 902       0.993 -10.725  33.879  0.00  0.00    -0.369 OA
ATOM      6  O5  NAG d 902       2.913 -11.254  32.518  0.00  0.00    -0.349 OA
ATOM      7  O4  NAG d 902       3.718 -10.446  28.950  0.00  0.00    -0.390 OA
ATOM      8  C4  NAG d 902       3.219 -10.220  30.289  0.00  0.00     0.089 C 
ATOM      9  C1  NAG d 902       1.457 -10.911  32.546  0.00  0.00     0.151 C 
ATOM     10  C5  NAG d 902       3.449 -11.466  31.125  0.00  0.00     0.089 C 
ATOM     11  C7  NAG d 902      -0.587  -7.882  31.982  0.00  0.00     0.214 C 
ATOM     12  N2  NAG d 902      -0.249  -9.239  31.675  0.00  0.00    -0.349 N 
ATOM     13  C6  NAG d 902       4.936 -11.819  31.161  0.00  0.00     0.043 C 
ATOM     14  O3  NAG d 902       1.442  -8.682  29.517  0.00  0.00    -0.348 OA
ATOM     15  C2  NAG d 902       1.216  -9.638  31.725  0.00  0.00     0.087 C 
ATOM     16  H   NAG d 902      -2.265  -6.577  32.070  0.00  0.00     0.040 H 
ATOM     17  H   NAG d 902      -2.622  -8.234  32.491  0.00  0.00     0.040 H 
ATOM     18  H   NAG d 902      -2.367  -7.792  30.820  0.00  0.00     0.040 H 
ATOM     19  H   NAG d 902       6.697 -11.076  31.743  0.00  0.00     0.209 HD
ATOM     20  H   NAG d 902       1.188 -10.707  29.857  0.00  0.00     0.091 H 
ATOM     21  H   NAG d 902       1.149 -11.534  34.390  0.00  0.00     0.212 HD
ATOM     22  H   NAG d 902       3.573  -9.651  28.412  0.00  0.00     0.210 HD
ATOM     23  H   NAG d 902       3.747  -9.385  30.701  0.00  0.00     0.091 H 
ATOM     24  H   NAG d 902       0.910 -11.726  32.121  0.00  0.00     0.132 H 
ATOM     25  H   NAG d 902       2.925 -12.287  30.679  0.00  0.00     0.090 H 
ATOM     26  H   NAG d 902      -0.945  -9.894  31.439  0.00  0.00     0.163 HD
ATOM     27  H   NAG d 902       5.055 -12.717  31.731  0.00  0.00     0.078 H 
ATOM     28  H   NAG d 902       5.253 -11.933  30.146  0.00  0.00     0.078 H 
ATOM     29  H   NAG d 902       1.752  -8.843  32.199  0.00  0.00     0.084 H 
ATOM     30  O6A GCD d 901      -0.439 -11.627  24.782  0.00  0.00    -0.642 OA
ATOM     31  O5  GCD d 901       1.161  -9.673  27.428  0.00  0.00    -0.311 OA
ATOM     32  C1  GCD d 901       0.546  -8.721  28.425  0.00  0.00     0.165 C 
ATOM     33  C5  GCD d 901       0.397  -9.861  26.143  0.00  0.00     0.147 C 
ATOM     34  C2  GCD d 901       0.410  -7.390  27.755  0.00  0.00     0.111 C 
ATOM     35  O6B GCD d 901       1.809 -11.535  25.416  0.00  0.00    -0.642 OA
ATOM     36  C6  GCD d 901       0.573 -11.188  25.449  0.00  0.00     0.233 C 
ATOM     37  C3  GCD d 901      -0.599  -7.611  26.574  0.00  0.00     0.084 C 
ATOM     38  O3  GCD d 901      -0.727  -6.377  25.891  0.00  0.00    -0.389 OA
ATOM     39  O2  GCD d 901      -0.089  -6.367  28.676  0.00  0.00    -0.388 OA
ATOM     40  C4  GCD d 901      -0.518  -8.935  25.787  0.00  0.00    -0.034 C 
ATOM     41  H   GCD d 901      -0.424  -9.014  28.769  0.00  0.00     0.134 H 
ATOM     42  H   GCD d 901       1.359  -7.036  27.410  0.00  0.00     0.095 H 
ATOM     43  H   GCD d 901      -1.568  -7.857  26.957  0.00  0.00     0.093 H 
ATOM     44  H   GCD d 901       0.133  -6.119  25.527  0.00  0.00     0.210 HD
ATOM     45  H   GCD d 901      -0.955  -6.638  29.022  0.00  0.00     0.210 HD
ATOM     46  H   GCD d 901      -1.158  -9.112  24.997  0.00  0.00     0.085 H 
ENDROOT
TORSDOF 11
ENDMDL
MODEL 22
REMARK VINA RESULT:      -7.9      3.314      6.635
REMARK  0 active torsions:
REMARK  status: ('A' for Active; 'I' for Inactive)
REMARK       I    between atoms: C8_1  and  C7_18 
REMARK       I    between atoms: O6_4  and  C6_20 
REMARK       I    between atoms: C3_6  and  O3_22 
REMARK       I    between atoms: O1_7  and  C1_15 
REMARK       I    between atoms: O4_9  and  C4_11 
REMARK       I    between atoms: C1_10  and  O3_22 
REMARK       I    between atoms: C5_12  and  C6_17 
REMARK       I    between atoms: C2_13  and  O2_25 
REMARK       I    between atoms: C5_16  and  C6_20 
REMARK       I    between atoms: C7_18  and  N2_19 
REMARK       I    between atoms: N2_19  and  C2_23 
REMARK       I    between atoms: C3_21  and  O3_24 
ROOT
ATOM      1  C8  NAG d 902       6.924  -6.134  31.309  0.00  0.00    -0.003 C 
ATOM      2  O6  NAG d 902      -1.225  -7.872  32.794  0.00  0.00    -0.398 OA
ATOM      3  O7  NAG d 902       5.368  -6.610  33.132  0.00  0.00    -0.274 OA
ATOM      4  C3  NAG d 902       2.729  -8.132  30.848  0.00  0.00     0.093 C 
ATOM      5  O1  NAG d 902       2.407  -4.419  31.298  0.00  0.00    -0.369 OA
ATOM      6  O5  NAG d 902       0.707  -6.130  31.310  0.00  0.00    -0.349 OA
ATOM      7  O4  NAG d 902       0.929  -9.845  30.884  0.00  0.00    -0.390 OA
ATOM      8  C4  NAG d 902       1.315  -8.530  31.348  0.00  0.00     0.089 C 
ATOM      9  C1  NAG d 902       2.073  -5.727  30.850  0.00  0.00     0.151 C 
ATOM     10  C5  NAG d 902       0.306  -7.510  30.852  0.00  0.00     0.089 C 
ATOM     11  C7  NAG d 902       5.554  -6.398  31.902  0.00  0.00     0.214 C 
ATOM     12  N2  NAG d 902       4.519  -6.419  30.913  0.00  0.00    -0.349 N 
ATOM     13  C6  NAG d 902      -1.097  -7.861  31.347  0.00  0.00     0.043 C 
ATOM     14  O3  NAG d 902       3.728  -9.073  31.314  0.00  0.00    -0.348 OA
ATOM     15  C2  NAG d 902       3.105  -6.739  31.366  0.00  0.00     0.087 C 
ATOM     16  H   NAG d 902       7.656  -6.129  32.089  0.00  0.00     0.040 H 
ATOM     17  H   NAG d 902       6.921  -5.185  30.816  0.00  0.00     0.040 H 
ATOM     18  H   NAG d 902       7.161  -6.902  30.603  0.00  0.00     0.040 H 
ATOM     19  H   NAG d 902      -2.136  -8.101  33.036  0.00  0.00     0.209 HD
ATOM     20  H   NAG d 902       2.705  -8.136  29.779  0.00  0.00     0.091 H 
ATOM     21  H   NAG d 902       1.751  -3.787  30.967  0.00  0.00     0.212 HD
ATOM     22  H   NAG d 902       1.572 -10.501  31.199  0.00  0.00     0.210 HD
ATOM     23  H   NAG d 902       1.337  -8.552  32.418  0.00  0.00     0.091 H 
ATOM     24  H   NAG d 902       2.079  -5.717  29.780  0.00  0.00     0.132 H 
ATOM     25  H   NAG d 902       0.293  -7.524  29.782  0.00  0.00     0.090 H 
ATOM     26  H   NAG d 902       4.718  -6.233  29.967  0.00  0.00     0.163 HD
ATOM     27  H   NAG d 902      -1.783  -7.141  30.953  0.00  0.00     0.078 H 
ATOM     28  H   NAG d 902      -1.306  -8.854  31.008  0.00  0.00     0.078 H 
ATOM     29  H   NAG d 902       3.090  -6.695  32.435  0.00  0.00     0.084 H 
ATOM     30  O6A GCD d 901       4.027 -11.968  26.199  0.00  0.00    -0.642 OA
ATOM     31  O5  GCD d 901       3.601 -10.610  29.568  0.00  0.00    -0.311 OA
ATOM     32  C1  GCD d 901       4.544  -9.764  30.390  0.00  0.00     0.165 C 
ATOM     33  C5  GCD d 901       4.245 -11.479  28.520  0.00  0.00     0.147 C 
ATOM     34  C2  GCD d 901       5.509 -10.687  31.065  0.00  0.00     0.111 C 
ATOM     35  O6B GCD d 901       2.209 -12.143  27.658  0.00  0.00    -0.642 OA
ATOM     36  C6  GCD d 901       3.401 -11.808  27.314  0.00  0.00     0.233 C 
ATOM     37  C3  GCD d 901       6.318 -11.374  29.909  0.00  0.00     0.084 C 
ATOM     38  O3  GCD d 901       7.221 -12.285  30.508  0.00  0.00    -0.389 OA
ATOM     39  O2  GCD d 901       6.409  -9.966  31.967  0.00  0.00    -0.388 OA
ATOM     40  C4  GCD d 901       5.561 -11.757  28.620  0.00  0.00    -0.034 C 
ATOM     41  H   GCD d 901       5.112  -9.060  29.817  0.00  0.00     0.134 H 
ATOM     42  H   GCD d 901       4.994 -11.401  31.673  0.00  0.00     0.095 H 
ATOM     43  H   GCD d 901       6.907 -10.648  29.389  0.00  0.00     0.093 H 
ATOM     44  H   GCD d 901       6.723 -12.963  30.991  0.00  0.00     0.210 HD
ATOM     45  H   GCD d 901       6.905  -9.301  31.465  0.00  0.00     0.210 HD
ATOM     46  H   GCD d 901       6.057 -12.220  27.843  0.00  0.00     0.085 H 
ENDROOT
TORSDOF 11
ENDMDL
MODEL 23
REMARK VINA RESULT:      -7.8      1.799      6.112
REMARK  0 active torsions:
REMARK  status: ('A' for Active; 'I' for Inactive)
REMARK       I    between atoms: C8_1  and  C7_18 
REMARK       I    between atoms: O6_4  and  C6_20 
REMARK       I    between atoms: C3_6  and  O3_22 
REMARK       I    between atoms: O1_7  and  C1_15 
REMARK       I    between atoms: O4_9  and  C4_11 
REMARK       I    between atoms: C1_10  and  O3_22 
REMARK       I    between atoms: C5_12  and  C6_17 
REMARK       I    between atoms: C2_13  and  O2_25 
REMARK       I    between atoms: C5_16  and  C6_20 
REMARK       I    between atoms: C7_18  and  N2_19 
REMARK       I    between atoms: N2_19  and  C2_23 
REMARK       I    between atoms: C3_21  and  O3_24 
ROOT
ATOM      1  C8  NAG d 902       7.250 -13.000  32.620  0.00  0.00    -0.003 C 
ATOM      2  O6  NAG d 902       3.300  -8.875  26.375  0.00  0.00    -0.398 OA
ATOM      3  O7  NAG d 902       6.868 -13.088  30.208  0.00  0.00    -0.274 OA
ATOM      4  C3  NAG d 902       5.799  -9.441  29.969  0.00  0.00     0.093 C 
ATOM      5  O1  NAG d 902       2.983 -11.818  30.686  0.00  0.00    -0.369 OA
ATOM      6  O5  NAG d 902       3.080  -9.953  29.161  0.00  0.00    -0.349 OA
ATOM      7  O4  NAG d 902       5.834  -7.540  28.369  0.00  0.00    -0.390 OA
ATOM      8  C4  NAG d 902       5.225  -8.818  28.669  0.00  0.00     0.089 C 
ATOM      9  C1  NAG d 902       3.625 -10.580  30.405  0.00  0.00     0.151 C 
ATOM     10  C5  NAG d 902       3.726  -8.633  28.826  0.00  0.00     0.089 C 
ATOM     11  C7  NAG d 902       6.625 -12.539  31.318  0.00  0.00     0.214 C 
ATOM     12  N2  NAG d 902       5.775 -11.399  31.488  0.00  0.00    -0.349 N 
ATOM     13  C6  NAG d 902       3.125  -8.040  27.551  0.00  0.00     0.043 C 
ATOM     14  O3  NAG d 902       7.228  -9.651  29.858  0.00  0.00    -0.348 OA
ATOM     15  C2  NAG d 902       5.136 -10.795  30.249  0.00  0.00     0.087 C 
ATOM     16  H   NAG d 902       7.873 -13.850  32.436  0.00  0.00     0.040 H 
ATOM     17  H   NAG d 902       6.478 -13.267  33.311  0.00  0.00     0.040 H 
ATOM     18  H   NAG d 902       7.840 -12.209  33.033  0.00  0.00     0.040 H 
ATOM     19  H   NAG d 902       2.896  -8.440  25.607  0.00  0.00     0.209 HD
ATOM     20  H   NAG d 902       5.598  -8.758  30.768  0.00  0.00     0.091 H 
ATOM     21  H   NAG d 902       2.030 -11.674  30.783  0.00  0.00     0.212 HD
ATOM     22  H   NAG d 902       6.792  -7.654  28.268  0.00  0.00     0.210 HD
ATOM     23  H   NAG d 902       5.442  -9.485  27.860  0.00  0.00     0.091 H 
ATOM     24  H   NAG d 902       3.435  -9.921  31.226  0.00  0.00     0.132 H 
ATOM     25  H   NAG d 902       3.541  -7.948  29.627  0.00  0.00     0.090 H 
ATOM     26  H   NAG d 902       5.608 -11.019  32.380  0.00  0.00     0.163 HD
ATOM     27  H   NAG d 902       2.077  -7.895  27.709  0.00  0.00     0.078 H 
ATOM     28  H   NAG d 902       3.642  -7.122  27.361  0.00  0.00     0.078 H 
ATOM     29  H   NAG d 902       5.281 -11.482  29.442  0.00  0.00     0.084 H 
ATOM     30  O6A GCD d 901       8.625  -4.842  32.950  0.00  0.00    -0.642 OA
ATOM     31  O5  GCD d 901       7.947  -7.564  30.603  0.00  0.00    -0.311 OA
ATOM     32  C1  GCD d 901       8.112  -9.054  30.784  0.00  0.00     0.165 C 
ATOM     33  C5  GCD d 901       8.823  -6.697  31.469  0.00  0.00     0.147 C 
ATOM     34  C2  GCD d 901       9.543  -9.389  30.500  0.00  0.00     0.111 C 
ATOM     35  O6B GCD d 901       7.786  -4.757  30.770  0.00  0.00    -0.642 OA
ATOM     36  C6  GCD d 901       8.284  -5.330  31.806  0.00  0.00     0.233 C 
ATOM     37  C3  GCD d 901      10.379  -8.646  31.601  0.00  0.00     0.084 C 
ATOM     38  O3  GCD d 901      11.746  -8.911  31.343  0.00  0.00    -0.389 OA
ATOM     39  O2  GCD d 901       9.783 -10.832  30.555  0.00  0.00    -0.388 OA
ATOM     40  C4  GCD d 901       9.923  -7.237  32.033  0.00  0.00    -0.034 C 
ATOM     41  H   GCD d 901       7.886  -9.402  31.770  0.00  0.00     0.134 H 
ATOM     42  H   GCD d 901       9.818  -9.082  29.513  0.00  0.00     0.095 H 
ATOM     43  H   GCD d 901      10.160  -9.051  32.567  0.00  0.00     0.093 H 
ATOM     44  H   GCD d 901      11.985  -8.557  30.473  0.00  0.00     0.210 HD
ATOM     45  H   GCD d 901       9.549 -11.166  31.435  0.00  0.00     0.210 HD
ATOM     46  H   GCD d 901      10.454  -6.713  32.745  0.00  0.00     0.085 H 
ENDROOT
TORSDOF 11
ENDMDL
MODEL 24
REMARK VINA RESULT:      -7.8      2.806      6.632
REMARK  0 active torsions:
REMARK  status: ('A' for Active; 'I' for Inactive)
REMARK       I    between atoms: C8_1  and  C7_18 
REMARK       I    between atoms: O6_4  and  C6_20 
REMARK       I    between atoms: C3_6  and  O3_22 
REMARK       I    between atoms: O1_7  and  C1_15 
REMARK       I    between atoms: O4_9  and  C4_11 
REMARK       I    between atoms: C1_10  and  O3_22 
REMARK       I    between atoms: C5_12  and  C6_17 
REMARK       I    between atoms: C2_13  and  O2_25 
REMARK       I    between atoms: C5_16  and  C6_20 
REMARK       I    between atoms: C7_18  and  N2_19 
REMARK       I    between atoms: N2_19  and  C2_23 
REMARK       I    between atoms: C3_21  and  O3_24 
ROOT
ATOM      1  C8  NAG d 902       3.701  -5.831  29.988  0.00  0.00    -0.003 C 
ATOM      2  O6  NAG d 902       6.300 -13.715  31.635  0.00  0.00    -0.398 OA
ATOM      3  O7  NAG d 902       3.078  -7.829  31.248  0.00  0.00    -0.274 OA
ATOM      4  C3  NAG d 902       6.570  -9.340  31.108  0.00  0.00     0.093 C 
ATOM      5  O1  NAG d 902       4.382 -10.268  28.201  0.00  0.00    -0.369 OA
ATOM      6  O5  NAG d 902       5.864 -11.640  29.519  0.00  0.00    -0.349 OA
ATOM      7  O4  NAG d 902       8.069 -10.814  32.432  0.00  0.00    -0.390 OA
ATOM      8  C4  NAG d 902       6.883 -10.777  31.604  0.00  0.00     0.089 C 
ATOM      9  C1  NAG d 902       5.534 -10.263  29.036  0.00  0.00     0.151 C 
ATOM     10  C5  NAG d 902       7.084 -11.686  30.405  0.00  0.00     0.089 C 
ATOM     11  C7  NAG d 902       3.856  -7.275  30.425  0.00  0.00     0.214 C 
ATOM     12  N2  NAG d 902       4.996  -7.910  29.835  0.00  0.00    -0.349 N 
ATOM     13  C6  NAG d 902       7.374 -13.116  30.860  0.00  0.00     0.043 C 
ATOM     14  O3  NAG d 902       6.355  -8.441  32.222  0.00  0.00    -0.348 OA
ATOM     15  C2  NAG d 902       5.305  -9.341  30.241  0.00  0.00     0.087 C 
ATOM     16  H   NAG d 902       2.838  -5.407  30.456  0.00  0.00     0.040 H 
ATOM     17  H   NAG d 902       3.586  -5.792  28.925  0.00  0.00     0.040 H 
ATOM     18  H   NAG d 902       4.570  -5.276  30.274  0.00  0.00     0.040 H 
ATOM     19  H   NAG d 902       6.550 -14.617  31.889  0.00  0.00     0.209 HD
ATOM     20  H   NAG d 902       7.411  -9.008  30.535  0.00  0.00     0.091 H 
ATOM     21  H   NAG d 902       4.535 -10.853  27.443  0.00  0.00     0.212 HD
ATOM     22  H   NAG d 902       7.946 -10.234  33.201  0.00  0.00     0.210 HD
ATOM     23  H   NAG d 902       6.057 -11.109  32.197  0.00  0.00     0.091 H 
ATOM     24  H   NAG d 902       6.357  -9.903  28.455  0.00  0.00     0.132 H 
ATOM     25  H   NAG d 902       7.927 -11.341  29.843  0.00  0.00     0.090 H 
ATOM     26  H   NAG d 902       5.563  -7.434  29.186  0.00  0.00     0.163 HD
ATOM     27  H   NAG d 902       7.539 -13.719  29.992  0.00  0.00     0.078 H 
ATOM     28  H   NAG d 902       8.231 -13.072  31.498  0.00  0.00     0.078 H 
ATOM     29  H   NAG d 902       4.458  -9.716  30.776  0.00  0.00     0.084 H 
ATOM     30  O6A GCD d 901      11.743  -6.090  31.940  0.00  0.00    -0.642 OA
ATOM     31  O5  GCD d 901       8.562  -7.782  32.571  0.00  0.00    -0.311 OA
ATOM     32  C1  GCD d 901       7.151  -7.283  32.370  0.00  0.00     0.165 C 
ATOM     33  C5  GCD d 901       9.608  -6.720  32.788  0.00  0.00     0.147 C 
ATOM     34  C2  GCD d 901       6.776  -6.487  33.581  0.00  0.00     0.111 C 
ATOM     35  O6B GCD d 901      11.335  -8.251  32.732  0.00  0.00    -0.642 OA
ATOM     36  C6  GCD d 901      11.011  -7.066  32.356  0.00  0.00     0.233 C 
ATOM     37  C3  GCD d 901       7.753  -5.258  33.599  0.00  0.00     0.084 C 
ATOM     38  O3  GCD d 901       7.451  -4.497  34.754  0.00  0.00    -0.389 OA
ATOM     39  O2  GCD d 901       5.383  -6.039  33.525  0.00  0.00    -0.388 OA
ATOM     40  C4  GCD d 901       9.217  -5.488  33.174  0.00  0.00    -0.034 C 
ATOM     41  H   GCD d 901       7.028  -6.653  31.514  0.00  0.00     0.134 H 
ATOM     42  H   GCD d 901       6.859  -7.078  34.468  0.00  0.00     0.095 H 
ATOM     43  H   GCD d 901       7.569  -4.628  32.754  0.00  0.00     0.093 H 
ATOM     44  H   GCD d 901       7.606  -5.036  35.546  0.00  0.00     0.210 HD
ATOM     45  H   GCD d 901       5.250  -5.494  32.733  0.00  0.00     0.210 HD
ATOM     46  H   GCD d 901       9.891  -4.707  33.185  0.00  0.00     0.085 H 
ENDROOT
TORSDOF 11
ENDMDL
MODEL 25
REMARK VINA RESULT:      -7.8      3.229      5.495
REMARK  0 active torsions:
REMARK  status: ('A' for Active; 'I' for Inactive)
REMARK       I    between atoms: C8_1  and  C7_18 
REMARK       I    between atoms: O6_4  and  C6_20 
REMARK       I    between atoms: C3_6  and  O3_22 
REMARK       I    between atoms: O1_7  and  C1_15 
REMARK       I    between atoms: O4_9  and  C4_11 
REMARK       I    between atoms: C1_10  and  O3_22 
REMARK       I    between atoms: C5_12  and  C6_17 
REMARK       I    between atoms: C2_13  and  O2_25 
REMARK       I    between atoms: C5_16  and  C6_20 
REMARK       I    between atoms: C7_18  and  N2_19 
REMARK       I    between atoms: N2_19  and  C2_23 
REMARK       I    between atoms: C3_21  and  O3_24 
ROOT
ATOM      1  C8  NAG d 902       0.892  -9.910  26.675  0.00  0.00    -0.003 C 
ATOM      2  O6  NAG d 902       6.779 -14.172  31.011  0.00  0.00    -0.398 OA
ATOM      3  O7  NAG d 902       1.228 -11.989  27.914  0.00  0.00    -0.274 OA
ATOM      4  C3  NAG d 902       4.334 -10.730  29.721  0.00  0.00     0.093 C 
ATOM      5  O1  NAG d 902       5.042 -12.370  26.419  0.00  0.00    -0.369 OA
ATOM      6  O5  NAG d 902       6.179 -12.600  28.533  0.00  0.00    -0.349 OA
ATOM      7  O4  NAG d 902       5.544 -11.023  31.871  0.00  0.00    -0.390 OA
ATOM      8  C4  NAG d 902       5.219 -11.647  30.607  0.00  0.00     0.089 C 
ATOM      9  C1  NAG d 902       5.317 -11.739  27.664  0.00  0.00     0.151 C 
ATOM     10  C5  NAG d 902       6.503 -11.969  29.864  0.00  0.00     0.089 C 
ATOM     11  C7  NAG d 902       1.717 -10.927  27.439  0.00  0.00     0.214 C 
ATOM     12  N2  NAG d 902       3.083 -10.527  27.591  0.00  0.00    -0.349 N 
ATOM     13  C6  NAG d 902       7.389 -12.890  30.702  0.00  0.00     0.043 C 
ATOM     14  O3  NAG d 902       3.088 -10.411  30.386  0.00  0.00    -0.348 OA
ATOM     15  C2  NAG d 902       4.005 -11.428  28.396  0.00  0.00     0.087 C 
ATOM     16  H   NAG d 902      -0.116 -10.258  26.590  0.00  0.00     0.040 H 
ATOM     17  H   NAG d 902       1.307  -9.778  25.697  0.00  0.00     0.040 H 
ATOM     18  H   NAG d 902       0.904  -8.976  27.197  0.00  0.00     0.040 H 
ATOM     19  H   NAG d 902       7.393 -14.703  31.542  0.00  0.00     0.209 HD
ATOM     20  H   NAG d 902       4.884  -9.831  29.539  0.00  0.00     0.091 H 
ATOM     21  H   NAG d 902       5.876 -12.563  25.964  0.00  0.00     0.212 HD
ATOM     22  H   NAG d 902       4.726 -10.816  32.350  0.00  0.00     0.210 HD
ATOM     23  H   NAG d 902       4.666 -12.541  30.813  0.00  0.00     0.091 H 
ATOM     24  H   NAG d 902       5.843 -10.830  27.461  0.00  0.00     0.132 H 
ATOM     25  H   NAG d 902       7.042 -11.061  29.690  0.00  0.00     0.090 H 
ATOM     26  H   NAG d 902       3.416  -9.693  27.187  0.00  0.00     0.163 HD
ATOM     27  H   NAG d 902       8.295 -13.069  30.162  0.00  0.00     0.078 H 
ATOM     28  H   NAG d 902       7.560 -12.394  31.635  0.00  0.00     0.078 H 
ATOM     29  H   NAG d 902       3.496 -12.356  28.551  0.00  0.00     0.084 H 
ATOM     30  O6A GCD d 901       4.855  -5.063  32.092  0.00  0.00    -0.642 OA
ATOM     31  O5  GCD d 901       3.788  -8.519  31.552  0.00  0.00    -0.311 OA
ATOM     32  C1  GCD d 901       2.730  -9.065  30.624  0.00  0.00     0.165 C 
ATOM     33  C5  GCD d 901       3.606  -7.089  31.985  0.00  0.00     0.147 C 
ATOM     34  C2  GCD d 901       1.410  -8.943  31.321  0.00  0.00     0.111 C 
ATOM     35  O6B GCD d 901       5.647  -7.037  33.062  0.00  0.00    -0.642 OA
ATOM     36  C6  GCD d 901       4.863  -6.330  32.329  0.00  0.00     0.233 C 
ATOM     37  C3  GCD d 901       1.174  -7.404  31.515  0.00  0.00     0.084 C 
ATOM     38  O3  GCD d 901      -0.052  -7.249  32.206  0.00  0.00    -0.389 OA
ATOM     39  O2  GCD d 901       0.326  -9.538  30.538  0.00  0.00    -0.388 OA
ATOM     40  C4  GCD d 901       2.388  -6.521  31.869  0.00  0.00    -0.034 C 
ATOM     41  H   GCD d 901       2.654  -8.545  29.692  0.00  0.00     0.134 H 
ATOM     42  H   GCD d 901       1.421  -9.468  32.254  0.00  0.00     0.095 H 
ATOM     43  H   GCD d 901       1.059  -6.926  30.564  0.00  0.00     0.093 H 
ATOM     44  H   GCD d 901       0.012  -7.671  33.076  0.00  0.00     0.210 HD
ATOM     45  H   GCD d 901       0.270  -9.097  29.676  0.00  0.00     0.210 HD
ATOM     46  H   GCD d 901       2.269  -5.506  32.015  0.00  0.00     0.085 H 
ENDROOT
TORSDOF 11
ENDMDL
MODEL 26
REMARK VINA RESULT:      -7.8      2.028      3.126
REMARK  0 active torsions:
REMARK  status: ('A' for Active; 'I' for Inactive)
REMARK       I    between atoms: C8_1  and  C7_18 
REMARK       I    between atoms: O6_4  and  C6_20 
REMARK       I    between atoms: C3_6  and  O3_22 
REMARK       I    between atoms: O1_7  and  C1_15 
REMARK       I    between atoms: O4_9  and  C4_11 
REMARK       I    between atoms: C1_10  and  O3_22 
REMARK       I    between atoms: C5_12  and  C6_17 
REMARK       I    between atoms: C2_13  and  O2_25 
REMARK       I    between atoms: C5_16  and  C6_20 
REMARK       I    between atoms: C7_18  and  N2_19 
REMARK       I    between atoms: N2_19  and  C2_23 
REMARK       I    between atoms: C3_21  and  O3_24 
ROOT
ATOM      1  C8  NAG d 902       1.482 -13.521  33.342  0.00  0.00    -0.003 C 
ATOM      2  O6  NAG d 902       9.341 -10.855  31.683  0.00  0.00    -0.398 OA
ATOM      3  O7  NAG d 902       3.346 -12.306  34.353  0.00  0.00    -0.274 OA
ATOM      4  C3  NAG d 902       5.038 -11.582  31.019  0.00  0.00     0.093 C 
ATOM      5  O1  NAG d 902       6.070 -14.834  32.586  0.00  0.00    -0.369 OA
ATOM      6  O5  NAG d 902       7.412 -13.140  31.517  0.00  0.00    -0.349 OA
ATOM      7  O4  NAG d 902       6.482  -9.872  29.940  0.00  0.00    -0.390 OA
ATOM      8  C4  NAG d 902       6.447 -10.941  30.915  0.00  0.00     0.089 C 
ATOM      9  C1  NAG d 902       6.060 -13.769  31.644  0.00  0.00     0.151 C 
ATOM     10  C5  NAG d 902       7.452 -12.008  30.521  0.00  0.00     0.089 C 
ATOM     11  C7  NAG d 902       2.895 -12.971  33.380  0.00  0.00     0.214 C 
ATOM     12  N2  NAG d 902       3.629 -13.255  32.185  0.00  0.00    -0.349 N 
ATOM     13  C6  NAG d 902       8.857 -11.412  30.431  0.00  0.00     0.043 C 
ATOM     14  O3  NAG d 902       4.048 -10.600  31.409  0.00  0.00    -0.348 OA
ATOM     15  C2  NAG d 902       5.040 -12.704  32.065  0.00  0.00     0.087 C 
ATOM     16  H   NAG d 902       0.981 -13.281  34.256  0.00  0.00     0.040 H 
ATOM     17  H   NAG d 902       1.517 -14.583  33.223  0.00  0.00     0.040 H 
ATOM     18  H   NAG d 902       0.952 -13.086  32.521  0.00  0.00     0.040 H 
ATOM     19  H   NAG d 902      10.233 -10.497  31.554  0.00  0.00     0.209 HD
ATOM     20  H   NAG d 902       4.792 -11.976  30.055  0.00  0.00     0.091 H 
ATOM     21  H   NAG d 902       6.717 -15.502  32.312  0.00  0.00     0.212 HD
ATOM     22  H   NAG d 902       5.840  -9.187  30.188  0.00  0.00     0.210 HD
ATOM     23  H   NAG d 902       6.691 -10.524  31.870  0.00  0.00     0.091 H 
ATOM     24  H   NAG d 902       5.787 -14.176  30.693  0.00  0.00     0.132 H 
ATOM     25  H   NAG d 902       7.194 -12.392  29.556  0.00  0.00     0.090 H 
ATOM     26  H   NAG d 902       3.233 -13.793  31.461  0.00  0.00     0.163 HD
ATOM     27  H   NAG d 902       9.531 -12.183  30.123  0.00  0.00     0.078 H 
ATOM     28  H   NAG d 902       8.809 -10.605  29.730  0.00  0.00     0.078 H 
ATOM     29  H   NAG d 902       5.330 -12.345  33.031  0.00  0.00     0.084 H 
ATOM     30  O6A GCD d 901       2.000  -9.840  25.944  0.00  0.00    -0.642 OA
ATOM     31  O5  GCD d 901       3.477  -9.818  29.291  0.00  0.00    -0.311 OA
ATOM     32  C1  GCD d 901       2.924 -10.354  30.589  0.00  0.00     0.165 C 
ATOM     33  C5  GCD d 901       2.456  -9.443  28.248  0.00  0.00     0.147 C 
ATOM     34  C2  GCD d 901       2.020  -9.307  31.163  0.00  0.00     0.111 C 
ATOM     35  O6B GCD d 901       4.072  -9.023  26.655  0.00  0.00    -0.642 OA
ATOM     36  C6  GCD d 901       2.904  -9.535  26.811  0.00  0.00     0.233 C 
ATOM     37  C3  GCD d 901       0.845  -9.152  30.135  0.00  0.00     0.084 C 
ATOM     38  O3  GCD d 901      -0.015  -8.141  30.627  0.00  0.00    -0.389 OA
ATOM     39  O2  GCD d 901       1.508  -9.695  32.478  0.00  0.00    -0.388 OA
ATOM     40  C4  GCD d 901       1.180  -9.230  28.631  0.00  0.00    -0.034 C 
ATOM     41  H   GCD d 901       2.354 -11.254  30.484  0.00  0.00     0.134 H 
ATOM     42  H   GCD d 901       2.547  -8.388  31.312  0.00  0.00     0.095 H 
ATOM     43  H   GCD d 901       0.272 -10.054  30.090  0.00  0.00     0.093 H 
ATOM     44  H   GCD d 901       0.470  -7.302  30.682  0.00  0.00     0.210 HD
ATOM     45  H   GCD d 901       1.018 -10.529  32.402  0.00  0.00     0.210 HD
ATOM     46  H   GCD d 901       0.435  -9.120  27.925  0.00  0.00     0.085 H 
ENDROOT
TORSDOF 11
ENDMDL
MODEL 27
REMARK VINA RESULT:      -7.8      3.071      5.860
REMARK  0 active torsions:
REMARK  status: ('A' for Active; 'I' for Inactive)
REMARK       I    between atoms: C8_1  and  C7_18 
REMARK       I    between atoms: O6_4  and  C6_20 
REMARK       I    between atoms: C3_6  and  O3_22 
REMARK       I    between atoms: O1_7  and  C1_15 
REMARK       I    between atoms: O4_9  and  C4_11 
REMARK       I    between atoms: C1_10  and  O3_22 
REMARK       I    between atoms: C5_12  and  C6_17 
REMARK       I    between atoms: C2_13  and  O2_25 
REMARK       I    between atoms: C5_16  and  C6_20 
REMARK       I    between atoms: C7_18  and  N2_19 
REMARK       I    between atoms: N2_19  and  C2_23 
REMARK       I    between atoms: C3_21  and  O3_24 
ROOT
ATOM      1  C8  NAG d 902       1.766  -7.699  28.251  0.00  0.00    -0.003 C 
ATOM      2  O6  NAG d 902       6.538 -14.073  31.117  0.00  0.00    -0.398 OA
ATOM      3  O7  NAG d 902       1.596  -9.873  29.353  0.00  0.00    -0.274 OA
ATOM      4  C3  NAG d 902       5.242  -9.906  30.451  0.00  0.00     0.093 C 
ATOM      5  O1  NAG d 902       4.654 -11.380  27.049  0.00  0.00    -0.369 OA
ATOM      6  O5  NAG d 902       6.039 -12.172  28.857  0.00  0.00    -0.349 OA
ATOM      7  O4  NAG d 902       6.679 -10.785  32.278  0.00  0.00    -0.390 OA
ATOM      8  C4  NAG d 902       5.909 -11.144  31.107  0.00  0.00     0.089 C 
ATOM      9  C1  NAG d 902       5.376 -10.996  28.213  0.00  0.00     0.151 C 
ATOM     10  C5  NAG d 902       6.823 -11.811  30.094  0.00  0.00     0.089 C 
ATOM     11  C7  NAG d 902       2.319  -9.000  28.799  0.00  0.00     0.214 C 
ATOM     12  N2  NAG d 902       3.740  -9.100  28.653  0.00  0.00    -0.349 N 
ATOM     13  C6  NAG d 902       7.482 -13.050  30.702  0.00  0.00     0.043 C 
ATOM     14  O3  NAG d 902       4.346  -9.247  31.380  0.00  0.00    -0.348 OA
ATOM     15  C2  NAG d 902       4.431 -10.328  29.220  0.00  0.00     0.087 C 
ATOM     16  H   NAG d 902       0.705  -7.677  28.385  0.00  0.00     0.040 H 
ATOM     17  H   NAG d 902       1.994  -7.626  27.208  0.00  0.00     0.040 H 
ATOM     18  H   NAG d 902       2.207  -6.876  28.772  0.00  0.00     0.040 H 
ATOM     19  H   NAG d 902       7.021 -14.826  31.492  0.00  0.00     0.209 HD
ATOM     20  H   NAG d 902       6.023  -9.233  30.167  0.00  0.00     0.091 H 
ATOM     21  H   NAG d 902       5.258 -11.801  26.418  0.00  0.00     0.212 HD
ATOM     22  H   NAG d 902       6.099 -10.358  32.928  0.00  0.00     0.210 HD
ATOM     23  H   NAG d 902       5.133 -11.814  31.415  0.00  0.00     0.091 H 
ATOM     24  H   NAG d 902       6.134 -10.303  27.913  0.00  0.00     0.132 H 
ATOM     25  H   NAG d 902       7.599 -11.126  29.819  0.00  0.00     0.090 H 
ATOM     26  H   NAG d 902       4.254  -8.394  28.198  0.00  0.00     0.163 HD
ATOM     27  H   NAG d 902       8.139 -13.474  29.973  0.00  0.00     0.078 H 
ATOM     28  H   NAG d 902       7.998 -12.727  31.582  0.00  0.00     0.078 H 
ATOM     29  H   NAG d 902       3.672 -11.040  29.470  0.00  0.00     0.084 H 
ATOM     30  O6A GCD d 901       8.174  -4.987  32.737  0.00  0.00    -0.642 OA
ATOM     31  O5  GCD d 901       5.882  -7.817  32.391  0.00  0.00    -0.311 OA
ATOM     32  C1  GCD d 901       4.536  -7.887  31.711  0.00  0.00     0.165 C 
ATOM     33  C5  GCD d 901       6.302  -6.455  32.876  0.00  0.00     0.147 C 
ATOM     34  C2  GCD d 901       3.511  -7.391  32.684  0.00  0.00     0.111 C 
ATOM     35  O6B GCD d 901       8.405  -7.193  33.478  0.00  0.00    -0.642 OA
ATOM     36  C6  GCD d 901       7.787  -6.199  32.947  0.00  0.00     0.233 C 
ATOM     37  C3  GCD d 901       3.871  -5.887  32.949  0.00  0.00     0.084 C 
ATOM     38  O3  GCD d 901       2.942  -5.391  33.895  0.00  0.00    -0.389 OA
ATOM     39  O2  GCD d 901       2.154  -7.512  32.149  0.00  0.00    -0.388 OA
ATOM     40  C4  GCD d 901       5.362  -5.501  33.040  0.00  0.00    -0.034 C 
ATOM     41  H   GCD d 901       4.461  -7.289  30.827  0.00  0.00     0.134 H 
ATOM     42  H   GCD d 901       3.526  -7.971  33.583  0.00  0.00     0.095 H 
ATOM     43  H   GCD d 901       3.741  -5.314  32.054  0.00  0.00     0.093 H 
ATOM     44  H   GCD d 901       3.028  -5.887  34.723  0.00  0.00     0.210 HD
ATOM     45  H   GCD d 901       2.083  -7.001  31.327  0.00  0.00     0.210 HD
ATOM     46  H   GCD d 901       5.636  -4.524  33.225  0.00  0.00     0.085 H 
ENDROOT
TORSDOF 11
ENDMDL
MODEL 28
REMARK VINA RESULT:      -7.7      2.787      5.579
REMARK  0 active torsions:
REMARK  status: ('A' for Active; 'I' for Inactive)
REMARK       I    between atoms: C8_1  and  C7_18 
REMARK       I    between atoms: O6_4  and  C6_20 
REMARK       I    between atoms: C3_6  and  O3_22 
REMARK       I    between atoms: O1_7  and  C1_15 
REMARK       I    between atoms: O4_9  and  C4_11 
REMARK       I    between atoms: C1_10  and  O3_22 
REMARK       I    between atoms: C5_12  and  C6_17 
REMARK       I    between atoms: C2_13  and  O2_25 
REMARK       I    between atoms: C5_16  and  C6_20 
REMARK       I    between atoms: C7_18  and  N2_19 
REMARK       I    between atoms: N2_19  and  C2_23 
REMARK       I    between atoms: C3_21  and  O3_24 
ROOT
ATOM      1  C8  NAG d 902       3.347  -6.062  31.431  0.00  0.00    -0.003 C 
ATOM      2  O6  NAG d 902      11.760  -5.843  32.326  0.00  0.00    -0.398 OA
ATOM      3  O7  NAG d 902       5.374  -5.291  30.304  0.00  0.00    -0.274 OA
ATOM      4  C3  NAG d 902       7.684  -7.539  32.332  0.00  0.00     0.093 C 
ATOM      5  O1  NAG d 902       7.055  -4.183  33.893  0.00  0.00    -0.369 OA
ATOM      6  O5  NAG d 902       9.113  -5.418  33.662  0.00  0.00    -0.349 OA
ATOM      7  O4  NAG d 902       9.842  -8.752  32.117  0.00  0.00    -0.390 OA
ATOM      8  C4  NAG d 902       9.230  -7.447  32.247  0.00  0.00     0.089 C 
ATOM      9  C1  NAG d 902       7.620  -5.479  33.735  0.00  0.00     0.151 C 
ATOM     10  C5  NAG d 902       9.758  -6.771  33.501  0.00  0.00     0.089 C 
ATOM     11  C7  NAG d 902       4.838  -5.812  31.321  0.00  0.00     0.214 C 
ATOM     12  N2  NAG d 902       5.560  -6.269  32.471  0.00  0.00    -0.349 N 
ATOM     13  C6  NAG d 902      11.280  -6.645  33.439  0.00  0.00     0.043 C 
ATOM     14  O3  NAG d 902       7.135  -8.164  31.146  0.00  0.00    -0.348 OA
ATOM     15  C2  NAG d 902       7.073  -6.138  32.462  0.00  0.00     0.087 C 
ATOM     16  H   NAG d 902       2.859  -5.703  30.549  0.00  0.00     0.040 H 
ATOM     17  H   NAG d 902       2.962  -5.548  32.286  0.00  0.00     0.040 H 
ATOM     18  H   NAG d 902       3.168  -7.112  31.535  0.00  0.00     0.040 H 
ATOM     19  H   NAG d 902      12.729  -5.806  32.349  0.00  0.00     0.209 HD
ATOM     20  H   NAG d 902       7.443  -8.128  33.192  0.00  0.00     0.091 H 
ATOM     21  H   NAG d 902       7.405  -3.774  34.700  0.00  0.00     0.212 HD
ATOM     22  H   NAG d 902       9.507  -9.187  31.317  0.00  0.00     0.210 HD
ATOM     23  H   NAG d 902       9.480  -6.877  31.376  0.00  0.00     0.091 H 
ATOM     24  H   NAG d 902       7.347  -6.061  34.590  0.00  0.00     0.132 H 
ATOM     25  H   NAG d 902       9.510  -7.372  34.351  0.00  0.00     0.090 H 
ATOM     26  H   NAG d 902       5.090  -6.656  33.244  0.00  0.00     0.163 HD
ATOM     27  H   NAG d 902      11.618  -6.195  34.349  0.00  0.00     0.078 H 
ATOM     28  H   NAG d 902      11.669  -7.632  33.302  0.00  0.00     0.078 H 
ATOM     29  H   NAG d 902       7.339  -5.511  31.636  0.00  0.00     0.084 H 
ATOM     30  O6A GCD d 901       6.405 -13.411  33.708  0.00  0.00    -0.642 OA
ATOM     31  O5  GCD d 901       7.252 -10.386  31.835  0.00  0.00    -0.311 OA
ATOM     32  C1  GCD d 901       6.344  -9.329  31.254  0.00  0.00     0.165 C 
ATOM     33  C5  GCD d 901       6.639 -11.749  32.018  0.00  0.00     0.147 C 
ATOM     34  C2  GCD d 901       5.873  -9.821  29.920  0.00  0.00     0.111 C 
ATOM     35  O6B GCD d 901       8.501 -12.564  33.112  0.00  0.00    -0.642 OA
ATOM     36  C6  GCD d 901       7.217 -12.599  33.122  0.00  0.00     0.233 C 
ATOM     37  C3  GCD d 901       5.030 -11.110  30.218  0.00  0.00     0.084 C 
ATOM     38  O3  GCD d 901       4.595 -11.627  28.974  0.00  0.00    -0.389 OA
ATOM     39  O2  GCD d 901       5.060  -8.819  29.229  0.00  0.00    -0.388 OA
ATOM     40  C4  GCD d 901       5.520 -12.059  31.330  0.00  0.00    -0.034 C 
ATOM     41  H   GCD d 901       5.479  -9.121  31.848  0.00  0.00     0.134 H 
ATOM     42  H   GCD d 901       6.701 -10.024  29.274  0.00  0.00     0.095 H 
ATOM     43  H   GCD d 901       4.151 -10.856  30.774  0.00  0.00     0.093 H 
ATOM     44  H   GCD d 901       5.366 -11.871  28.438  0.00  0.00     0.210 HD
ATOM     45  H   GCD d 901       4.289  -8.596  29.774  0.00  0.00     0.210 HD
ATOM     46  H   GCD d 901       4.998 -12.923  31.547  0.00  0.00     0.085 H 
ENDROOT
TORSDOF 11
ENDMDL
MODEL 29
REMARK VINA RESULT:      -7.7      4.886      7.504
REMARK  0 active torsions:
REMARK  status: ('A' for Active; 'I' for Inactive)
REMARK       I    between atoms: C8_1  and  C7_18 
REMARK       I    between atoms: O6_4  and  C6_20 
REMARK       I    between atoms: C3_6  and  O3_22 
REMARK       I    between atoms: O1_7  and  C1_15 
REMARK       I    between atoms: O4_9  and  C4_11 
REMARK       I    between atoms: C1_10  and  O3_22 
REMARK       I    between atoms: C5_12  and  C6_17 
REMARK       I    between atoms: C2_13  and  O2_25 
REMARK       I    between atoms: C5_16  and  C6_20 
REMARK       I    between atoms: C7_18  and  N2_19 
REMARK       I    between atoms: N2_19  and  C2_23 
REMARK       I    between atoms: C3_21  and  O3_24 
ROOT
ATOM      1  C8  NAG d 902       0.835 -13.948  28.023  0.00  0.00    -0.003 C 
ATOM      2  O6  NAG d 902       2.731  -7.041  23.517  0.00  0.00    -0.398 OA
ATOM      3  O7  NAG d 902       2.603 -12.995  26.632  0.00  0.00    -0.274 OA
ATOM      4  C3  NAG d 902       1.299  -9.430  26.941  0.00  0.00     0.093 C 
ATOM      5  O1  NAG d 902      -0.171 -11.356  24.073  0.00  0.00    -0.369 OA
ATOM      6  O5  NAG d 902       0.638  -9.085  24.156  0.00  0.00    -0.349 OA
ATOM      7  O4  NAG d 902       2.126  -7.087  26.954  0.00  0.00    -0.390 OA
ATOM      8  C4  NAG d 902       1.886  -8.249  26.125  0.00  0.00     0.089 C 
ATOM      9  C1  NAG d 902       0.082 -10.243  24.923  0.00  0.00     0.151 C 
ATOM     10  C5  NAG d 902       0.916  -7.878  25.017  0.00  0.00     0.089 C 
ATOM     11  C7  NAG d 902       1.437 -12.902  27.107  0.00  0.00     0.214 C 
ATOM     12  N2  NAG d 902       0.558 -11.795  26.881  0.00  0.00    -0.349 N 
ATOM     13  C6  NAG d 902       1.475  -6.729  24.178  0.00  0.00     0.043 C 
ATOM     14  O3  NAG d 902       2.202  -9.828  28.002  0.00  0.00    -0.348 OA
ATOM     15  C2  NAG d 902       1.065 -10.642  26.031  0.00  0.00     0.087 C 
ATOM     16  H   NAG d 902       1.531 -14.749  28.157  0.00  0.00     0.040 H 
ATOM     17  H   NAG d 902      -0.066 -14.328  27.587  0.00  0.00     0.040 H 
ATOM     18  H   NAG d 902       0.613 -13.507  28.972  0.00  0.00     0.040 H 
ATOM     19  H   NAG d 902       3.027  -6.271  23.006  0.00  0.00     0.209 HD
ATOM     20  H   NAG d 902       0.373  -9.101  27.363  0.00  0.00     0.091 H 
ATOM     21  H   NAG d 902      -0.793 -11.095  23.376  0.00  0.00     0.212 HD
ATOM     22  H   NAG d 902       2.746  -7.320  27.664  0.00  0.00     0.210 HD
ATOM     23  H   NAG d 902       2.825  -8.563  25.717  0.00  0.00     0.091 H 
ATOM     24  H   NAG d 902      -0.850  -9.945  25.356  0.00  0.00     0.132 H 
ATOM     25  H   NAG d 902      -0.004  -7.551  25.454  0.00  0.00     0.090 H 
ATOM     26  H   NAG d 902      -0.349 -11.780  27.265  0.00  0.00     0.163 HD
ATOM     27  H   NAG d 902       0.754  -6.476  23.430  0.00  0.00     0.078 H 
ATOM     28  H   NAG d 902       1.670  -5.920  24.851  0.00  0.00     0.078 H 
ATOM     29  H   NAG d 902       1.970 -10.963  25.557  0.00  0.00     0.084 H 
ATOM     30  O6A GCD d 901      -0.779  -6.989  32.208  0.00  0.00    -0.642 OA
ATOM     31  O5  GCD d 901       1.451  -8.377  29.663  0.00  0.00    -0.311 OA
ATOM     32  C1  GCD d 901       1.771  -9.819  29.347  0.00  0.00     0.165 C 
ATOM     33  C5  GCD d 901       0.995  -8.099  31.071  0.00  0.00     0.147 C 
ATOM     34  C2  GCD d 901       2.846 -10.260  30.291  0.00  0.00     0.111 C 
ATOM     35  O6B GCD d 901       0.516  -5.891  30.600  0.00  0.00    -0.642 OA
ATOM     36  C6  GCD d 901       0.088  -6.909  31.257  0.00  0.00     0.233 C 
ATOM     37  C3  GCD d 901       2.212 -10.181  31.724  0.00  0.00     0.084 C 
ATOM     38  O3  GCD d 901       3.214 -10.558  32.650  0.00  0.00    -0.389 OA
ATOM     39  O2  GCD d 901       3.297 -11.622  30.000  0.00  0.00    -0.388 OA
ATOM     40  C4  GCD d 901       1.262  -9.006  32.034  0.00  0.00    -0.034 C 
ATOM     41  H   GCD d 901       0.943 -10.486  29.463  0.00  0.00     0.134 H 
ATOM     42  H   GCD d 901       3.712  -9.638  30.201  0.00  0.00     0.095 H 
ATOM     43  H   GCD d 901       1.418 -10.893  31.816  0.00  0.00     0.093 H 
ATOM     44  H   GCD d 901       3.954  -9.934  32.598  0.00  0.00     0.210 HD
ATOM     45  H   GCD d 901       2.547 -12.233  30.067  0.00  0.00     0.210 HD
ATOM     46  H   GCD d 901       0.835  -8.914  32.969  0.00  0.00     0.085 H 
ENDROOT
TORSDOF 11
ENDMDL
MODEL 30
REMARK VINA RESULT:      -7.7      2.637      4.449
REMARK  0 active torsions:
REMARK  status: ('A' for Active; 'I' for Inactive)
REMARK       I    between atoms: C8_1  and  C7_18 
REMARK       I    between atoms: O6_4  and  C6_20 
REMARK       I    between atoms: C3_6  and  O3_22 
REMARK       I    between atoms: O1_7  and  C1_15 
REMARK       I    between atoms: O4_9  and  C4_11 
REMARK       I    between atoms: C1_10  and  O3_22 
REMARK       I    between atoms: C5_12  and  C6_17 
REMARK       I    between atoms: C2_13  and  O2_25 
REMARK       I    between atoms: C5_16  and  C6_20 
REMARK       I    between atoms: C7_18  and  N2_19 
REMARK       I    between atoms: N2_19  and  C2_23 
REMARK       I    between atoms: C3_21  and  O3_24 
ROOT
ATOM      1  C8  NAG d 902       3.712 -11.073  30.332  0.00  0.00    -0.003 C 
ATOM      2  O6  NAG d 902      11.805 -12.330  32.461  0.00  0.00    -0.398 OA
ATOM      3  O7  NAG d 902       5.110 -11.803  32.198  0.00  0.00    -0.274 OA
ATOM      4  C3  NAG d 902       8.288 -10.263  30.775  0.00  0.00     0.093 C 
ATOM      5  O1  NAG d 902       7.650 -13.783  29.638  0.00  0.00    -0.369 OA
ATOM      6  O5  NAG d 902       9.698 -12.745  30.373  0.00  0.00    -0.349 OA
ATOM      7  O4  NAG d 902      10.431  -9.259  31.533  0.00  0.00    -0.390 OA
ATOM      8  C4  NAG d 902       9.687 -10.494  31.405  0.00  0.00     0.089 C 
ATOM      9  C1  NAG d 902       8.340 -12.547  29.778  0.00  0.00     0.151 C 
ATOM     10  C5  NAG d 902      10.471 -11.460  30.535  0.00  0.00     0.089 C 
ATOM     11  C7  NAG d 902       5.025 -11.447  30.991  0.00  0.00     0.214 C 
ATOM     12  N2  NAG d 902       6.143 -11.310  30.107  0.00  0.00    -0.349 N 
ATOM     13  C6  NAG d 902      11.850 -11.727  31.140  0.00  0.00     0.043 C 
ATOM     14  O3  NAG d 902       7.498  -9.357  31.583  0.00  0.00    -0.348 OA
ATOM     15  C2  NAG d 902       7.530 -11.591  30.662  0.00  0.00     0.087 C 
ATOM     16  H   NAG d 902       2.913 -11.193  31.034  0.00  0.00     0.040 H 
ATOM     17  H   NAG d 902       3.543 -11.708  29.488  0.00  0.00     0.040 H 
ATOM     18  H   NAG d 902       3.752 -10.054  30.009  0.00  0.00     0.040 H 
ATOM     19  H   NAG d 902      12.709 -12.471  32.783  0.00  0.00     0.209 HD
ATOM     20  H   NAG d 902       8.439  -9.839  29.804  0.00  0.00     0.091 H 
ATOM     21  H   NAG d 902       8.168 -14.381  29.078  0.00  0.00     0.212 HD
ATOM     22  H   NAG d 902       9.933  -8.638  32.088  0.00  0.00     0.210 HD
ATOM     23  H   NAG d 902       9.545 -10.897  32.386  0.00  0.00     0.091 H 
ATOM     24  H   NAG d 902       8.457 -12.127  28.801  0.00  0.00     0.132 H 
ATOM     25  H   NAG d 902      10.614 -11.023  29.568  0.00  0.00     0.090 H 
ATOM     26  H   NAG d 902       6.018 -11.042  29.168  0.00  0.00     0.163 HD
ATOM     27  H   NAG d 902      12.383 -12.385  30.487  0.00  0.00     0.078 H 
ATOM     28  H   NAG d 902      12.331 -10.777  31.248  0.00  0.00     0.078 H 
ATOM     29  H   NAG d 902       7.408 -12.060  31.616  0.00  0.00     0.084 H 
ATOM     30  O6A GCD d 901       8.511  -4.694  28.138  0.00  0.00    -0.642 OA
ATOM     31  O5  GCD d 901       8.197  -7.345  30.638  0.00  0.00    -0.311 OA
ATOM     32  C1  GCD d 901       6.988  -8.163  31.025  0.00  0.00     0.165 C 
ATOM     33  C5  GCD d 901       7.910  -5.992  30.043  0.00  0.00     0.147 C 
ATOM     34  C2  GCD d 901       6.201  -7.364  32.018  0.00  0.00     0.111 C 
ATOM     35  O6B GCD d 901      10.133  -5.612  29.550  0.00  0.00    -0.642 OA
ATOM     36  C6  GCD d 901       8.945  -5.448  29.090  0.00  0.00     0.233 C 
ATOM     37  C3  GCD d 901       5.724  -6.083  31.248  0.00  0.00     0.084 C 
ATOM     38  O3  GCD d 901       5.004  -5.282  32.166  0.00  0.00    -0.389 OA
ATOM     39  O2  GCD d 901       5.055  -8.116  32.531  0.00  0.00    -0.388 OA
ATOM     40  C4  GCD d 901       6.697  -5.436  30.241  0.00  0.00    -0.034 C 
ATOM     41  H   GCD d 901       6.339  -8.398  30.208  0.00  0.00     0.134 H 
ATOM     42  H   GCD d 901       6.798  -7.120  32.871  0.00  0.00     0.095 H 
ATOM     43  H   GCD d 901       5.042  -6.354  30.468  0.00  0.00     0.093 H 
ATOM     44  H   GCD d 901       5.590  -5.015  32.891  0.00  0.00     0.210 HD
ATOM     45  H   GCD d 901       4.475  -8.365  31.794  0.00  0.00     0.210 HD
ATOM     46  H   GCD d 901       6.423  -4.585  29.724  0.00  0.00     0.085 H 
ENDROOT
TORSDOF 11
ENDMDL
MODEL 31
REMARK VINA RESULT:      -7.6      3.161      7.018
REMARK  0 active torsions:
REMARK  status: ('A' for Active; 'I' for Inactive)
REMARK       I    between atoms: C8_1  and  C7_18 
REMARK       I    between atoms: O6_4  and  C6_20 
REMARK       I    between atoms: C3_6  and  O3_22 
REMARK       I    between atoms: O1_7  and  C1_15 
REMARK       I    between atoms: O4_9  and  C4_11 
REMARK       I    between atoms: C1_10  and  O3_22 
REMARK       I    between atoms: C5_12  and  C6_17 
REMARK       I    between atoms: C2_13  and  O2_25 
REMARK       I    between atoms: C5_16  and  C6_20 
REMARK       I    between atoms: C7_18  and  N2_19 
REMARK       I    between atoms: N2_19  and  C2_23 
REMARK       I    between atoms: C3_21  and  O3_24 
ROOT
ATOM      1  C8  NAG d 902       9.128  -4.421  29.268  0.00  0.00    -0.003 C 
ATOM      2  O6  NAG d 902       1.872  -6.610  33.032  0.00  0.00    -0.398 OA
ATOM      3  O7  NAG d 902       7.839  -4.041  31.309  0.00  0.00    -0.274 OA
ATOM      4  C3  NAG d 902       5.664  -7.131  30.834  0.00  0.00     0.093 C 
ATOM      5  O1  NAG d 902       4.313  -4.039  29.187  0.00  0.00    -0.369 OA
ATOM      6  O5  NAG d 902       3.173  -5.722  30.485  0.00  0.00    -0.349 OA
ATOM      7  O4  NAG d 902       4.429  -8.823  32.171  0.00  0.00    -0.390 OA
ATOM      8  C4  NAG d 902       4.441  -7.442  31.736  0.00  0.00     0.089 C 
ATOM      9  C1  NAG d 902       4.350  -5.393  29.621  0.00  0.00     0.151 C 
ATOM     10  C5  NAG d 902       3.166  -7.152  30.964  0.00  0.00     0.089 C 
ATOM     11  C7  NAG d 902       7.912  -4.563  30.162  0.00  0.00     0.214 C 
ATOM     12  N2  NAG d 902       6.892  -5.382  29.579  0.00  0.00    -0.349 N 
ATOM     13  C6  NAG d 902       1.939  -7.429  31.834  0.00  0.00     0.043 C 
ATOM     14  O3  NAG d 902       6.905  -7.379  31.538  0.00  0.00    -0.348 OA
ATOM     15  C2  NAG d 902       5.645  -5.660  30.400  0.00  0.00     0.087 C 
ATOM     16  H   NAG d 902       9.856  -3.802  29.751  0.00  0.00     0.040 H 
ATOM     17  H   NAG d 902       8.838  -3.972  28.341  0.00  0.00     0.040 H 
ATOM     18  H   NAG d 902       9.549  -5.386  29.082  0.00  0.00     0.040 H 
ATOM     19  H   NAG d 902       1.073  -6.836  33.534  0.00  0.00     0.209 HD
ATOM     20  H   NAG d 902       5.603  -7.770  29.978  0.00  0.00     0.091 H 
ATOM     21  H   NAG d 902       3.492  -3.880  28.696  0.00  0.00     0.212 HD
ATOM     22  H   NAG d 902       5.243  -9.012  32.665  0.00  0.00     0.210 HD
ATOM     23  H   NAG d 902       4.506  -6.823  32.607  0.00  0.00     0.091 H 
ATOM     24  H   NAG d 902       4.315  -6.016  28.752  0.00  0.00     0.132 H 
ATOM     25  H   NAG d 902       3.119  -7.798  30.112  0.00  0.00     0.090 H 
ATOM     26  H   NAG d 902       6.996  -5.753  28.673  0.00  0.00     0.163 HD
ATOM     27  H   NAG d 902       1.063  -7.243  31.249  0.00  0.00     0.078 H 
ATOM     28  H   NAG d 902       2.010  -8.446  32.156  0.00  0.00     0.078 H 
ATOM     29  H   NAG d 902       5.656  -4.998  31.241  0.00  0.00     0.084 H 
ATOM     30  O6A GCD d 901       7.835 -12.593  28.971  0.00  0.00    -0.642 OA
ATOM     31  O5  GCD d 901       7.160  -9.634  31.013  0.00  0.00    -0.311 OA
ATOM     32  C1  GCD d 901       7.851  -8.292  31.019  0.00  0.00     0.165 C 
ATOM     33  C5  GCD d 901       7.987 -10.795  30.527  0.00  0.00     0.147 C 
ATOM     34  C2  GCD d 901       9.063  -8.410  31.889  0.00  0.00     0.111 C 
ATOM     35  O6B GCD d 901       6.195 -12.249  30.602  0.00  0.00    -0.642 OA
ATOM     36  C6  GCD d 901       7.229 -11.941  29.904  0.00  0.00     0.233 C 
ATOM     37  C3  GCD d 901       9.992  -9.458  31.182  0.00  0.00     0.084 C 
ATOM     38  O3  GCD d 901      11.138  -9.625  31.997  0.00  0.00    -0.389 OA
ATOM     39  O2  GCD d 901       9.751  -7.127  32.038  0.00  0.00    -0.388 OA
ATOM     40  C4  GCD d 901       9.331 -10.676  30.505  0.00  0.00    -0.034 C 
ATOM     41  H   GCD d 901       8.174  -7.962  30.054  0.00  0.00     0.134 H 
ATOM     42  H   GCD d 901       8.794  -8.716  32.879  0.00  0.00     0.095 H 
ATOM     43  H   GCD d 901      10.331  -9.075  30.242  0.00  0.00     0.093 H 
ATOM     44  H   GCD d 901      10.871  -9.972  32.862  0.00  0.00     0.210 HD
ATOM     45  H   GCD d 901      10.019  -6.800  31.165  0.00  0.00     0.210 HD
ATOM     46  H   GCD d 901       9.910 -11.392  30.040  0.00  0.00     0.085 H 
ENDROOT
TORSDOF 11
ENDMDL
MODEL 32
REMARK VINA RESULT:      -7.6      5.025      7.733
REMARK  0 active torsions:
REMARK  status: ('A' for Active; 'I' for Inactive)
REMARK       I    between atoms: C8_1  and  C7_18 
REMARK       I    between atoms: O6_4  and  C6_20 
REMARK       I    between atoms: C3_6  and  O3_22 
REMARK       I    between atoms: O1_7  and  C1_15 
REMARK       I    between atoms: O4_9  and  C4_11 
REMARK       I    between atoms: C1_10  and  O3_22 
REMARK       I    between atoms: C5_12  and  C6_17 
REMARK       I    between atoms: C2_13  and  O2_25 
REMARK       I    between atoms: C5_16  and  C6_20 
REMARK       I    between atoms: C7_18  and  N2_19 
REMARK       I    between atoms: N2_19  and  C2_23 
REMARK       I    between atoms: C3_21  and  O3_24 
ROOT
ATOM      1  C8  NAG d 902       1.693 -13.234  27.078  0.00  0.00    -0.003 C 
ATOM      2  O6  NAG d 902       1.792  -5.013  25.069  0.00  0.00    -0.398 OA
ATOM      3  O7  NAG d 902       3.184 -11.480  26.259  0.00  0.00    -0.274 OA
ATOM      4  C3  NAG d 902       0.937  -8.640  27.435  0.00  0.00     0.093 C 
ATOM      5  O1  NAG d 902       0.173  -9.863  23.969  0.00  0.00    -0.369 OA
ATOM      6  O5  NAG d 902       0.320  -7.609  24.815  0.00  0.00    -0.349 OA
ATOM      7  O4  NAG d 902       1.084  -6.293  28.238  0.00  0.00    -0.390 OA
ATOM      8  C4  NAG d 902       1.208  -7.154  27.081  0.00  0.00     0.089 C 
ATOM      9  C1  NAG d 902       0.074  -9.050  25.133  0.00  0.00     0.151 C 
ATOM     10  C5  NAG d 902       0.219  -6.707  26.019  0.00  0.00     0.089 C 
ATOM     11  C7  NAG d 902       2.020 -11.836  26.591  0.00  0.00     0.214 C 
ATOM     12  N2  NAG d 902       0.879 -10.970  26.592  0.00  0.00    -0.349 N 
ATOM     13  C6  NAG d 902       0.473  -5.250  25.631  0.00  0.00     0.043 C 
ATOM     14  O3  NAG d 902       1.870  -9.114  28.436  0.00  0.00    -0.348 OA
ATOM     15  C2  NAG d 902       1.084  -9.520  26.188  0.00  0.00     0.087 C 
ATOM     16  H   NAG d 902       2.577 -13.836  27.056  0.00  0.00     0.040 H 
ATOM     17  H   NAG d 902       0.950 -13.668  26.441  0.00  0.00     0.040 H 
ATOM     18  H   NAG d 902       1.320 -13.185  28.079  0.00  0.00     0.040 H 
ATOM     19  H   NAG d 902       1.885  -4.074  24.847  0.00  0.00     0.209 HD
ATOM     20  H   NAG d 902      -0.061  -8.703  27.817  0.00  0.00     0.091 H 
ATOM     21  H   NAG d 902      -0.468  -9.559  23.308  0.00  0.00     0.212 HD
ATOM     22  H   NAG d 902       1.715  -6.576  28.920  0.00  0.00     0.210 HD
ATOM     23  H   NAG d 902       2.212  -7.079  26.720  0.00  0.00     0.091 H 
ATOM     24  H   NAG d 902      -0.921  -9.147  25.514  0.00  0.00     0.132 H 
ATOM     25  H   NAG d 902      -0.773  -6.775  26.415  0.00  0.00     0.090 H 
ATOM     26  H   NAG d 902      -0.011 -11.304  26.848  0.00  0.00     0.163 HD
ATOM     27  H   NAG d 902      -0.258  -4.962  24.906  0.00  0.00     0.078 H 
ATOM     28  H   NAG d 902       0.410  -4.674  26.530  0.00  0.00     0.078 H 
ATOM     29  H   NAG d 902       2.060  -9.438  25.758  0.00  0.00     0.084 H 
ATOM     30  O6A GCD d 901      -1.947  -8.589  32.885  0.00  0.00    -0.642 OA
ATOM     31  O5  GCD d 901       0.681  -8.499  30.343  0.00  0.00    -0.311 OA
ATOM     32  C1  GCD d 901       1.399  -9.639  29.661  0.00  0.00     0.165 C 
ATOM     33  C5  GCD d 901       0.110  -8.803  31.702  0.00  0.00     0.147 C 
ATOM     34  C2  GCD d 901       2.515 -10.072  30.559  0.00  0.00     0.111 C 
ATOM     35  O6B GCD d 901      -0.941  -6.753  31.844  0.00  0.00    -0.642 OA
ATOM     36  C6  GCD d 901      -1.098  -7.999  32.115  0.00  0.00     0.233 C 
ATOM     37  C3  GCD d 901       1.825 -10.611  31.862  0.00  0.00     0.084 C 
ATOM     38  O3  GCD d 901       2.854 -10.999  32.754  0.00  0.00    -0.389 OA
ATOM     39  O2  GCD d 901       3.336 -11.115  29.940  0.00  0.00    -0.388 OA
ATOM     40  C4  GCD d 901       0.577  -9.871  32.383  0.00  0.00    -0.034 C 
ATOM     41  H   GCD d 901       0.783 -10.493  29.471  0.00  0.00     0.134 H 
ATOM     42  H   GCD d 901       3.179  -9.259  30.764  0.00  0.00     0.095 H 
ATOM     43  H   GCD d 901       1.256 -11.490  31.641  0.00  0.00     0.093 H 
ATOM     44  H   GCD d 901       3.395 -10.227  32.980  0.00  0.00     0.210 HD
ATOM     45  H   GCD d 901       2.780 -11.882  29.732  0.00  0.00     0.210 HD
ATOM     46  H   GCD d 901       0.103 -10.189  33.243  0.00  0.00     0.085 H 
ENDROOT
TORSDOF 11
ENDMDL
MODEL 33
REMARK VINA RESULT:      -7.6      3.172      6.206
REMARK  0 active torsions:
REMARK  status: ('A' for Active; 'I' for Inactive)
REMARK       I    between atoms: C8_1  and  C7_18 
REMARK       I    between atoms: O6_4  and  C6_20 
REMARK       I    between atoms: C3_6  and  O3_22 
REMARK       I    between atoms: O1_7  and  C1_15 
REMARK       I    between atoms: O4_9  and  C4_11 
REMARK       I    between atoms: C1_10  and  O3_22 
REMARK       I    between atoms: C5_12  and  C6_17 
REMARK       I    between atoms: C2_13  and  O2_25 
REMARK       I    between atoms: C5_16  and  C6_20 
REMARK       I    between atoms: C7_18  and  N2_19 
REMARK       I    between atoms: N2_19  and  C2_23 
REMARK       I    between atoms: C3_21  and  O3_24 
ROOT
ATOM      1  C8  NAG d 902       6.626  -7.222  30.193  0.00  0.00    -0.003 C 
ATOM      2  O6  NAG d 902       1.123 -11.492  35.000  0.00  0.00    -0.398 OA
ATOM      3  O7  NAG d 902       6.504  -8.574  32.225  0.00  0.00    -0.274 OA
ATOM      4  C3  NAG d 902       3.142 -10.118  31.323  0.00  0.00     0.093 C 
ATOM      5  O1  NAG d 902       2.884  -6.896  33.232  0.00  0.00    -0.369 OA
ATOM      6  O5  NAG d 902       1.656  -8.954  33.502  0.00  0.00    -0.349 OA
ATOM      7  O4  NAG d 902       1.848 -12.212  31.663  0.00  0.00    -0.390 OA
ATOM      8  C4  NAG d 902       2.339 -11.011  32.305  0.00  0.00     0.089 C 
ATOM      9  C1  NAG d 902       2.444  -8.080  32.578  0.00  0.00     0.151 C 
ATOM     10  C5  NAG d 902       1.162 -10.220  32.849  0.00  0.00     0.089 C 
ATOM     11  C7  NAG d 902       5.903  -8.004  31.273  0.00  0.00     0.214 C 
ATOM     12  N2  NAG d 902       4.488  -8.053  31.064  0.00  0.00    -0.349 N 
ATOM     13  C6  NAG d 902       0.361 -11.066  33.838  0.00  0.00     0.043 C 
ATOM     14  O3  NAG d 902       4.286 -10.830  30.791  0.00  0.00    -0.348 OA
ATOM     15  C2  NAG d 902       3.650  -8.862  32.040  0.00  0.00     0.087 C 
ATOM     16  H   NAG d 902       7.675  -7.217  30.397  0.00  0.00     0.040 H 
ATOM     17  H   NAG d 902       6.261  -6.216  30.177  0.00  0.00     0.040 H 
ATOM     18  H   NAG d 902       6.450  -7.680  29.243  0.00  0.00     0.040 H 
ATOM     19  H   NAG d 902       0.555 -12.021  35.582  0.00  0.00     0.209 HD
ATOM     20  H   NAG d 902       2.485  -9.847  30.523  0.00  0.00     0.091 H 
ATOM     21  H   NAG d 902       2.117  -6.408  33.568  0.00  0.00     0.212 HD
ATOM     22  H   NAG d 902       2.597 -12.721  31.314  0.00  0.00     0.210 HD
ATOM     23  H   NAG d 902       2.996 -11.306  33.097  0.00  0.00     0.091 H 
ATOM     24  H   NAG d 902       1.811  -7.788  31.767  0.00  0.00     0.132 H 
ATOM     25  H   NAG d 902       0.514  -9.957  32.039  0.00  0.00     0.090 H 
ATOM     26  H   NAG d 902       4.069  -7.577  30.311  0.00  0.00     0.163 HD
ATOM     27  H   NAG d 902      -0.474 -10.489  34.176  0.00  0.00     0.078 H 
ATOM     28  H   NAG d 902       0.063 -11.953  33.319  0.00  0.00     0.078 H 
ATOM     29  H   NAG d 902       4.273  -9.106  32.876  0.00  0.00     0.084 H 
ATOM     30  O6A GCD d 901       1.684 -12.079  25.662  0.00  0.00    -0.642 OA
ATOM     31  O5  GCD d 901       3.255 -11.827  28.956  0.00  0.00    -0.311 OA
ATOM     32  C1  GCD d 901       4.437 -10.998  29.396  0.00  0.00     0.165 C 
ATOM     33  C5  GCD d 901       3.207 -12.175  27.491  0.00  0.00     0.147 C 
ATOM     34  C2  GCD d 901       5.678 -11.759  29.047  0.00  0.00     0.111 C 
ATOM     35  O6B GCD d 901       1.113 -13.131  27.671  0.00  0.00    -0.642 OA
ATOM     36  C6  GCD d 901       1.837 -12.399  26.902  0.00  0.00     0.233 C 
ATOM     37  C3  GCD d 901       5.685 -11.864  27.482  0.00  0.00     0.084 C 
ATOM     38  O3  GCD d 901       6.830 -12.611  27.114  0.00  0.00    -0.389 OA
ATOM     39  O2  GCD d 901       6.883 -11.078  29.525  0.00  0.00    -0.388 OA
ATOM     40  C4  GCD d 901       4.339 -12.091  26.763  0.00  0.00    -0.034 C 
ATOM     41  H   GCD d 901       4.499 -10.040  28.925  0.00  0.00     0.134 H 
ATOM     42  H   GCD d 901       5.680 -12.721  29.514  0.00  0.00     0.095 H 
ATOM     43  H   GCD d 901       5.793 -10.892  27.047  0.00  0.00     0.093 H 
ATOM     44  H   GCD d 901       6.769 -13.502  27.490  0.00  0.00     0.210 HD
ATOM     45  H   GCD d 901       6.933 -10.193  29.130  0.00  0.00     0.210 HD
ATOM     46  H   GCD d 901       4.306 -12.177  25.735  0.00  0.00     0.085 H 
ENDROOT
TORSDOF 11
ENDMDL
MODEL 34
REMARK VINA RESULT:      -7.6      2.836      5.726
REMARK  0 active torsions:
REMARK  status: ('A' for Active; 'I' for Inactive)
REMARK       I    between atoms: C8_1  and  C7_18 
REMARK       I    between atoms: O6_4  and  C6_20 
REMARK       I    between atoms: C3_6  and  O3_22 
REMARK       I    between atoms: O1_7  and  C1_15 
REMARK       I    between atoms: O4_9  and  C4_11 
REMARK       I    between atoms: C1_10  and  O3_22 
REMARK       I    between atoms: C5_12  and  C6_17 
REMARK       I    between atoms: C2_13  and  O2_25 
REMARK       I    between atoms: C5_16  and  C6_20 
REMARK       I    between atoms: C7_18  and  N2_19 
REMARK       I    between atoms: N2_19  and  C2_23 
REMARK       I    between atoms: C3_21  and  O3_24 
ROOT
ATOM      1  C8  NAG d 902       9.269 -10.246  30.589  0.00  0.00    -0.003 C 
ATOM      2  O6  NAG d 902       1.828 -14.129  31.671  0.00  0.00    -0.398 OA
ATOM      3  O7  NAG d 902       7.674 -11.688  29.427  0.00  0.00    -0.274 OA
ATOM      4  C3  NAG d 902       4.799 -10.866  31.785  0.00  0.00     0.093 C 
ATOM      5  O1  NAG d 902       6.901 -13.774  32.889  0.00  0.00    -0.369 OA
ATOM      6  O5  NAG d 902       4.503 -13.520  32.872  0.00  0.00    -0.349 OA
ATOM      7  O4  NAG d 902       2.321 -10.676  31.784  0.00  0.00    -0.390 OA
ATOM      8  C4  NAG d 902       3.433 -11.601  31.730  0.00  0.00     0.089 C 
ATOM      9  C1  NAG d 902       5.833 -12.835  32.912  0.00  0.00     0.151 C 
ATOM     10  C5  NAG d 902       3.338 -12.563  32.901  0.00  0.00     0.089 C 
ATOM     11  C7  NAG d 902       8.018 -11.096  30.487  0.00  0.00     0.214 C 
ATOM     12  N2  NAG d 902       7.263 -11.114  31.704  0.00  0.00    -0.349 N 
ATOM     13  C6  NAG d 902       2.010 -13.320  32.864  0.00  0.00     0.043 C 
ATOM     14  O3  NAG d 902       4.939  -9.947  30.674  0.00  0.00    -0.348 OA
ATOM     15  C2  NAG d 902       5.950 -11.877  31.719  0.00  0.00     0.087 C 
ATOM     16  H   NAG d 902       9.792 -10.268  29.656  0.00  0.00     0.040 H 
ATOM     17  H   NAG d 902       9.901 -10.633  31.361  0.00  0.00     0.040 H 
ATOM     18  H   NAG d 902       8.997  -9.238  30.821  0.00  0.00     0.040 H 
ATOM     19  H   NAG d 902       0.969 -14.579  31.714  0.00  0.00     0.209 HD
ATOM     20  H   NAG d 902       4.835 -10.323  32.706  0.00  0.00     0.091 H 
ATOM     21  H   NAG d 902       6.820 -14.375  33.645  0.00  0.00     0.212 HD
ATOM     22  H   NAG d 902       2.378 -10.059  31.037  0.00  0.00     0.210 HD
ATOM     23  H   NAG d 902       3.379 -12.128  30.801  0.00  0.00     0.091 H 
ATOM     24  H   NAG d 902       5.901 -12.285  33.826  0.00  0.00     0.132 H 
ATOM     25  H   NAG d 902       3.376 -12.006  33.814  0.00  0.00     0.090 H 
ATOM     26  H   NAG d 902       7.586 -10.645  32.508  0.00  0.00     0.163 HD
ATOM     27  H   NAG d 902       1.966 -13.964  33.718  0.00  0.00     0.078 H 
ATOM     28  H   NAG d 902       1.233 -12.585  32.864  0.00  0.00     0.078 H 
ATOM     29  H   NAG d 902       5.909 -12.468  30.827  0.00  0.00     0.084 H 
ATOM     30  O6A GCD d 901       3.591  -5.189  33.864  0.00  0.00    -0.642 OA
ATOM     31  O5  GCD d 901       3.952  -8.073  31.644  0.00  0.00    -0.311 OA
ATOM     32  C1  GCD d 901       5.172  -8.574  30.909  0.00  0.00     0.165 C 
ATOM     33  C5  GCD d 901       3.946  -6.606  31.982  0.00  0.00     0.147 C 
ATOM     34  C2  GCD d 901       5.286  -7.792  29.637  0.00  0.00     0.111 C 
ATOM     35  O6B GCD d 901       2.007  -6.783  33.221  0.00  0.00    -0.642 OA
ATOM     36  C6  GCD d 901       3.153  -6.204  33.201  0.00  0.00     0.233 C 
ATOM     37  C3  GCD d 901       5.529  -6.305  30.074  0.00  0.00     0.084 C 
ATOM     38  O3  GCD d 901       5.607  -5.525  28.895  0.00  0.00    -0.389 OA
ATOM     39  O2  GCD d 901       6.389  -8.272  28.802  0.00  0.00    -0.388 OA
ATOM     40  C4  GCD d 901       4.773  -5.778  31.311  0.00  0.00    -0.034 C 
ATOM     41  H   GCD d 901       6.088  -8.453  31.448  0.00  0.00     0.134 H 
ATOM     42  H   GCD d 901       4.401  -7.896  29.044  0.00  0.00     0.095 H 
ATOM     43  H   GCD d 901       6.474  -6.216  30.570  0.00  0.00     0.093 H 
ATOM     44  H   GCD d 901       4.766  -5.580  28.415  0.00  0.00     0.210 HD
ATOM     45  H   GCD d 901       7.222  -8.200  29.294  0.00  0.00     0.210 HD
ATOM     46  H   GCD d 901       4.899  -4.802  31.621  0.00  0.00     0.085 H 
ENDROOT
TORSDOF 11
ENDMDL
MODEL 35
REMARK VINA RESULT:      -7.6      3.208      6.981
REMARK  0 active torsions:
REMARK  status: ('A' for Active; 'I' for Inactive)
REMARK       I    between atoms: C8_1  and  C7_18 
REMARK       I    between atoms: O6_4  and  C6_20 
REMARK       I    between atoms: C3_6  and  O3_22 
REMARK       I    between atoms: O1_7  and  C1_15 
REMARK       I    between atoms: O4_9  and  C4_11 
REMARK       I    between atoms: C1_10  and  O3_22 
REMARK       I    between atoms: C5_12  and  C6_17 
REMARK       I    between atoms: C2_13  and  O2_25 
REMARK       I    between atoms: C5_16  and  C6_20 
REMARK       I    between atoms: C7_18  and  N2_19 
REMARK       I    between atoms: N2_19  and  C2_23 
REMARK       I    between atoms: C3_21  and  O3_24 
ROOT
ATOM      1  C8  NAG d 902       2.375  -7.688  33.103  0.00  0.00    -0.003 C 
ATOM      2  O6  NAG d 902      -0.250 -11.452  25.992  0.00  0.00    -0.398 OA
ATOM      3  O7  NAG d 902       0.528  -9.013  32.207  0.00  0.00    -0.274 OA
ATOM      4  C3  NAG d 902       2.523 -10.274  29.218  0.00  0.00     0.093 C 
ATOM      5  O1  NAG d 902       0.734  -7.031  28.607  0.00  0.00    -0.369 OA
ATOM      6  O5  NAG d 902       0.931  -8.977  27.195  0.00  0.00    -0.349 OA
ATOM      7  O4  NAG d 902       2.676 -12.250  27.719  0.00  0.00    -0.390 OA
ATOM      8  C4  NAG d 902       1.882 -11.091  28.066  0.00  0.00     0.089 C 
ATOM      9  C1  NAG d 902       1.523  -8.178  28.313  0.00  0.00     0.151 C 
ATOM     10  C5  NAG d 902       1.738 -10.201  26.844  0.00  0.00     0.089 C 
ATOM     11  C7  NAG d 902       1.612  -8.400  32.003  0.00  0.00     0.214 C 
ATOM     12  N2  NAG d 902       2.277  -8.331  30.737  0.00  0.00    -0.349 N 
ATOM     13  C6  NAG d 902       1.088 -10.971  25.694  0.00  0.00     0.043 C 
ATOM     14  O3  NAG d 902       2.664 -11.083  30.412  0.00  0.00    -0.348 OA
ATOM     15  C2  NAG d 902       1.650  -9.061  29.561  0.00  0.00     0.087 C 
ATOM     16  H   NAG d 902       1.836  -7.771  34.023  0.00  0.00     0.040 H 
ATOM     17  H   NAG d 902       2.488  -6.655  32.847  0.00  0.00     0.040 H 
ATOM     18  H   NAG d 902       3.340  -8.136  33.215  0.00  0.00     0.040 H 
ATOM     19  H   NAG d 902      -0.600 -11.929  25.223  0.00  0.00     0.209 HD
ATOM     20  H   NAG d 902       3.488  -9.954  28.887  0.00  0.00     0.091 H 
ATOM     21  H   NAG d 902       0.659  -6.479  27.813  0.00  0.00     0.212 HD
ATOM     22  H   NAG d 902       2.770 -12.822  28.497  0.00  0.00     0.210 HD
ATOM     23  H   NAG d 902       0.924 -11.435  28.398  0.00  0.00     0.091 H 
ATOM     24  H   NAG d 902       2.491  -7.838  28.009  0.00  0.00     0.132 H 
ATOM     25  H   NAG d 902       2.711  -9.888  26.524  0.00  0.00     0.090 H 
ATOM     26  H   NAG d 902       3.115  -7.826  30.631  0.00  0.00     0.163 HD
ATOM     27  H   NAG d 902       1.032 -10.324  24.845  0.00  0.00     0.078 H 
ATOM     28  H   NAG d 902       1.696 -11.833  25.514  0.00  0.00     0.078 H 
ATOM     29  H   NAG d 902       0.662  -9.353  29.850  0.00  0.00     0.084 H 
ATOM     30  O6A GCD d 901       8.391 -12.138  29.559  0.00  0.00    -0.642 OA
ATOM     31  O5  GCD d 901       4.758 -12.001  29.968  0.00  0.00    -0.311 OA
ATOM     32  C1  GCD d 901       3.934 -11.271  31.001  0.00  0.00     0.165 C 
ATOM     33  C5  GCD d 901       6.164 -12.352  30.379  0.00  0.00     0.147 C 
ATOM     34  C2  GCD d 901       3.871 -12.136  32.222  0.00  0.00     0.111 C 
ATOM     35  O6B GCD d 901       6.706 -13.127  28.273  0.00  0.00    -0.642 OA
ATOM     36  C6  GCD d 901       7.177 -12.462  29.267  0.00  0.00     0.233 C 
ATOM     37  C3  GCD d 901       5.349 -12.250  32.737  0.00  0.00     0.084 C 
ATOM     38  O3  GCD d 901       5.335 -13.093  33.875  0.00  0.00    -0.389 OA
ATOM     39  O2  GCD d 901       3.007 -11.556  33.253  0.00  0.00    -0.388 OA
ATOM     40  C4  GCD d 901       6.476 -12.367  31.691  0.00  0.00    -0.034 C 
ATOM     41  H   GCD d 901       4.337 -10.324  31.293  0.00  0.00     0.134 H 
ATOM     42  H   GCD d 901       3.451 -13.093  31.991  0.00  0.00     0.095 H 
ATOM     43  H   GCD d 901       5.701 -11.293  33.062  0.00  0.00     0.093 H 
ATOM     44  H   GCD d 901       5.020 -13.974  33.621  0.00  0.00     0.210 HD
ATOM     45  H   GCD d 901       3.344 -10.681  33.501  0.00  0.00     0.210 HD
ATOM     46  H   GCD d 901       7.459 -12.455  31.993  0.00  0.00     0.085 H 
ENDROOT
TORSDOF 11
ENDMDL
MODEL 36
REMARK VINA RESULT:      -7.5      2.730      5.336
REMARK  0 active torsions:
REMARK  status: ('A' for Active; 'I' for Inactive)
REMARK       I    between atoms: C8_1  and  C7_18 
REMARK       I    between atoms: O6_4  and  C6_20 
REMARK       I    between atoms: C3_6  and  O3_22 
REMARK       I    between atoms: O1_7  and  C1_15 
REMARK       I    between atoms: O4_9  and  C4_11 
REMARK       I    between atoms: C1_10  and  O3_22 
REMARK       I    between atoms: C5_12  and  C6_17 
REMARK       I    between atoms: C2_13  and  O2_25 
REMARK       I    between atoms: C5_16  and  C6_20 
REMARK       I    between atoms: C7_18  and  N2_19 
REMARK       I    between atoms: N2_19  and  C2_23 
REMARK       I    between atoms: C3_21  and  O3_24 
ROOT
ATOM      1  C8  NAG d 902       3.101  -6.318  33.128  0.00  0.00    -0.003 C 
ATOM      2  O6  NAG d 902      10.628  -5.374  29.375  0.00  0.00    -0.398 OA
ATOM      3  O7  NAG d 902       4.128  -5.458  31.084  0.00  0.00    -0.274 OA
ATOM      4  C3  NAG d 902       7.375  -7.385  31.580  0.00  0.00     0.093 C 
ATOM      5  O1  NAG d 902       7.340  -4.000  33.203  0.00  0.00    -0.369 OA
ATOM      6  O5  NAG d 902       9.071  -5.079  31.917  0.00  0.00    -0.349 OA
ATOM      7  O4  NAG d 902       9.196  -8.433  30.254  0.00  0.00    -0.390 OA
ATOM      8  C4  NAG d 902       8.621  -7.175  30.679  0.00  0.00     0.089 C 
ATOM      9  C1  NAG d 902       7.861  -5.254  32.779  0.00  0.00     0.151 C 
ATOM     10  C5  NAG d 902       9.664  -6.384  31.448  0.00  0.00     0.089 C 
ATOM     11  C7  NAG d 902       4.272  -5.957  32.234  0.00  0.00     0.214 C 
ATOM     12  N2  NAG d 902       5.536  -6.283  32.822  0.00  0.00    -0.349 N 
ATOM     13  C6  NAG d 902      10.898  -6.141  30.580  0.00  0.00     0.043 C 
ATOM     14  O3  NAG d 902       6.345  -8.124  30.878  0.00  0.00    -0.348 OA
ATOM     15  C2  NAG d 902       6.790  -6.032  32.003  0.00  0.00     0.087 C 
ATOM     16  H   NAG d 902       2.186  -6.054  32.642  0.00  0.00     0.040 H 
ATOM     17  H   NAG d 902       3.181  -5.784  34.052  0.00  0.00     0.040 H 
ATOM     18  H   NAG d 902       3.111  -7.370  33.322  0.00  0.00     0.040 H 
ATOM     19  H   NAG d 902      11.451  -5.257  28.875  0.00  0.00     0.209 HD
ATOM     20  H   NAG d 902       7.690  -7.938  32.440  0.00  0.00     0.091 H 
ATOM     21  H   NAG d 902       8.022  -3.516  33.693  0.00  0.00     0.212 HD
ATOM     22  H   NAG d 902       8.533  -8.942  29.761  0.00  0.00     0.210 HD
ATOM     23  H   NAG d 902       8.310  -6.642  29.804  0.00  0.00     0.091 H 
ATOM     24  H   NAG d 902       8.145  -5.802  33.653  0.00  0.00     0.132 H 
ATOM     25  H   NAG d 902       9.968  -6.949  32.305  0.00  0.00     0.090 H 
ATOM     26  H   NAG d 902       5.591  -6.658  33.731  0.00  0.00     0.163 HD
ATOM     27  H   NAG d 902      11.621  -5.609  31.162  0.00  0.00     0.078 H 
ATOM     28  H   NAG d 902      11.251  -7.100  30.264  0.00  0.00     0.078 H 
ATOM     29  H   NAG d 902       6.511  -5.438  31.157  0.00  0.00     0.084 H 
ATOM     30  O6A GCD d 901       7.622 -13.245  33.482  0.00  0.00    -0.642 OA
ATOM     31  O5  GCD d 901       7.033 -10.283  31.419  0.00  0.00    -0.311 OA
ATOM     32  C1  GCD d 901       5.854  -9.340  31.404  0.00  0.00     0.165 C 
ATOM     33  C5  GCD d 901       6.753 -11.677  31.914  0.00  0.00     0.147 C 
ATOM     34  C2  GCD d 901       4.799  -9.949  30.535  0.00  0.00     0.111 C 
ATOM     35  O6B GCD d 901       8.982 -12.271  31.848  0.00  0.00    -0.642 OA
ATOM     36  C6  GCD d 901       7.911 -12.408  32.544  0.00  0.00     0.233 C 
ATOM     37  C3  GCD d 901       4.377 -11.281  31.250  0.00  0.00     0.084 C 
ATOM     38  O3  GCD d 901       3.402 -11.907  30.437  0.00  0.00    -0.389 OA
ATOM     39  O2  GCD d 901       3.646  -9.060  30.377  0.00  0.00    -0.388 OA
ATOM     40  C4  GCD d 901       5.477 -12.117  31.936  0.00  0.00    -0.034 C 
ATOM     41  H   GCD d 901       5.422  -9.165  32.367  0.00  0.00     0.134 H 
ATOM     42  H   GCD d 901       5.171 -10.125  29.547  0.00  0.00     0.095 H 
ATOM     43  H   GCD d 901       3.909 -11.064  32.188  0.00  0.00     0.093 H 
ATOM     44  H   GCD d 901       3.789 -12.121  29.574  0.00  0.00     0.210 HD
ATOM     45  H   GCD d 901       3.266  -8.866  31.249  0.00  0.00     0.210 HD
ATOM     46  H   GCD d 901       5.240 -13.004  32.406  0.00  0.00     0.085 H 
ENDROOT
TORSDOF 11
ENDMDL
MODEL 37
REMARK VINA RESULT:      -7.5      2.739      3.154
REMARK  0 active torsions:
REMARK  status: ('A' for Active; 'I' for Inactive)
REMARK       I    between atoms: C8_1  and  C7_18 
REMARK       I    between atoms: O6_4  and  C6_20 
REMARK       I    between atoms: C3_6  and  O3_22 
REMARK       I    between atoms: O1_7  and  C1_15 
REMARK       I    between atoms: O4_9  and  C4_11 
REMARK       I    between atoms: C1_10  and  O3_22 
REMARK       I    between atoms: C5_12  and  C6_17 
REMARK       I    between atoms: C2_13  and  O2_25 
REMARK       I    between atoms: C5_16  and  C6_20 
REMARK       I    between atoms: C7_18  and  N2_19 
REMARK       I    between atoms: N2_19  and  C2_23 
REMARK       I    between atoms: C3_21  and  O3_24 
ROOT
ATOM      1  C8  NAG d 902       3.412 -12.231  30.611  0.00  0.00    -0.003 C 
ATOM      2  O6  NAG d 902      10.721  -8.603  32.854  0.00  0.00    -0.398 OA
ATOM      3  O7  NAG d 902       4.999 -12.108  32.464  0.00  0.00    -0.274 OA
ATOM      4  C3  NAG d 902       6.637  -8.909  31.207  0.00  0.00     0.093 C 
ATOM      5  O1  NAG d 902       8.181 -12.053  29.855  0.00  0.00    -0.369 OA
ATOM      6  O5  NAG d 902       9.234 -10.053  30.697  0.00  0.00    -0.349 OA
ATOM      7  O4  NAG d 902       7.787  -6.883  32.071  0.00  0.00    -0.390 OA
ATOM      8  C4  NAG d 902       7.913  -8.308  31.855  0.00  0.00     0.089 C 
ATOM      9  C1  NAG d 902       8.011 -10.659  30.082  0.00  0.00     0.151 C 
ATOM     10  C5  NAG d 902       9.103  -8.572  30.950  0.00  0.00     0.089 C 
ATOM     11  C7  NAG d 902       4.703 -11.798  31.278  0.00  0.00     0.214 C 
ATOM     12  N2  NAG d 902       5.513 -10.976  30.430  0.00  0.00    -0.349 N 
ATOM     13  C6  NAG d 902      10.382  -8.011  31.571  0.00  0.00     0.043 C 
ATOM     14  O3  NAG d 902       5.477  -8.693  32.046  0.00  0.00    -0.348 OA
ATOM     15  C2  NAG d 902       6.806 -10.419  31.000  0.00  0.00     0.087 C 
ATOM     16  H   NAG d 902       2.849 -12.841  31.285  0.00  0.00     0.040 H 
ATOM     17  H   NAG d 902       3.638 -12.792  29.728  0.00  0.00     0.040 H 
ATOM     18  H   NAG d 902       2.839 -11.367  30.348  0.00  0.00     0.040 H 
ATOM     19  H   NAG d 902      11.539  -8.203  33.189  0.00  0.00     0.209 HD
ATOM     20  H   NAG d 902       6.495  -8.420  30.265  0.00  0.00     0.091 H 
ATOM     21  H   NAG d 902       8.944 -12.195  29.275  0.00  0.00     0.212 HD
ATOM     22  H   NAG d 902       7.027  -6.709  32.650  0.00  0.00     0.210 HD
ATOM     23  H   NAG d 902       8.050  -8.775  32.808  0.00  0.00     0.091 H 
ATOM     24  H   NAG d 902       7.844 -10.192  29.134  0.00  0.00     0.132 H 
ATOM     25  H   NAG d 902       8.946  -8.078  30.014  0.00  0.00     0.090 H 
ATOM     26  H   NAG d 902       5.240 -10.777  29.505  0.00  0.00     0.163 HD
ATOM     27  H   NAG d 902      11.191  -8.188  30.895  0.00  0.00     0.078 H 
ATOM     28  H   NAG d 902      10.212  -6.969  31.745  0.00  0.00     0.078 H 
ATOM     29  H   NAG d 902       6.998 -10.926  31.922  0.00  0.00     0.084 H 
ATOM     30  O6A GCD d 901       3.495  -4.131  28.899  0.00  0.00    -0.642 OA
ATOM     31  O5  GCD d 901       4.841  -6.604  31.235  0.00  0.00    -0.311 OA
ATOM     32  C1  GCD d 901       4.353  -7.998  31.546  0.00  0.00     0.165 C 
ATOM     33  C5  GCD d 901       3.803  -5.646  30.712  0.00  0.00     0.147 C 
ATOM     34  C2  GCD d 901       3.261  -7.878  32.564  0.00  0.00     0.111 C 
ATOM     35  O6B GCD d 901       5.367  -4.001  30.294  0.00  0.00    -0.642 OA
ATOM     36  C6  GCD d 901       4.304  -4.541  29.816  0.00  0.00     0.233 C 
ATOM     37  C3  GCD d 901       2.109  -7.080  31.857  0.00  0.00     0.084 C 
ATOM     38  O3  GCD d 901       1.069  -6.915  32.803  0.00  0.00    -0.389 OA
ATOM     39  O2  GCD d 901       2.786  -9.190  33.006  0.00  0.00    -0.388 OA
ATOM     40  C4  GCD d 901       2.498  -5.925  30.913  0.00  0.00    -0.034 C 
ATOM     41  H   GCD d 901       3.955  -8.521  30.702  0.00  0.00     0.134 H 
ATOM     42  H   GCD d 901       3.612  -7.380  33.444  0.00  0.00     0.095 H 
ATOM     43  H   GCD d 901       1.707  -7.653  31.048  0.00  0.00     0.093 H 
ATOM     44  H   GCD d 901       1.395  -6.398  33.556  0.00  0.00     0.210 HD
ATOM     45  H   GCD d 901       2.454  -9.688  32.243  0.00  0.00     0.210 HD
ATOM     46  H   GCD d 901       1.768  -5.370  30.439  0.00  0.00     0.085 H 
ENDROOT
TORSDOF 11
ENDMDL
MODEL 38
REMARK VINA RESULT:      -7.4      2.956      5.499
REMARK  0 active torsions:
REMARK  status: ('A' for Active; 'I' for Inactive)
REMARK       I    between atoms: C8_1  and  C7_18 
REMARK       I    between atoms: O6_4  and  C6_20 
REMARK       I    between atoms: C3_6  and  O3_22 
REMARK       I    between atoms: O1_7  and  C1_15 
REMARK       I    between atoms: O4_9  and  C4_11 
REMARK       I    between atoms: C1_10  and  O3_22 
REMARK       I    between atoms: C5_12  and  C6_17 
REMARK       I    between atoms: C2_13  and  O2_25 
REMARK       I    between atoms: C5_16  and  C6_20 
REMARK       I    between atoms: C7_18  and  N2_19 
REMARK       I    between atoms: N2_19  and  C2_23 
REMARK       I    between atoms: C3_21  and  O3_24 
ROOT
ATOM      1  C8  NAG d 902       9.644  -4.141  31.029  0.00  0.00    -0.003 C 
ATOM      2  O6  NAG d 902       9.095 -12.502  29.838  0.00  0.00    -0.398 OA
ATOM      3  O7  NAG d 902      10.070  -5.869  29.355  0.00  0.00    -0.274 OA
ATOM      4  C3  NAG d 902       7.841  -8.448  31.053  0.00  0.00     0.093 C 
ATOM      5  O1  NAG d 902      11.398  -8.474  32.250  0.00  0.00    -0.369 OA
ATOM      6  O5  NAG d 902       9.940 -10.314  31.701  0.00  0.00    -0.349 OA
ATOM      7  O4  NAG d 902       6.395 -10.390  30.492  0.00  0.00    -0.390 OA
ATOM      8  C4  NAG d 902       7.763  -9.926  30.587  0.00  0.00     0.089 C 
ATOM      9  C1  NAG d 902      10.042  -8.887  32.138  0.00  0.00     0.151 C 
ATOM     10  C5  NAG d 902       8.518 -10.799  31.574  0.00  0.00     0.089 C 
ATOM     11  C7  NAG d 902       9.725  -5.571  30.531  0.00  0.00     0.214 C 
ATOM     12  N2  NAG d 902       9.330  -6.524  31.525  0.00  0.00    -0.349 N 
ATOM     13  C6  NAG d 902       8.479 -12.262  31.132  0.00  0.00     0.043 C 
ATOM     14  O3  NAG d 902       7.145  -7.576  30.129  0.00  0.00    -0.348 OA
ATOM     15  C2  NAG d 902       9.302  -7.992  31.134  0.00  0.00     0.087 C 
ATOM     16  H   NAG d 902       9.949  -3.475  30.250  0.00  0.00     0.040 H 
ATOM     17  H   NAG d 902      10.289  -4.021  31.874  0.00  0.00     0.040 H 
ATOM     18  H   NAG d 902       8.637  -3.919  31.314  0.00  0.00     0.040 H 
ATOM     19  H   NAG d 902       9.035 -13.446  29.622  0.00  0.00     0.209 HD
ATOM     20  H   NAG d 902       7.380  -8.390  32.017  0.00  0.00     0.091 H 
ATOM     21  H   NAG d 902      11.858  -9.044  32.886  0.00  0.00     0.212 HD
ATOM     22  H   NAG d 902       5.909  -9.835  29.862  0.00  0.00     0.210 HD
ATOM     23  H   NAG d 902       8.201  -9.989  29.613  0.00  0.00     0.091 H 
ATOM     24  H   NAG d 902       9.592  -8.797  33.104  0.00  0.00     0.132 H 
ATOM     25  H   NAG d 902       8.046 -10.731  32.532  0.00  0.00     0.090 H 
ATOM     26  H   NAG d 902       9.083  -6.237  32.433  0.00  0.00     0.163 HD
ATOM     27  H   NAG d 902       8.992 -12.849  31.864  0.00  0.00     0.078 H 
ATOM     28  H   NAG d 902       7.448 -12.532  31.040  0.00  0.00     0.078 H 
ATOM     29  H   NAG d 902       9.800  -8.086  30.192  0.00  0.00     0.084 H 
ATOM     30  O6A GCD d 901       2.325  -7.139  33.479  0.00  0.00    -0.642 OA
ATOM     31  O5  GCD d 901       5.015  -7.702  31.065  0.00  0.00    -0.311 OA
ATOM     32  C1  GCD d 901       6.087  -6.755  30.581  0.00  0.00     0.165 C 
ATOM     33  C5  GCD d 901       3.752  -7.059  31.572  0.00  0.00     0.147 C 
ATOM     34  C2  GCD d 901       5.498  -5.930  29.479  0.00  0.00     0.111 C 
ATOM     35  O6B GCD d 901       2.879  -9.073  32.287  0.00  0.00    -0.642 OA
ATOM     36  C6  GCD d 901       2.978  -7.833  32.610  0.00  0.00     0.233 C 
ATOM     37  C3  GCD d 901       4.344  -5.099  30.143  0.00  0.00     0.084 C 
ATOM     38  O3  GCD d 901       3.737  -4.329  29.121  0.00  0.00    -0.389 OA
ATOM     39  O2  GCD d 901       6.493  -5.043  28.874  0.00  0.00    -0.388 OA
ATOM     40  C4  GCD d 901       3.482  -5.784  31.223  0.00  0.00    -0.034 C 
ATOM     41  H   GCD d 901       6.449  -6.084  31.332  0.00  0.00     0.134 H 
ATOM     42  H   GCD d 901       5.138  -6.553  28.687  0.00  0.00     0.095 H 
ATOM     43  H   GCD d 901       4.749  -4.409  30.854  0.00  0.00     0.093 H 
ATOM     44  H   GCD d 901       3.356  -4.921  28.454  0.00  0.00     0.210 HD
ATOM     45  H   GCD d 901       6.855  -4.453  29.554  0.00  0.00     0.210 HD
ATOM     46  H   GCD d 901       2.708  -5.272  31.673  0.00  0.00     0.085 H 
ENDROOT
TORSDOF 11
ENDMDL
MODEL 39
REMARK VINA RESULT:      -7.4      2.684      5.635
REMARK  0 active torsions:
REMARK  status: ('A' for Active; 'I' for Inactive)
REMARK       I    between atoms: C8_1  and  C7_18 
REMARK       I    between atoms: O6_4  and  C6_20 
REMARK       I    between atoms: C3_6  and  O3_22 
REMARK       I    between atoms: O1_7  and  C1_15 
REMARK       I    between atoms: O4_9  and  C4_11 
REMARK       I    between atoms: C1_10  and  O3_22 
REMARK       I    between atoms: C5_12  and  C6_17 
REMARK       I    between atoms: C2_13  and  O2_25 
REMARK       I    between atoms: C5_16  and  C6_20 
REMARK       I    between atoms: C7_18  and  N2_19 
REMARK       I    between atoms: N2_19  and  C2_23 
REMARK       I    between atoms: C3_21  and  O3_24 
ROOT
ATOM      1  C8  NAG d 902       2.377 -12.109  31.391  0.00  0.00    -0.003 C 
ATOM      2  O6  NAG d 902       5.490  -4.488  29.430  0.00  0.00    -0.398 OA
ATOM      3  O7  NAG d 902       2.177 -10.328  29.730  0.00  0.00    -0.274 OA
ATOM      4  C3  NAG d 902       5.513  -8.734  30.638  0.00  0.00     0.093 C 
ATOM      5  O1  NAG d 902       2.608  -7.447  32.637  0.00  0.00    -0.369 OA
ATOM      6  O5  NAG d 902       4.430  -6.246  31.611  0.00  0.00    -0.349 OA
ATOM      7  O4  NAG d 902       7.356  -7.432  29.595  0.00  0.00    -0.390 OA
ATOM      8  C4  NAG d 902       5.983  -7.377  30.049  0.00  0.00     0.089 C 
ATOM      9  C1  NAG d 902       3.949  -7.546  32.173  0.00  0.00     0.151 C 
ATOM     10  C5  NAG d 902       5.851  -6.301  31.112  0.00  0.00     0.089 C 
ATOM     11  C7  NAG d 902       2.678 -10.741  30.812  0.00  0.00     0.214 C 
ATOM     12  N2  NAG d 902       3.615 -10.002  31.603  0.00  0.00    -0.349 N 
ATOM     13  C6  NAG d 902       6.286  -4.945  30.556  0.00  0.00     0.043 C 
ATOM     14  O3  NAG d 902       5.607  -9.789  29.650  0.00  0.00    -0.348 OA
ATOM     15  C2  NAG d 902       4.054  -8.637  31.100  0.00  0.00     0.087 C 
ATOM     16  H   NAG d 902       1.675 -12.616  30.763  0.00  0.00     0.040 H 
ATOM     17  H   NAG d 902       1.964 -11.999  32.371  0.00  0.00     0.040 H 
ATOM     18  H   NAG d 902       3.281 -12.680  31.446  0.00  0.00     0.040 H 
ATOM     19  H   NAG d 902       5.819  -3.626  29.130  0.00  0.00     0.209 HD
ATOM     20  H   NAG d 902       6.150  -8.961  31.467  0.00  0.00     0.091 H 
ATOM     21  H   NAG d 902       2.550  -6.757  33.315  0.00  0.00     0.212 HD
ATOM     22  H   NAG d 902       7.444  -8.119  28.915  0.00  0.00     0.210 HD
ATOM     23  H   NAG d 902       5.365  -7.152  29.204  0.00  0.00     0.091 H 
ATOM     24  H   NAG d 902       4.566  -7.800  33.010  0.00  0.00     0.132 H 
ATOM     25  H   NAG d 902       6.493  -6.542  31.934  0.00  0.00     0.090 H 
ATOM     26  H   NAG d 902       3.965 -10.367  32.448  0.00  0.00     0.163 HD
ATOM     27  H   NAG d 902       6.210  -4.220  31.339  0.00  0.00     0.078 H 
ATOM     28  H   NAG d 902       7.289  -5.061  30.201  0.00  0.00     0.078 H 
ATOM     29  H   NAG d 902       3.402  -8.363  30.297  0.00  0.00     0.084 H 
ATOM     30  O6A GCD d 901      10.646 -11.952  31.788  0.00  0.00    -0.642 OA
ATOM     31  O5  GCD d 901       7.809 -10.441  30.042  0.00  0.00    -0.311 OA
ATOM     32  C1  GCD d 901       6.390 -10.938  29.904  0.00  0.00     0.165 C 
ATOM     33  C5  GCD d 901       8.853 -11.498  30.286  0.00  0.00     0.147 C 
ATOM     34  C2  GCD d 901       6.359 -11.908  28.764  0.00  0.00     0.111 C 
ATOM     35  O6B GCD d 901      10.522  -9.937  30.608  0.00  0.00    -0.642 OA
ATOM     36  C6  GCD d 901      10.081 -11.062  31.045  0.00  0.00     0.233 C 
ATOM     37  C3  GCD d 901       7.277 -13.104  29.201  0.00  0.00     0.084 C 
ATOM     38  O3  GCD d 901       7.302 -14.030  28.131  0.00  0.00    -0.389 OA
ATOM     39  O2  GCD d 901       4.999 -12.375  28.486  0.00  0.00    -0.388 OA
ATOM     40  C4  GCD d 901       8.564 -12.782  29.987  0.00  0.00    -0.034 C 
ATOM     41  H   GCD d 901       6.016 -11.441  30.770  0.00  0.00     0.134 H 
ATOM     42  H   GCD d 901       6.702 -11.448  27.861  0.00  0.00     0.095 H 
ATOM     43  H   GCD d 901       6.848 -13.610  30.041  0.00  0.00     0.093 H 
ATOM     44  H   GCD d 901       7.685 -13.608  27.347  0.00  0.00     0.210 HD
ATOM     45  H   GCD d 901       4.636 -12.803  29.277  0.00  0.00     0.210 HD
ATOM     46  H   GCD d 901       9.198 -13.541  30.281  0.00  0.00     0.085 H 
ENDROOT
TORSDOF 11
ENDMDL
MODEL 40
REMARK VINA RESULT:      -7.4      2.978      4.583
REMARK  0 active torsions:
REMARK  status: ('A' for Active; 'I' for Inactive)
REMARK       I    between atoms: C8_1  and  C7_18 
REMARK       I    between atoms: O6_4  and  C6_20 
REMARK       I    between atoms: C3_6  and  O3_22 
REMARK       I    between atoms: O1_7  and  C1_15 
REMARK       I    between atoms: O4_9  and  C4_11 
REMARK       I    between atoms: C1_10  and  O3_22 
REMARK       I    between atoms: C5_12  and  C6_17 
REMARK       I    between atoms: C2_13  and  O2_25 
REMARK       I    between atoms: C5_16  and  C6_20 
REMARK       I    between atoms: C7_18  and  N2_19 
REMARK       I    between atoms: N2_19  and  C2_23 
REMARK       I    between atoms: C3_21  and  O3_24 
ROOT
ATOM      1  C8  NAG d 902      -0.188 -11.070  33.787  0.00  0.00    -0.003 C 
ATOM      2  O6  NAG d 902       7.852 -10.575  31.194  0.00  0.00    -0.398 OA
ATOM      3  O7  NAG d 902       2.013 -10.294  34.510  0.00  0.00    -0.274 OA
ATOM      4  C3  NAG d 902       3.455 -10.246  30.986  0.00  0.00     0.093 C 
ATOM      5  O1  NAG d 902       3.834 -13.537  32.751  0.00  0.00    -0.369 OA
ATOM      6  O5  NAG d 902       5.421 -12.310  31.413  0.00  0.00    -0.349 OA
ATOM      7  O4  NAG d 902       5.143  -9.028  29.629  0.00  0.00    -0.390 OA
ATOM      8  C4  NAG d 902       4.958  -9.985  30.698  0.00  0.00     0.089 C 
ATOM      9  C1  NAG d 902       3.980 -12.570  31.718  0.00  0.00     0.151 C 
ATOM     10  C5  NAG d 902       5.626 -11.295  30.317  0.00  0.00     0.089 C 
ATOM     11  C7  NAG d 902       1.311 -10.890  33.648  0.00  0.00     0.214 C 
ATOM     12  N2  NAG d 902       1.820 -11.430  32.423  0.00  0.00    -0.349 N 
ATOM     13  C6  NAG d 902       7.114 -11.077  30.047  0.00  0.00     0.043 C 
ATOM     14  O3  NAG d 902       2.781  -9.023  31.370  0.00  0.00    -0.348 OA
ATOM     15  C2  NAG d 902       3.300 -11.258  32.128  0.00  0.00     0.087 C 
ATOM     16  H   NAG d 902      -0.514 -10.650  34.716  0.00  0.00     0.040 H 
ATOM     17  H   NAG d 902      -0.425 -12.113  33.765  0.00  0.00     0.040 H 
ATOM     18  H   NAG d 902      -0.684 -10.574  32.979  0.00  0.00     0.040 H 
ATOM     19  H   NAG d 902       8.785 -10.460  30.953  0.00  0.00     0.209 HD
ATOM     20  H   NAG d 902       3.018 -10.630  30.089  0.00  0.00     0.091 H 
ATOM     21  H   NAG d 902       4.266 -14.363  32.484  0.00  0.00     0.212 HD
ATOM     22  H   NAG d 902       4.718  -8.189  29.868  0.00  0.00     0.210 HD
ATOM     23  H   NAG d 902       5.398  -9.579  31.585  0.00  0.00     0.091 H 
ATOM     24  H   NAG d 902       3.514 -12.960  30.837  0.00  0.00     0.132 H 
ATOM     25  H   NAG d 902       5.178 -11.666  29.419  0.00  0.00     0.090 H 
ATOM     26  H   NAG d 902       1.228 -11.898  31.791  0.00  0.00     0.163 HD
ATOM     27  H   NAG d 902       7.544 -12.011  29.753  0.00  0.00     0.078 H 
ATOM     28  H   NAG d 902       7.186 -10.333  29.281  0.00  0.00     0.078 H 
ATOM     29  H   NAG d 902       3.772 -10.918  33.026  0.00  0.00     0.084 H 
ATOM     30  O6A GCD d 901       0.394  -8.149  26.062  0.00  0.00    -0.642 OA
ATOM     31  O5  GCD d 901       2.188  -8.269  29.247  0.00  0.00    -0.311 OA
ATOM     32  C1  GCD d 901       1.667  -8.560  30.634  0.00  0.00     0.165 C 
ATOM     33  C5  GCD d 901       1.181  -7.722  28.269  0.00  0.00     0.147 C 
ATOM     34  C2  GCD d 901       1.112  -7.284  31.186  0.00  0.00     0.111 C 
ATOM     35  O6B GCD d 901       2.667  -7.830  26.506  0.00  0.00    -0.642 OA
ATOM     36  C6  GCD d 901       1.434  -8.021  26.813  0.00  0.00     0.233 C 
ATOM     37  C3  GCD d 901      -0.095  -6.909  30.256  0.00  0.00     0.084 C 
ATOM     38  O3  GCD d 901      -0.626  -5.684  30.727  0.00  0.00    -0.389 OA
ATOM     39  O2  GCD d 901       0.668  -7.440  32.572  0.00  0.00    -0.388 OA
ATOM     40  C4  GCD d 901       0.044  -7.171  28.743  0.00  0.00    -0.034 C 
ATOM     41  H   GCD d 901       0.889  -9.293  30.664  0.00  0.00     0.134 H 
ATOM     42  H   GCD d 901       1.859  -6.517  31.201  0.00  0.00     0.095 H 
ATOM     43  H   GCD d 901      -0.871  -7.641  30.347  0.00  0.00     0.093 H 
ATOM     44  H   GCD d 901       0.050  -4.992  30.660  0.00  0.00     0.210 HD
ATOM     45  H   GCD d 901      -0.014  -8.128  32.617  0.00  0.00     0.210 HD
ATOM     46  H   GCD d 901      -0.724  -6.927  28.099  0.00  0.00     0.085 H 
ENDROOT
TORSDOF 11
ENDMDL
MODEL 41
REMARK VINA RESULT:      -7.4      2.822      5.057
REMARK  0 active torsions:
REMARK  status: ('A' for Active; 'I' for Inactive)
REMARK       I    between atoms: C8_1  and  C7_18 
REMARK       I    between atoms: O6_4  and  C6_20 
REMARK       I    between atoms: C3_6  and  O3_22 
REMARK       I    between atoms: O1_7  and  C1_15 
REMARK       I    between atoms: O4_9  and  C4_11 
REMARK       I    between atoms: C1_10  and  O3_22 
REMARK       I    between atoms: C5_12  and  C6_17 
REMARK       I    between atoms: C2_13  and  O2_25 
REMARK       I    between atoms: C5_16  and  C6_20 
REMARK       I    between atoms: C7_18  and  N2_19 
REMARK       I    between atoms: N2_19  and  C2_23 
REMARK       I    between atoms: C3_21  and  O3_24 
ROOT
ATOM      1  C8  NAG d 902       2.807  -6.799  31.804  0.00  0.00    -0.003 C 
ATOM      2  O6  NAG d 902      11.171  -5.510  31.829  0.00  0.00    -0.398 OA
ATOM      3  O7  NAG d 902       4.512  -5.272  30.949  0.00  0.00    -0.274 OA
ATOM      4  C3  NAG d 902       7.371  -7.730  31.484  0.00  0.00     0.093 C 
ATOM      5  O1  NAG d 902       6.648  -5.550  34.454  0.00  0.00    -0.369 OA
ATOM      6  O5  NAG d 902       8.762  -6.179  33.478  0.00  0.00    -0.349 OA
ATOM      7  O4  NAG d 902       9.582  -8.328  30.521  0.00  0.00    -0.390 OA
ATOM      8  C4  NAG d 902       8.861  -7.339  31.292  0.00  0.00     0.089 C 
ATOM      9  C1  NAG d 902       7.319  -6.528  33.668  0.00  0.00     0.151 C 
ATOM     10  C5  NAG d 902       9.516  -7.192  32.653  0.00  0.00     0.089 C 
ATOM     11  C7  NAG d 902       4.220  -6.268  31.667  0.00  0.00     0.214 C 
ATOM     12  N2  NAG d 902       5.174  -7.042  32.402  0.00  0.00    -0.349 N 
ATOM     13  C6  NAG d 902      10.982  -6.785  32.500  0.00  0.00     0.043 C 
ATOM     14  O3  NAG d 902       6.701  -7.865  30.207  0.00  0.00    -0.348 OA
ATOM     15  C2  NAG d 902       6.640  -6.655  32.298  0.00  0.00     0.087 C 
ATOM     16  H   NAG d 902       2.139  -6.186  31.237  0.00  0.00     0.040 H 
ATOM     17  H   NAG d 902       2.519  -6.783  32.834  0.00  0.00     0.040 H 
ATOM     18  H   NAG d 902       2.766  -7.804  31.438  0.00  0.00     0.040 H 
ATOM     19  H   NAG d 902      12.120  -5.315  31.767  0.00  0.00     0.209 HD
ATOM     20  H   NAG d 902       7.349  -8.666  32.002  0.00  0.00     0.091 H 
ATOM     21  H   NAG d 902       7.083  -5.476  35.318  0.00  0.00     0.212 HD
ATOM     22  H   NAG d 902       9.166  -8.426  29.650  0.00  0.00     0.210 HD
ATOM     23  H   NAG d 902       8.893  -6.414  30.754  0.00  0.00     0.091 H 
ATOM     24  H   NAG d 902       7.263  -7.461  34.188  0.00  0.00     0.132 H 
ATOM     25  H   NAG d 902       9.486  -8.135  33.159  0.00  0.00     0.090 H 
ATOM     26  H   NAG d 902       4.889  -7.802  32.959  0.00  0.00     0.163 HD
ATOM     27  H   NAG d 902      11.418  -6.721  33.474  0.00  0.00     0.078 H 
ATOM     28  H   NAG d 902      11.449  -7.530  31.890  0.00  0.00     0.078 H 
ATOM     29  H   NAG d 902       6.689  -5.697  31.824  0.00  0.00     0.084 H 
ATOM     30  O6A GCD d 901       7.010 -13.743  30.168  0.00  0.00    -0.642 OA
ATOM     31  O5  GCD d 901       7.181 -10.108  29.797  0.00  0.00    -0.311 OA
ATOM     32  C1  GCD d 901       6.075  -9.082  29.855  0.00  0.00     0.165 C 
ATOM     33  C5  GCD d 901       6.765 -11.500  29.402  0.00  0.00     0.147 C 
ATOM     34  C2  GCD d 901       5.441  -9.023  28.500  0.00  0.00     0.111 C 
ATOM     35  O6B GCD d 901       8.865 -12.366  29.809  0.00  0.00    -0.642 OA
ATOM     36  C6  GCD d 901       7.613 -12.627  29.934  0.00  0.00     0.233 C 
ATOM     37  C3  GCD d 901       4.810 -10.440  28.265  0.00  0.00     0.084 C 
ATOM     38  O3  GCD d 901       4.229 -10.435  26.974  0.00  0.00    -0.389 OA
ATOM     39  O2  GCD d 901       4.415  -7.981  28.427  0.00  0.00    -0.388 OA
ATOM     40  C4  GCD d 901       5.586 -11.674  28.768  0.00  0.00    -0.034 C 
ATOM     41  H   GCD d 901       5.306  -9.307  30.565  0.00  0.00     0.134 H 
ATOM     42  H   GCD d 901       6.164  -8.776  27.751  0.00  0.00     0.095 H 
ATOM     43  H   GCD d 901       4.016 -10.611  28.963  0.00  0.00     0.093 H 
ATOM     44  H   GCD d 901       4.919 -10.282  26.310  0.00  0.00     0.210 HD
ATOM     45  H   GCD d 901       3.729  -8.156  29.090  0.00  0.00     0.210 HD
ATOM     46  H   GCD d 901       5.208 -12.623  28.621  0.00  0.00     0.085 H 
ENDROOT
TORSDOF 11
ENDMDL
MODEL 42
REMARK VINA RESULT:      -7.4      2.404      5.874
REMARK  0 active torsions:
REMARK  status: ('A' for Active; 'I' for Inactive)
REMARK       I    between atoms: C8_1  and  C7_18 
REMARK       I    between atoms: O6_4  and  C6_20 
REMARK       I    between atoms: C3_6  and  O3_22 
REMARK       I    between atoms: O1_7  and  C1_15 
REMARK       I    between atoms: O4_9  and  C4_11 
REMARK       I    between atoms: C1_10  and  O3_22 
REMARK       I    between atoms: C5_12  and  C6_17 
REMARK       I    between atoms: C2_13  and  O2_25 
REMARK       I    between atoms: C5_16  and  C6_20 
REMARK       I    between atoms: C7_18  and  N2_19 
REMARK       I    between atoms: N2_19  and  C2_23 
REMARK       I    between atoms: C3_21  and  O3_24 
ROOT
ATOM      1  C8  NAG d 902       3.676 -12.984  32.559  0.00  0.00    -0.003 C 
ATOM      2  O6  NAG d 902       3.161  -5.509  28.624  0.00  0.00    -0.398 OA
ATOM      3  O7  NAG d 902       2.730 -11.928  30.569  0.00  0.00    -0.274 OA
ATOM      4  C3  NAG d 902       5.028  -8.898  30.750  0.00  0.00     0.093 C 
ATOM      5  O1  NAG d 902       1.837  -8.518  32.691  0.00  0.00    -0.369 OA
ATOM      6  O5  NAG d 902       2.959  -6.951  31.241  0.00  0.00    -0.349 OA
ATOM      7  O4  NAG d 902       6.125  -7.239  29.260  0.00  0.00    -0.390 OA
ATOM      8  C4  NAG d 902       4.862  -7.662  29.826  0.00  0.00     0.089 C 
ATOM      9  C1  NAG d 902       3.090  -8.149  32.129  0.00  0.00     0.151 C 
ATOM     10  C5  NAG d 902       4.266  -6.518  30.626  0.00  0.00     0.089 C 
ATOM     11  C7  NAG d 902       3.353 -11.807  31.659  0.00  0.00     0.214 C 
ATOM     12  N2  NAG d 902       3.867 -10.570  32.164  0.00  0.00    -0.349 N 
ATOM     13  C6  NAG d 902       4.069  -5.290  29.738  0.00  0.00     0.043 C 
ATOM     14  O3  NAG d 902       5.581 -10.021  30.022  0.00  0.00    -0.348 OA
ATOM     15  C2  NAG d 902       3.670  -9.319  31.324  0.00  0.00     0.087 C 
ATOM     16  H   NAG d 902       3.270 -13.879  32.136  0.00  0.00     0.040 H 
ATOM     17  H   NAG d 902       3.248 -12.821  33.526  0.00  0.00     0.040 H 
ATOM     18  H   NAG d 902       4.737 -13.083  32.650  0.00  0.00     0.040 H 
ATOM     19  H   NAG d 902       3.083  -4.693  28.106  0.00  0.00     0.209 HD
ATOM     20  H   NAG d 902       5.694  -8.620  31.541  0.00  0.00     0.091 H 
ATOM     21  H   NAG d 902       1.478  -7.774  33.198  0.00  0.00     0.212 HD
ATOM     22  H   NAG d 902       6.510  -7.967  28.748  0.00  0.00     0.210 HD
ATOM     23  H   NAG d 902       4.215  -7.938  29.019  0.00  0.00     0.091 H 
ATOM     24  H   NAG d 902       3.749  -7.901  32.934  0.00  0.00     0.132 H 
ATOM     25  H   NAG d 902       4.942  -6.252  31.413  0.00  0.00     0.090 H 
ATOM     26  H   NAG d 902       4.335 -10.530  33.029  0.00  0.00     0.163 HD
ATOM     27  H   NAG d 902       3.677  -4.497  30.341  0.00  0.00     0.078 H 
ATOM     28  H   NAG d 902       5.024  -5.052  29.319  0.00  0.00     0.078 H 
ATOM     29  H   NAG d 902       2.969  -9.556  30.551  0.00  0.00     0.084 H 
ATOM     30  O6A GCD d 901      11.041  -9.234  32.072  0.00  0.00    -0.642 OA
ATOM     31  O5  GCD d 901       7.843  -9.556  30.326  0.00  0.00    -0.311 OA
ATOM     32  C1  GCD d 901       6.785 -10.626  30.448  0.00  0.00     0.165 C 
ATOM     33  C5  GCD d 901       9.242  -9.973  30.696  0.00  0.00     0.147 C 
ATOM     34  C2  GCD d 901       7.190 -11.765  29.566  0.00  0.00     0.111 C 
ATOM     35  O6B GCD d 901      10.059  -7.824  30.487  0.00  0.00    -0.642 OA
ATOM     36  C6  GCD d 901      10.150  -8.883  31.208  0.00  0.00     0.233 C 
ATOM     37  C3  GCD d 901       8.534 -12.309  30.166  0.00  0.00     0.084 C 
ATOM     38  O3  GCD d 901       8.970 -13.369  29.335  0.00  0.00    -0.389 OA
ATOM     39  O2  GCD d 901       6.173 -12.818  29.539  0.00  0.00    -0.388 OA
ATOM     40  C4  GCD d 901       9.546 -11.287  30.725  0.00  0.00    -0.034 C 
ATOM     41  H   GCD d 901       6.662 -11.008  31.439  0.00  0.00     0.134 H 
ATOM     42  H   GCD d 901       7.305 -11.442  28.552  0.00  0.00     0.095 H 
ATOM     43  H   GCD d 901       8.363 -12.723  31.138  0.00  0.00     0.093 H 
ATOM     44  H   GCD d 901       9.136 -13.032  28.442  0.00  0.00     0.210 HD
ATOM     45  H   GCD d 901       6.028 -13.150  30.439  0.00  0.00     0.210 HD
ATOM     46  H   GCD d 901      10.445 -11.606  31.117  0.00  0.00     0.085 H 
ENDROOT
TORSDOF 11
ENDMDL
MODEL 43
REMARK VINA RESULT:      -7.4      2.638      6.823
REMARK  0 active torsions:
REMARK  status: ('A' for Active; 'I' for Inactive)
REMARK       I    between atoms: C8_1  and  C7_18 
REMARK       I    between atoms: O6_4  and  C6_20 
REMARK       I    between atoms: C3_6  and  O3_22 
REMARK       I    between atoms: O1_7  and  C1_15 
REMARK       I    between atoms: O4_9  and  C4_11 
REMARK       I    between atoms: C1_10  and  O3_22 
REMARK       I    between atoms: C5_12  and  C6_17 
REMARK       I    between atoms: C2_13  and  O2_25 
REMARK       I    between atoms: C5_16  and  C6_20 
REMARK       I    between atoms: C7_18  and  N2_19 
REMARK       I    between atoms: N2_19  and  C2_23 
REMARK       I    between atoms: C3_21  and  O3_24 
ROOT
ATOM      1  C8  NAG d 902       6.246  -6.914  30.638  0.00  0.00    -0.003 C 
ATOM      2  O6  NAG d 902       1.506 -13.033  34.060  0.00  0.00    -0.398 OA
ATOM      3  O7  NAG d 902       5.383  -7.692  32.788  0.00  0.00    -0.274 OA
ATOM      4  C3  NAG d 902       4.614 -11.199  31.518  0.00  0.00     0.093 C 
ATOM      5  O1  NAG d 902       1.800  -8.755  31.066  0.00  0.00    -0.369 OA
ATOM      6  O5  NAG d 902       1.754 -11.039  31.839  0.00  0.00    -0.349 OA
ATOM      7  O4  NAG d 902       4.496 -13.543  32.334  0.00  0.00    -0.390 OA
ATOM      8  C4  NAG d 902       3.849 -12.249  32.366  0.00  0.00     0.089 C 
ATOM      9  C1  NAG d 902       2.479 -10.005  31.037  0.00  0.00     0.151 C 
ATOM     10  C5  NAG d 902       2.434 -12.385  31.832  0.00  0.00     0.089 C 
ATOM     11  C7  NAG d 902       5.417  -7.815  31.533  0.00  0.00     0.214 C 
ATOM     12  N2  NAG d 902       4.721  -8.829  30.800  0.00  0.00    -0.349 N 
ATOM     13  C6  NAG d 902       1.645 -13.398  32.661  0.00  0.00     0.043 C 
ATOM     14  O3  NAG d 902       5.968 -11.025  32.005  0.00  0.00    -0.348 OA
ATOM     15  C2  NAG d 902       3.903  -9.842  31.584  0.00  0.00     0.087 C 
ATOM     16  H   NAG d 902       6.742  -6.177  31.235  0.00  0.00     0.040 H 
ATOM     17  H   NAG d 902       5.608  -6.428  29.931  0.00  0.00     0.040 H 
ATOM     18  H   NAG d 902       6.975  -7.500  30.119  0.00  0.00     0.040 H 
ATOM     19  H   NAG d 902       0.997 -13.716  34.524  0.00  0.00     0.209 HD
ATOM     20  H   NAG d 902       4.639 -11.556  30.510  0.00  0.00     0.091 H 
ATOM     21  H   NAG d 902       0.902  -8.867  30.719  0.00  0.00     0.212 HD
ATOM     22  H   NAG d 902       5.401 -13.461  32.675  0.00  0.00     0.210 HD
ATOM     23  H   NAG d 902       3.840 -11.910  33.382  0.00  0.00     0.091 H 
ATOM     24  H   NAG d 902       2.517 -10.332  30.019  0.00  0.00     0.132 H 
ATOM     25  H   NAG d 902       2.475 -12.742  30.824  0.00  0.00     0.090 H 
ATOM     26  H   NAG d 902       4.772  -8.870  29.817  0.00  0.00     0.163 HD
ATOM     27  H   NAG d 902       0.667 -13.490  32.238  0.00  0.00     0.078 H 
ATOM     28  H   NAG d 902       2.192 -14.317  32.632  0.00  0.00     0.078 H 
ATOM     29  H   NAG d 902       3.823  -9.484  32.589  0.00  0.00     0.084 H 
ATOM     30  O6A GCD d 901       8.374 -14.407  27.832  0.00  0.00    -0.642 OA
ATOM     31  O5  GCD d 901       7.003 -12.703  30.764  0.00  0.00    -0.311 OA
ATOM     32  C1  GCD d 901       7.069 -11.244  31.146  0.00  0.00     0.165 C 
ATOM     33  C5  GCD d 901       8.107 -13.196  29.867  0.00  0.00     0.147 C 
ATOM     34  C2  GCD d 901       8.378 -11.015  31.834  0.00  0.00     0.111 C 
ATOM     35  O6B GCD d 901       7.127 -15.270  29.611  0.00  0.00    -0.642 OA
ATOM     36  C6  GCD d 901       7.770 -14.361  28.970  0.00  0.00     0.233 C 
ATOM     37  C3  GCD d 901       9.480 -11.309  30.756  0.00  0.00     0.084 C 
ATOM     38  O3  GCD d 901      10.739 -11.137  31.381  0.00  0.00    -0.389 OA
ATOM     39  O2  GCD d 901       8.496  -9.643  32.333  0.00  0.00    -0.388 OA
ATOM     40  C4  GCD d 901       9.246 -12.478  29.778  0.00  0.00    -0.034 C 
ATOM     41  H   GCD d 901       7.014 -10.571  30.316  0.00  0.00     0.134 H 
ATOM     42  H   GCD d 901       8.476 -11.648  32.691  0.00  0.00     0.095 H 
ATOM     43  H   GCD d 901       9.424 -10.590  29.965  0.00  0.00     0.093 H 
ATOM     44  H   GCD d 901      10.829 -11.773  32.106  0.00  0.00     0.210 HD
ATOM     45  H   GCD d 901       8.414  -9.022  31.593  0.00  0.00     0.210 HD
ATOM     46  H   GCD d 901       9.954 -12.709  29.063  0.00  0.00     0.085 H 
ENDROOT
TORSDOF 11
ENDMDL
MODEL 44
REMARK VINA RESULT:      -7.4      2.702      6.591
REMARK  0 active torsions:
REMARK  status: ('A' for Active; 'I' for Inactive)
REMARK       I    between atoms: C8_1  and  C7_18 
REMARK       I    between atoms: O6_4  and  C6_20 
REMARK       I    between atoms: C3_6  and  O3_22 
REMARK       I    between atoms: O1_7  and  C1_15 
REMARK       I    between atoms: O4_9  and  C4_11 
REMARK       I    between atoms: C1_10  and  O3_22 
REMARK       I    between atoms: C5_12  and  C6_17 
REMARK       I    between atoms: C2_13  and  O2_25 
REMARK       I    between atoms: C5_16  and  C6_20 
REMARK       I    between atoms: C7_18  and  N2_19 
REMARK       I    between atoms: N2_19  and  C2_23 
REMARK       I    between atoms: C3_21  and  O3_24 
ROOT
ATOM      1  C8  NAG d 902      10.792  -6.258  29.674  0.00  0.00    -0.003 C 
ATOM      2  O6  NAG d 902       2.981  -7.813  32.535  0.00  0.00    -0.398 OA
ATOM      3  O7  NAG d 902       9.357  -5.897  31.618  0.00  0.00    -0.274 OA
ATOM      4  C3  NAG d 902       6.886  -8.625  30.643  0.00  0.00     0.093 C 
ATOM      5  O1  NAG d 902       6.091  -5.251  29.201  0.00  0.00    -0.369 OA
ATOM      6  O5  NAG d 902       4.631  -6.881  30.216  0.00  0.00    -0.349 OA
ATOM      7  O4  NAG d 902       5.327 -10.254  31.689  0.00  0.00    -0.390 OA
ATOM      8  C4  NAG d 902       5.549  -8.854  31.397  0.00  0.00     0.089 C 
ATOM      9  C1  NAG d 902       5.920  -6.632  29.498  0.00  0.00     0.151 C 
ATOM     10  C5  NAG d 902       4.403  -8.334  30.547  0.00  0.00     0.089 C 
ATOM     11  C7  NAG d 902       9.483  -6.321  30.437  0.00  0.00     0.214 C 
ATOM     12  N2  NAG d 902       8.436  -6.946  29.685  0.00  0.00    -0.349 N 
ATOM     13  C6  NAG d 902       3.070  -8.525  31.271  0.00  0.00     0.043 C 
ATOM     14  O3  NAG d 902       8.010  -9.093  31.427  0.00  0.00    -0.348 OA
ATOM     15  C2  NAG d 902       7.088  -7.132  30.359  0.00  0.00     0.087 C 
ATOM     16  H   NAG d 902      11.536  -5.784  30.279  0.00  0.00     0.040 H 
ATOM     17  H   NAG d 902      10.653  -5.697  28.774  0.00  0.00     0.040 H 
ATOM     18  H   NAG d 902      11.111  -7.250  29.430  0.00  0.00     0.040 H 
ATOM     19  H   NAG d 902       2.114  -7.978  32.937  0.00  0.00     0.209 HD
ATOM     20  H   NAG d 902       6.836  -9.173  29.726  0.00  0.00     0.091 H 
ATOM     21  H   NAG d 902       5.349  -4.944  28.657  0.00  0.00     0.212 HD
ATOM     22  H   NAG d 902       6.058 -10.590  32.232  0.00  0.00     0.210 HD
ATOM     23  H   NAG d 902       5.600  -8.327  32.327  0.00  0.00     0.091 H 
ATOM     24  H   NAG d 902       5.899  -7.166  28.571  0.00  0.00     0.132 H 
ATOM     25  H   NAG d 902       4.366  -8.891  29.634  0.00  0.00     0.090 H 
ATOM     26  H   NAG d 902       8.586  -7.246  28.760  0.00  0.00     0.163 HD
ATOM     27  H   NAG d 902       2.287  -8.177  30.632  0.00  0.00     0.078 H 
ATOM     28  H   NAG d 902       2.985  -9.568  31.495  0.00  0.00     0.078 H 
ATOM     29  H   NAG d 902       7.093  -6.554  31.260  0.00  0.00     0.084 H 
ATOM     30  O6A GCD d 901       8.561 -14.136  28.445  0.00  0.00    -0.642 OA
ATOM     31  O5  GCD d 901       8.044 -11.307  30.704  0.00  0.00    -0.311 OA
ATOM     32  C1  GCD d 901       8.887 -10.071  30.906  0.00  0.00     0.165 C 
ATOM     33  C5  GCD d 901       8.770 -12.518  30.180  0.00  0.00     0.147 C 
ATOM     34  C2  GCD d 901       9.981 -10.422  31.866  0.00  0.00     0.111 C 
ATOM     35  O6B GCD d 901       6.818 -13.728  29.948  0.00  0.00    -0.642 OA
ATOM     36  C6  GCD d 901       7.947 -13.496  29.380  0.00  0.00     0.233 C 
ATOM     37  C3  GCD d 901      10.845 -11.514  31.143  0.00  0.00     0.084 C 
ATOM     38  O3  GCD d 901      11.873 -11.899  32.036  0.00  0.00    -0.389 OA
ATOM     39  O2  GCD d 901      10.800  -9.256  32.203  0.00  0.00    -0.388 OA
ATOM     40  C4  GCD d 901      10.113 -12.572  30.291  0.00  0.00    -0.034 C 
ATOM     41  H   GCD d 901       9.343  -9.702  30.012  0.00  0.00     0.134 H 
ATOM     42  H   GCD d 901       9.579 -10.776  32.791  0.00  0.00     0.095 H 
ATOM     43  H   GCD d 901      11.321 -11.097  30.280  0.00  0.00     0.093 H 
ATOM     44  H   GCD d 901      11.481 -12.284  32.835  0.00  0.00     0.210 HD
ATOM     45  H   GCD d 901      11.192  -8.891  31.395  0.00  0.00     0.210 HD
ATOM     46  H   GCD d 901      10.647 -13.313  29.810  0.00  0.00     0.085 H 
ENDROOT
TORSDOF 11
ENDMDL
MODEL 45
REMARK VINA RESULT:      -7.3      2.732      4.875
REMARK  0 active torsions:
REMARK  status: ('A' for Active; 'I' for Inactive)
REMARK       I    between atoms: C8_1  and  C7_18 
REMARK       I    between atoms: O6_4  and  C6_20 
REMARK       I    between atoms: C3_6  and  O3_22 
REMARK       I    between atoms: O1_7  and  C1_15 
REMARK       I    between atoms: O4_9  and  C4_11 
REMARK       I    between atoms: C1_10  and  O3_22 
REMARK       I    between atoms: C5_12  and  C6_17 
REMARK       I    between atoms: C2_13  and  O2_25 
REMARK       I    between atoms: C5_16  and  C6_20 
REMARK       I    between atoms: C7_18  and  N2_19 
REMARK       I    between atoms: N2_19  and  C2_23 
REMARK       I    between atoms: C3_21  and  O3_24 
ROOT
ATOM      1  C8  NAG d 902       3.515  -5.147  33.152  0.00  0.00    -0.003 C 
ATOM      2  O6  NAG d 902      11.038  -7.879  30.403  0.00  0.00    -0.398 OA
ATOM      3  O7  NAG d 902       5.153  -4.782  31.376  0.00  0.00    -0.274 OA
ATOM      4  C3  NAG d 902       6.904  -8.118  31.931  0.00  0.00     0.093 C 
ATOM      5  O1  NAG d 902       8.265  -5.308  34.016  0.00  0.00    -0.369 OA
ATOM      6  O5  NAG d 902       9.431  -7.020  32.780  0.00  0.00    -0.349 OA
ATOM      7  O4  NAG d 902       8.168  -9.846  30.669  0.00  0.00    -0.390 OA
ATOM      8  C4  NAG d 902       8.222  -8.504  31.209  0.00  0.00     0.089 C 
ATOM      9  C1  NAG d 902       8.166  -6.619  33.472  0.00  0.00     0.151 C 
ATOM     10  C5  NAG d 902       9.375  -8.407  32.192  0.00  0.00     0.089 C 
ATOM     11  C7  NAG d 902       4.841  -5.366  32.450  0.00  0.00     0.214 C 
ATOM     12  N2  NAG d 902       5.666  -6.328  33.117  0.00  0.00    -0.349 N 
ATOM     13  C6  NAG d 902      10.694  -8.761  31.505  0.00  0.00     0.043 C 
ATOM     14  O3  NAG d 902       5.777  -8.181  31.023  0.00  0.00    -0.348 OA
ATOM     15  C2  NAG d 902       6.997  -6.689  32.481  0.00  0.00     0.087 C 
ATOM     16  H   NAG d 902       2.942  -4.422  32.614  0.00  0.00     0.040 H 
ATOM     17  H   NAG d 902       3.692  -4.795  34.147  0.00  0.00     0.040 H 
ATOM     18  H   NAG d 902       2.975  -6.070  33.191  0.00  0.00     0.040 H 
ATOM     19  H   NAG d 902      11.882  -8.160  30.016  0.00  0.00     0.209 HD
ATOM     20  H   NAG d 902       6.760  -8.814  32.731  0.00  0.00     0.091 H 
ATOM     21  H   NAG d 902       9.006  -5.273  34.641  0.00  0.00     0.212 HD
ATOM     22  H   NAG d 902       7.432  -9.912  30.040  0.00  0.00     0.210 HD
ATOM     23  H   NAG d 902       8.362  -7.826  30.392  0.00  0.00     0.091 H 
ATOM     24  H   NAG d 902       7.996  -7.297  34.282  0.00  0.00     0.132 H 
ATOM     25  H   NAG d 902       9.217  -9.109  32.985  0.00  0.00     0.090 H 
ATOM     26  H   NAG d 902       5.378  -6.744  33.962  0.00  0.00     0.163 HD
ATOM     27  H   NAG d 902      11.476  -8.713  32.233  0.00  0.00     0.078 H 
ATOM     28  H   NAG d 902      10.577  -9.742  31.093  0.00  0.00     0.078 H 
ATOM     29  H   NAG d 902       7.190  -5.977  31.706  0.00  0.00     0.084 H 
ATOM     30  O6A GCD d 901       3.927 -13.415  32.978  0.00  0.00    -0.642 OA
ATOM     31  O5  GCD d 901       5.217 -10.423  31.315  0.00  0.00    -0.311 OA
ATOM     32  C1  GCD d 901       4.673  -9.015  31.312  0.00  0.00     0.165 C 
ATOM     33  C5  GCD d 901       4.211 -11.514  31.570  0.00  0.00     0.147 C 
ATOM     34  C2  GCD d 901       3.615  -8.941  30.255  0.00  0.00     0.111 C 
ATOM     35  O6B GCD d 901       5.838 -13.149  31.658  0.00  0.00    -0.642 OA
ATOM     36  C6  GCD d 901       4.739 -12.774  32.208  0.00  0.00     0.233 C 
ATOM     37  C3  GCD d 901       2.483  -9.923  30.721  0.00  0.00     0.084 C 
ATOM     38  O3  GCD d 901       1.476  -9.908  29.726  0.00  0.00    -0.389 OA
ATOM     39  O2  GCD d 901       3.091  -7.582  30.106  0.00  0.00    -0.388 OA
ATOM     40  C4  GCD d 901       2.900 -11.248  31.391  0.00  0.00    -0.034 C 
ATOM     41  H   GCD d 901       4.230  -8.715  32.238  0.00  0.00     0.134 H 
ATOM     42  H   GCD d 901       4.011  -9.210  29.299  0.00  0.00     0.095 H 
ATOM     43  H   GCD d 901       2.034  -9.567  31.624  0.00  0.00     0.093 H 
ATOM     44  H   GCD d 901       1.845 -10.227  28.887  0.00  0.00     0.210 HD
ATOM     45  H   GCD d 901       2.717  -7.285  30.951  0.00  0.00     0.210 HD
ATOM     46  H   GCD d 901       2.184 -11.924  31.699  0.00  0.00     0.085 H 
ENDROOT
TORSDOF 11
ENDMDL
MODEL 46
REMARK VINA RESULT:      -7.3      4.562      8.038
REMARK  0 active torsions:
REMARK  status: ('A' for Active; 'I' for Inactive)
REMARK       I    between atoms: C8_1  and  C7_18 
REMARK       I    between atoms: O6_4  and  C6_20 
REMARK       I    between atoms: C3_6  and  O3_22 
REMARK       I    between atoms: O1_7  and  C1_15 
REMARK       I    between atoms: O4_9  and  C4_11 
REMARK       I    between atoms: C1_10  and  O3_22 
REMARK       I    between atoms: C5_12  and  C6_17 
REMARK       I    between atoms: C2_13  and  O2_25 
REMARK       I    between atoms: C5_16  and  C6_20 
REMARK       I    between atoms: C7_18  and  N2_19 
REMARK       I    between atoms: N2_19  and  C2_23 
REMARK       I    between atoms: C3_21  and  O3_24 
ROOT
ATOM      1  C8  NAG d 902       4.604 -11.842  27.871  0.00  0.00    -0.003 C 
ATOM      2  O6  NAG d 902      -1.409  -6.869  24.594  0.00  0.00    -0.398 OA
ATOM      3  O7  NAG d 902       4.310  -9.792  26.574  0.00  0.00    -0.274 OA
ATOM      4  C3  NAG d 902       0.673  -9.337  27.604  0.00  0.00     0.093 C 
ATOM      5  O1  NAG d 902       1.142 -11.434  24.526  0.00  0.00    -0.369 OA
ATOM      6  O5  NAG d 902      -0.454  -9.682  24.973  0.00  0.00    -0.349 OA
ATOM      7  O4  NAG d 902      -0.992  -7.534  27.994  0.00  0.00    -0.390 OA
ATOM      8  C4  NAG d 902      -0.246  -8.251  26.983  0.00  0.00     0.089 C 
ATOM      9  C1  NAG d 902       0.448 -10.729  25.548  0.00  0.00     0.151 C 
ATOM     10  C5  NAG d 902      -1.217  -8.912  26.021  0.00  0.00     0.089 C 
ATOM     11  C7  NAG d 902       3.791 -10.801  27.126  0.00  0.00     0.214 C 
ATOM     12  N2  NAG d 902       2.386 -11.072  27.158  0.00  0.00    -0.349 N 
ATOM     13  C6  NAG d 902      -2.124  -7.864  25.374  0.00  0.00     0.043 C 
ATOM     14  O3  NAG d 902       1.628  -8.748  28.519  0.00  0.00    -0.348 OA
ATOM     15  C2  NAG d 902       1.450 -10.069  26.504  0.00  0.00     0.087 C 
ATOM     16  H   NAG d 902       5.642 -11.592  27.815  0.00  0.00     0.040 H 
ATOM     17  H   NAG d 902       4.444 -12.802  27.427  0.00  0.00     0.040 H 
ATOM     18  H   NAG d 902       4.298 -11.867  28.896  0.00  0.00     0.040 H 
ATOM     19  H   NAG d 902      -2.043  -6.240  24.214  0.00  0.00     0.209 HD
ATOM     20  H   NAG d 902       0.046 -10.024  28.134  0.00  0.00     0.091 H 
ATOM     21  H   NAG d 902       0.501 -11.847  23.927  0.00  0.00     0.212 HD
ATOM     22  H   NAG d 902      -0.375  -7.110  28.612  0.00  0.00     0.210 HD
ATOM     23  H   NAG d 902       0.376  -7.547  26.470  0.00  0.00     0.091 H 
ATOM     24  H   NAG d 902      -0.152 -11.435  26.082  0.00  0.00     0.132 H 
ATOM     25  H   NAG d 902      -1.836  -9.595  26.564  0.00  0.00     0.090 H 
ATOM     26  H   NAG d 902       2.035 -11.883  27.592  0.00  0.00     0.163 HD
ATOM     27  H   NAG d 902      -2.813  -8.368  24.729  0.00  0.00     0.078 H 
ATOM     28  H   NAG d 902      -2.614  -7.343  26.170  0.00  0.00     0.078 H 
ATOM     29  H   NAG d 902       2.050  -9.396  25.927  0.00  0.00     0.084 H 
ATOM     30  O6A GCD d 901      -1.399 -10.235  33.342  0.00  0.00    -0.642 OA
ATOM     31  O5  GCD d 901       0.339  -8.805  30.458  0.00  0.00    -0.311 OA
ATOM     32  C1  GCD d 901       1.680  -9.168  29.867  0.00  0.00     0.165 C 
ATOM     33  C5  GCD d 901       0.157  -9.127  31.918  0.00  0.00     0.147 C 
ATOM     34  C2  GCD d 901       2.730  -8.441  30.648  0.00  0.00     0.111 C 
ATOM     35  O6B GCD d 901      -2.074  -8.533  31.887  0.00  0.00    -0.642 OA
ATOM     36  C6  GCD d 901      -1.256  -9.398  32.371  0.00  0.00     0.233 C 
ATOM     37  C3  GCD d 901       2.645  -9.013  32.107  0.00  0.00     0.084 C 
ATOM     38  O3  GCD d 901       3.602  -8.322  32.888  0.00  0.00    -0.389 OA
ATOM     39  O2  GCD d 901       4.066  -8.652  30.088  0.00  0.00    -0.388 OA
ATOM     40  C4  GCD d 901       1.249  -9.332  32.682  0.00  0.00    -0.034 C 
ATOM     41  H   GCD d 901       1.908 -10.212  29.908  0.00  0.00     0.134 H 
ATOM     42  H   GCD d 901       2.563  -7.384  30.622  0.00  0.00     0.095 H 
ATOM     43  H   GCD d 901       2.923 -10.047  32.115  0.00  0.00     0.093 H 
ATOM     44  H   GCD d 901       3.384  -7.378  32.906  0.00  0.00     0.210 HD
ATOM     45  H   GCD d 901       4.271  -9.600  30.087  0.00  0.00     0.210 HD
ATOM     46  H   GCD d 901       1.153  -9.699  33.642  0.00  0.00     0.085 H 
ENDROOT
TORSDOF 11
ENDMDL
MODEL 47
REMARK VINA RESULT:      -7.3      2.853      5.733
REMARK  0 active torsions:
REMARK  status: ('A' for Active; 'I' for Inactive)
REMARK       I    between atoms: C8_1  and  C7_18 
REMARK       I    between atoms: O6_4  and  C6_20 
REMARK       I    between atoms: C3_6  and  O3_22 
REMARK       I    between atoms: O1_7  and  C1_15 
REMARK       I    between atoms: O4_9  and  C4_11 
REMARK       I    between atoms: C1_10  and  O3_22 
REMARK       I    between atoms: C5_12  and  C6_17 
REMARK       I    between atoms: C2_13  and  O2_25 
REMARK       I    between atoms: C5_16  and  C6_20 
REMARK       I    between atoms: C7_18  and  N2_19 
REMARK       I    between atoms: N2_19  and  C2_23 
REMARK       I    between atoms: C3_21  and  O3_24 
ROOT
ATOM      1  C8  NAG d 902       2.483  -7.404  29.785  0.00  0.00    -0.003 C 
ATOM      2  O6  NAG d 902       9.920  -4.940  32.985  0.00  0.00    -0.398 OA
ATOM      3  O7  NAG d 902       4.486  -6.129  29.211  0.00  0.00    -0.274 OA
ATOM      4  C3  NAG d 902       6.589  -7.662  31.991  0.00  0.00     0.093 C 
ATOM      5  O1  NAG d 902       4.702  -4.584  33.019  0.00  0.00    -0.369 OA
ATOM      6  O5  NAG d 902       6.980  -5.226  33.482  0.00  0.00    -0.349 OA
ATOM      7  O4  NAG d 902       8.949  -8.257  32.495  0.00  0.00    -0.390 OA
ATOM      8  C4  NAG d 902       8.017  -7.161  32.336  0.00  0.00     0.089 C 
ATOM      9  C1  NAG d 902       5.598  -5.683  33.137  0.00  0.00     0.151 C 
ATOM     10  C5  NAG d 902       7.965  -6.359  33.625  0.00  0.00     0.089 C 
ATOM     11  C7  NAG d 902       3.826  -6.766  30.078  0.00  0.00     0.214 C 
ATOM     12  N2  NAG d 902       4.270  -7.004  31.418  0.00  0.00    -0.349 N 
ATOM     13  C6  NAG d 902       9.354  -5.832  33.983  0.00  0.00     0.043 C 
ATOM     14  O3  NAG d 902       6.590  -8.420  30.757  0.00  0.00    -0.348 OA
ATOM     15  C2  NAG d 902       5.634  -6.474  31.823  0.00  0.00     0.087 C 
ATOM     16  H   NAG d 902       2.201  -7.196  28.775  0.00  0.00     0.040 H 
ATOM     17  H   NAG d 902       1.746  -7.004  30.450  0.00  0.00     0.040 H 
ATOM     18  H   NAG d 902       2.552  -8.463  29.924  0.00  0.00     0.040 H 
ATOM     19  H   NAG d 902      10.797  -4.645  33.275  0.00  0.00     0.209 HD
ATOM     20  H   NAG d 902       6.265  -8.287  32.796  0.00  0.00     0.091 H 
ATOM     21  H   NAG d 902       4.685  -4.090  33.853  0.00  0.00     0.212 HD
ATOM     22  H   NAG d 902       8.985  -8.772  31.674  0.00  0.00     0.210 HD
ATOM     23  H   NAG d 902       8.359  -6.552  31.525  0.00  0.00     0.091 H 
ATOM     24  H   NAG d 902       5.242  -6.310  33.928  0.00  0.00     0.132 H 
ATOM     25  H   NAG d 902       7.639  -6.997  34.420  0.00  0.00     0.090 H 
ATOM     26  H   NAG d 902       3.707  -7.497  32.059  0.00  0.00     0.163 HD
ATOM     27  H   NAG d 902       9.285  -5.300  34.908  0.00  0.00     0.078 H 
ATOM     28  H   NAG d 902      10.003  -6.680  34.045  0.00  0.00     0.078 H 
ATOM     29  H   NAG d 902       5.963  -5.806  31.055  0.00  0.00     0.084 H 
ATOM     30  O6A GCD d 901       6.492 -13.651  33.451  0.00  0.00    -0.642 OA
ATOM     31  O5  GCD d 901       7.057 -10.525  31.639  0.00  0.00    -0.311 OA
ATOM     32  C1  GCD d 901       6.123  -9.754  30.738  0.00  0.00     0.165 C 
ATOM     33  C5  GCD d 901       6.784 -12.001  31.758  0.00  0.00     0.147 C 
ATOM     34  C2  GCD d 901       6.206 -10.364  29.373  0.00  0.00     0.111 C 
ATOM     35  O6B GCD d 901       8.385 -12.280  33.397  0.00  0.00    -0.642 OA
ATOM     36  C6  GCD d 901       7.207 -12.657  33.049  0.00  0.00     0.233 C 
ATOM     37  C3  GCD d 901       5.667 -11.829  29.531  0.00  0.00     0.084 C 
ATOM     38  O3  GCD d 901       5.762 -12.453  28.264  0.00  0.00    -0.389 OA
ATOM     39  O2  GCD d 901       5.405  -9.622  28.398  0.00  0.00    -0.388 OA
ATOM     40  C4  GCD d 901       6.033 -12.604  30.814  0.00  0.00    -0.034 C 
ATOM     41  H   GCD d 901       5.099  -9.779  31.045  0.00  0.00     0.134 H 
ATOM     42  H   GCD d 901       7.210 -10.344  29.005  0.00  0.00     0.095 H 
ATOM     43  H   GCD d 901       4.629 -11.815  29.794  0.00  0.00     0.093 H 
ATOM     44  H   GCD d 901       6.691 -12.487  27.989  0.00  0.00     0.210 HD
ATOM     45  H   GCD d 901       4.478  -9.608  28.684  0.00  0.00     0.210 HD
ATOM     46  H   GCD d 901       5.706 -13.574  30.948  0.00  0.00     0.085 H 
ENDROOT
TORSDOF 11
ENDMDL
MODEL 48
REMARK VINA RESULT:      -7.3      3.776      7.008
REMARK  0 active torsions:
REMARK  status: ('A' for Active; 'I' for Inactive)
REMARK       I    between atoms: C8_1  and  C7_18 
REMARK       I    between atoms: O6_4  and  C6_20 
REMARK       I    between atoms: C3_6  and  O3_22 
REMARK       I    between atoms: O1_7  and  C1_15 
REMARK       I    between atoms: O4_9  and  C4_11 
REMARK       I    between atoms: C1_10  and  O3_22 
REMARK       I    between atoms: C5_12  and  C6_17 
REMARK       I    between atoms: C2_13  and  O2_25 
REMARK       I    between atoms: C5_16  and  C6_20 
REMARK       I    between atoms: C7_18  and  N2_19 
REMARK       I    between atoms: N2_19  and  C2_23 
REMARK       I    between atoms: C3_21  and  O3_24 
ROOT
ATOM      1  C8  NAG d 902       6.407  -6.367  29.042  0.00  0.00    -0.003 C 
ATOM      2  O6  NAG d 902      -1.123  -7.140  32.826  0.00  0.00    -0.398 OA
ATOM      3  O7  NAG d 902       5.394  -6.707  31.239  0.00  0.00    -0.274 OA
ATOM      4  C3  NAG d 902       2.040  -7.820  29.822  0.00  0.00     0.093 C 
ATOM      5  O1  NAG d 902       2.333  -4.112  30.328  0.00  0.00    -0.369 OA
ATOM      6  O5  NAG d 902       0.506  -5.601  30.839  0.00  0.00    -0.349 OA
ATOM      7  O4  NAG d 902       0.124  -9.300  30.384  0.00  0.00    -0.390 OA
ATOM      8  C4  NAG d 902       0.790  -8.058  30.711  0.00  0.00     0.089 C 
ATOM      9  C1  NAG d 902       1.722  -5.354  30.002  0.00  0.00     0.151 C 
ATOM     10  C5  NAG d 902      -0.181  -6.906  30.523  0.00  0.00     0.089 C 
ATOM     11  C7  NAG d 902       5.244  -6.480  30.007  0.00  0.00     0.214 C 
ATOM     12  N2  NAG d 902       3.974  -6.343  29.359  0.00  0.00    -0.349 N 
ATOM     13  C6  NAG d 902      -1.416  -7.098  31.403  0.00  0.00     0.043 C 
ATOM     14  O3  NAG d 902       3.002  -8.890  29.983  0.00  0.00    -0.348 OA
ATOM     15  C2  NAG d 902       2.721  -6.501  30.203  0.00  0.00     0.087 C 
ATOM     16  H   NAG d 902       7.327  -6.477  29.577  0.00  0.00     0.040 H 
ATOM     17  H   NAG d 902       6.384  -5.409  28.566  0.00  0.00     0.040 H 
ATOM     18  H   NAG d 902       6.333  -7.136  28.301  0.00  0.00     0.040 H 
ATOM     19  H   NAG d 902      -1.947  -7.264  33.322  0.00  0.00     0.209 HD
ATOM     20  H   NAG d 902       1.709  -7.786  28.805  0.00  0.00     0.091 H 
ATOM     21  H   NAG d 902       1.695  -3.394  30.198  0.00  0.00     0.212 HD
ATOM     22  H   NAG d 902       0.741 -10.039  30.503  0.00  0.00     0.210 HD
ATOM     23  H   NAG d 902       1.116  -8.116  31.729  0.00  0.00     0.091 H 
ATOM     24  H   NAG d 902       1.422  -5.311  28.976  0.00  0.00     0.132 H 
ATOM     25  H   NAG d 902      -0.503  -6.884  29.502  0.00  0.00     0.090 H 
ATOM     26  H   NAG d 902       3.915  -6.151  28.395  0.00  0.00     0.163 HD
ATOM     27  H   NAG d 902      -2.089  -6.287  31.221  0.00  0.00     0.078 H 
ATOM     28  H   NAG d 902      -1.838  -8.047  31.144  0.00  0.00     0.078 H 
ATOM     29  H   NAG d 902       3.019  -6.490  31.230  0.00  0.00     0.084 H 
ATOM     30  O6A GCD d 901       1.450 -11.634  25.013  0.00  0.00    -0.642 OA
ATOM     31  O5  GCD d 901       2.186 -10.344  28.355  0.00  0.00    -0.311 OA
ATOM     32  C1  GCD d 901       3.424  -9.646  28.866  0.00  0.00     0.165 C 
ATOM     33  C5  GCD d 901       2.386 -11.251  27.170  0.00  0.00     0.147 C 
ATOM     34  C2  GCD d 901       4.418 -10.702  29.237  0.00  0.00     0.111 C 
ATOM     35  O6B GCD d 901       0.121 -11.631  26.937  0.00  0.00    -0.642 OA
ATOM     36  C6  GCD d 901       1.196 -11.434  26.261  0.00  0.00     0.233 C 
ATOM     37  C3  GCD d 901       4.766 -11.446  27.900  0.00  0.00     0.084 C 
ATOM     38  O3  GCD d 901       5.680 -12.479  28.217  0.00  0.00    -0.389 OA
ATOM     39  O2  GCD d 901       5.622 -10.126  29.838  0.00  0.00    -0.388 OA
ATOM     40  C4  GCD d 901       3.630 -11.691  26.887  0.00  0.00    -0.034 C 
ATOM     41  H   GCD d 901       3.888  -9.000  28.151  0.00  0.00     0.134 H 
ATOM     42  H   GCD d 901       4.012 -11.367  29.971  0.00  0.00     0.095 H 
ATOM     43  H   GCD d 901       5.269 -10.780  27.229  0.00  0.00     0.093 H 
ATOM     44  H   GCD d 901       5.261 -13.106  28.827  0.00  0.00     0.210 HD
ATOM     45  H   GCD d 901       6.033  -9.511  29.211  0.00  0.00     0.210 HD
ATOM     46  H   GCD d 901       3.819 -12.186  26.002  0.00  0.00     0.085 H 
ENDROOT
TORSDOF 11
ENDMDL
MODEL 49
REMARK VINA RESULT:      -7.2      3.011      5.463
REMARK  0 active torsions:
REMARK  status: ('A' for Active; 'I' for Inactive)
REMARK       I    between atoms: C8_1  and  C7_18 
REMARK       I    between atoms: O6_4  and  C6_20 
REMARK       I    between atoms: C3_6  and  O3_22 
REMARK       I    between atoms: O1_7  and  C1_15 
REMARK       I    between atoms: O4_9  and  C4_11 
REMARK       I    between atoms: C1_10  and  O3_22 
REMARK       I    between atoms: C5_12  and  C6_17 
REMARK       I    between atoms: C2_13  and  O2_25 
REMARK       I    between atoms: C5_16  and  C6_20 
REMARK       I    between atoms: C7_18  and  N2_19 
REMARK       I    between atoms: N2_19  and  C2_23 
REMARK       I    between atoms: C3_21  and  O3_24 
ROOT
ATOM      1  C8  NAG d 902       8.367 -12.061  29.783  0.00  0.00    -0.003 C 
ATOM      2  O6  NAG d 902       1.183 -14.459  33.559  0.00  0.00    -0.398 OA
ATOM      3  O7  NAG d 902       6.715 -13.861  29.789  0.00  0.00    -0.274 OA
ATOM      4  C3  NAG d 902       4.050 -11.779  31.538  0.00  0.00     0.093 C 
ATOM      5  O1  NAG d 902       6.335 -13.621  33.879  0.00  0.00    -0.369 OA
ATOM      6  O5  NAG d 902       3.940 -13.355  33.950  0.00  0.00    -0.349 OA
ATOM      7  O4  NAG d 902       1.579 -11.554  31.666  0.00  0.00    -0.390 OA
ATOM      8  C4  NAG d 902       2.708 -12.379  32.036  0.00  0.00     0.089 C 
ATOM      9  C1  NAG d 902       5.245 -12.802  33.472  0.00  0.00     0.151 C 
ATOM     10  C5  NAG d 902       2.754 -12.515  33.547  0.00  0.00     0.089 C 
ATOM     11  C7  NAG d 902       7.138 -12.786  30.296  0.00  0.00     0.214 C 
ATOM     12  N2  NAG d 902       6.503 -12.097  31.378  0.00  0.00    -0.349 N 
ATOM     13  C6  NAG d 902       1.452 -13.125  34.068  0.00  0.00     0.043 C 
ATOM     14  O3  NAG d 902       4.057 -11.647  30.096  0.00  0.00    -0.348 OA
ATOM     15  C2  NAG d 902       5.220 -12.684  31.943  0.00  0.00     0.087 C 
ATOM     16  H   NAG d 902       8.801 -12.618  28.979  0.00  0.00     0.040 H 
ATOM     17  H   NAG d 902       9.080 -11.964  30.575  0.00  0.00     0.040 H 
ATOM     18  H   NAG d 902       8.088 -11.089  29.433  0.00  0.00     0.040 H 
ATOM     19  H   NAG d 902       0.347 -14.784  33.929  0.00  0.00     0.209 HD
ATOM     20  H   NAG d 902       4.156 -10.814  31.988  0.00  0.00     0.091 H 
ATOM     21  H   NAG d 902       6.344 -13.691  34.846  0.00  0.00     0.212 HD
ATOM     22  H   NAG d 902       1.546 -11.465  30.700  0.00  0.00     0.210 HD
ATOM     23  H   NAG d 902       2.583 -13.336  31.573  0.00  0.00     0.091 H 
ATOM     24  H   NAG d 902       5.383 -11.835  33.908  0.00  0.00     0.132 H 
ATOM     25  H   NAG d 902       2.860 -11.543  33.982  0.00  0.00     0.090 H 
ATOM     26  H   NAG d 902       6.885 -11.267  31.745  0.00  0.00     0.163 HD
ATOM     27  H   NAG d 902       1.508 -13.177  35.135  0.00  0.00     0.078 H 
ATOM     28  H   NAG d 902       0.656 -12.496  33.729  0.00  0.00     0.078 H 
ATOM     29  H   NAG d 902       5.114 -13.671  31.545  0.00  0.00     0.084 H 
ATOM     30  O6A GCD d 901       2.869  -5.883  30.174  0.00  0.00    -0.642 OA
ATOM     31  O5  GCD d 901       3.109  -9.525  29.935  0.00  0.00    -0.311 OA
ATOM     32  C1  GCD d 901       4.269 -10.385  29.495  0.00  0.00     0.165 C 
ATOM     33  C5  GCD d 901       3.090  -8.121  29.389  0.00  0.00     0.147 C 
ATOM     34  C2  GCD d 901       4.239 -10.456  28.000  0.00  0.00     0.111 C 
ATOM     35  O6B GCD d 901       1.281  -7.519  30.691  0.00  0.00    -0.642 OA
ATOM     36  C6  GCD d 901       2.403  -7.083  30.240  0.00  0.00     0.233 C 
ATOM     37  C3  GCD d 901       4.477  -8.988  27.501  0.00  0.00     0.084 C 
ATOM     38  O3  GCD d 901       4.419  -9.008  26.087  0.00  0.00    -0.389 OA
ATOM     39  O2  GCD d 901       5.273 -11.353  27.479  0.00  0.00    -0.388 OA
ATOM     40  C4  GCD d 901       3.824  -7.836  28.294  0.00  0.00    -0.034 C 
ATOM     41  H   GCD d 901       5.228 -10.008  29.784  0.00  0.00     0.134 H 
ATOM     42  H   GCD d 901       3.306 -10.851  27.655  0.00  0.00     0.095 H 
ATOM     43  H   GCD d 901       5.460  -8.662  27.769  0.00  0.00     0.093 H 
ATOM     44  H   GCD d 901       3.539  -9.299  25.803  0.00  0.00     0.210 HD
ATOM     45  H   GCD d 901       6.146 -11.040  27.764  0.00  0.00     0.210 HD
ATOM     46  H   GCD d 901       3.949  -6.858  27.989  0.00  0.00     0.085 H 
ENDROOT
TORSDOF 11
ENDMDL
MODEL 50
REMARK VINA RESULT:      -7.2      2.413      4.954
REMARK  0 active torsions:
REMARK  status: ('A' for Active; 'I' for Inactive)
REMARK       I    between atoms: C8_1  and  C7_18 
REMARK       I    between atoms: O6_4  and  C6_20 
REMARK       I    between atoms: C3_6  and  O3_22 
REMARK       I    between atoms: O1_7  and  C1_15 
REMARK       I    between atoms: O4_9  and  C4_11 
REMARK       I    between atoms: C1_10  and  O3_22 
REMARK       I    between atoms: C5_12  and  C6_17 
REMARK       I    between atoms: C2_13  and  O2_25 
REMARK       I    between atoms: C5_16  and  C6_20 
REMARK       I    between atoms: C7_18  and  N2_19 
REMARK       I    between atoms: N2_19  and  C2_23 
REMARK       I    between atoms: C3_21  and  O3_24 
ROOT
ATOM      1  C8  NAG d 902       3.432  -5.511  30.456  0.00  0.00    -0.003 C 
ATOM      2  O6  NAG d 902      11.305  -8.613  30.349  0.00  0.00    -0.398 OA
ATOM      3  O7  NAG d 902       5.381  -5.739  29.000  0.00  0.00    -0.274 OA
ATOM      4  C3  NAG d 902       6.953  -8.512  31.083  0.00  0.00     0.093 C 
ATOM      5  O1  NAG d 902       7.930  -5.050  32.156  0.00  0.00    -0.369 OA
ATOM      6  O5  NAG d 902       9.287  -7.026  31.892  0.00  0.00    -0.349 OA
ATOM      7  O4  NAG d 902       8.411 -10.507  30.820  0.00  0.00    -0.390 OA
ATOM      8  C4  NAG d 902       8.379  -9.060  30.811  0.00  0.00     0.089 C 
ATOM      9  C1  NAG d 902       7.919  -6.472  32.141  0.00  0.00     0.151 C 
ATOM     10  C5  NAG d 902       9.326  -8.533  31.874  0.00  0.00     0.089 C 
ATOM     11  C7  NAG d 902       4.864  -5.896  30.140  0.00  0.00     0.214 C 
ATOM     12  N2  NAG d 902       5.535  -6.487  31.258  0.00  0.00    -0.349 N 
ATOM     13  C6  NAG d 902      10.747  -9.038  31.622  0.00  0.00     0.043 C 
ATOM     14  O3  NAG d 902       6.018  -8.978  30.080  0.00  0.00    -0.348 OA
ATOM     15  C2  NAG d 902       6.958  -6.979  31.058  0.00  0.00     0.087 C 
ATOM     16  H   NAG d 902       2.979  -5.076  29.589  0.00  0.00     0.040 H 
ATOM     17  H   NAG d 902       3.421  -4.802  31.257  0.00  0.00     0.040 H 
ATOM     18  H   NAG d 902       2.883  -6.383  30.744  0.00  0.00     0.040 H 
ATOM     19  H   NAG d 902      12.203  -8.967  30.256  0.00  0.00     0.209 HD
ATOM     20  H   NAG d 902       6.651  -8.865  32.047  0.00  0.00     0.091 H 
ATOM     21  H   NAG d 902       8.539  -4.738  32.842  0.00  0.00     0.212 HD
ATOM     22  H   NAG d 902       7.807 -10.848  30.141  0.00  0.00     0.210 HD
ATOM     23  H   NAG d 902       8.680  -8.730  29.838  0.00  0.00     0.091 H 
ATOM     24  H   NAG d 902       7.590  -6.806  33.103  0.00  0.00     0.132 H 
ATOM     25  H   NAG d 902       9.012  -8.894  32.831  0.00  0.00     0.090 H 
ATOM     26  H   NAG d 902       5.088  -6.573  32.131  0.00  0.00     0.163 HD
ATOM     27  H   NAG d 902      11.378  -8.673  32.405  0.00  0.00     0.078 H 
ATOM     28  H   NAG d 902      10.698 -10.106  31.599  0.00  0.00     0.078 H 
ATOM     29  H   NAG d 902       7.303  -6.598  30.119  0.00  0.00     0.084 H 
ATOM     30  O6A GCD d 901       3.766 -13.201  33.505  0.00  0.00    -0.642 OA
ATOM     31  O5  GCD d 901       5.385 -10.978  31.094  0.00  0.00    -0.311 OA
ATOM     32  C1  GCD d 901       4.869  -9.708  30.460  0.00  0.00     0.165 C 
ATOM     33  C5  GCD d 901       4.335 -11.953  31.558  0.00  0.00     0.147 C 
ATOM     34  C2  GCD d 901       4.031 -10.100  29.282  0.00  0.00     0.111 C 
ATOM     35  O6B GCD d 901       5.895 -13.335  32.550  0.00  0.00    -0.642 OA
ATOM     36  C6  GCD d 901       4.717 -12.848  32.710  0.00  0.00     0.233 C 
ATOM     37  C3  GCD d 901       2.819 -10.903  29.873  0.00  0.00     0.084 C 
ATOM     38  O3  GCD d 901       2.019 -11.323  28.783  0.00  0.00    -0.389 OA
ATOM     39  O2  GCD d 901       3.562  -8.930  28.538  0.00  0.00    -0.388 OA
ATOM     40  C4  GCD d 901       3.086 -11.853  31.059  0.00  0.00    -0.034 C 
ATOM     41  H   GCD d 901       4.262  -9.111  31.107  0.00  0.00     0.134 H 
ATOM     42  H   GCD d 901       4.597 -10.683  28.587  0.00  0.00     0.095 H 
ATOM     43  H   GCD d 901       2.211 -10.262  30.478  0.00  0.00     0.093 H 
ATOM     44  H   GCD d 901       2.536 -11.908  28.209  0.00  0.00     0.210 HD
ATOM     45  H   GCD d 901       3.038  -8.362  29.125  0.00  0.00     0.210 HD
ATOM     46  H   GCD d 901       2.316 -12.406  31.466  0.00  0.00     0.085 H 
ENDROOT
TORSDOF 11
ENDMDL
MODEL 51
REMARK VINA RESULT:      -7.2      2.801      7.018
REMARK  0 active torsions:
REMARK  status: ('A' for Active; 'I' for Inactive)
REMARK       I    between atoms: C8_1  and  C7_18 
REMARK       I    between atoms: O6_4  and  C6_20 
REMARK       I    between atoms: C3_6  and  O3_22 
REMARK       I    between atoms: O1_7  and  C1_15 
REMARK       I    between atoms: O4_9  and  C4_11 
REMARK       I    between atoms: C1_10  and  O3_22 
REMARK       I    between atoms: C5_12  and  C6_17 
REMARK       I    between atoms: C2_13  and  O2_25 
REMARK       I    between atoms: C5_16  and  C6_20 
REMARK       I    between atoms: C7_18  and  N2_19 
REMARK       I    between atoms: N2_19  and  C2_23 
REMARK       I    between atoms: C3_21  and  O3_24 
ROOT
ATOM      1  C8  NAG d 902       6.196  -6.284  29.525  0.00  0.00    -0.003 C 
ATOM      2  O6  NAG d 902       0.002 -11.679  27.488  0.00  0.00    -0.398 OA
ATOM      3  O7  NAG d 902       3.943  -6.953  30.192  0.00  0.00    -0.274 OA
ATOM      4  C3  NAG d 902       4.100 -10.292  28.369  0.00  0.00     0.093 C 
ATOM      5  O1  NAG d 902       2.831  -7.455  26.262  0.00  0.00    -0.369 OA
ATOM      6  O5  NAG d 902       2.017  -9.717  26.460  0.00  0.00    -0.349 OA
ATOM      7  O4  NAG d 902       3.202 -12.603  28.533  0.00  0.00    -0.390 OA
ATOM      8  C4  NAG d 902       2.871 -11.229  28.226  0.00  0.00     0.089 C 
ATOM      9  C1  NAG d 902       3.185  -8.791  26.601  0.00  0.00     0.151 C 
ATOM     10  C5  NAG d 902       2.346 -11.148  26.803  0.00  0.00     0.089 C 
ATOM     11  C7  NAG d 902       4.904  -7.064  29.382  0.00  0.00     0.214 C 
ATOM     12  N2  NAG d 902       4.919  -7.956  28.262  0.00  0.00    -0.349 N 
ATOM     13  C6  NAG d 902       1.119 -12.044  26.633  0.00  0.00     0.043 C 
ATOM     14  O3  NAG d 902       4.624 -10.326  29.719  0.00  0.00    -0.348 OA
ATOM     15  C2  NAG d 902       3.708  -8.846  28.042  0.00  0.00     0.087 C 
ATOM     16  H   NAG d 902       6.130  -5.636  30.374  0.00  0.00     0.040 H 
ATOM     17  H   NAG d 902       6.360  -5.701  28.644  0.00  0.00     0.040 H 
ATOM     18  H   NAG d 902       7.010  -6.965  29.660  0.00  0.00     0.040 H 
ATOM     19  H   NAG d 902      -0.738 -12.286  27.329  0.00  0.00     0.209 HD
ATOM     20  H   NAG d 902       4.847 -10.636  27.685  0.00  0.00     0.091 H 
ATOM     21  H   NAG d 902       2.502  -7.429  25.351  0.00  0.00     0.212 HD
ATOM     22  H   NAG d 902       3.537 -12.660  29.442  0.00  0.00     0.210 HD
ATOM     23  H   NAG d 902       2.126 -10.905  28.923  0.00  0.00     0.091 H 
ATOM     24  H   NAG d 902       3.951  -9.108  25.925  0.00  0.00     0.132 H 
ATOM     25  H   NAG d 902       3.104 -11.495  26.131  0.00  0.00     0.090 H 
ATOM     26  H   NAG d 902       5.691  -7.992  27.653  0.00  0.00     0.163 HD
ATOM     27  H   NAG d 902       0.798 -11.986  25.615  0.00  0.00     0.078 H 
ATOM     28  H   NAG d 902       1.416 -13.033  26.914  0.00  0.00     0.078 H 
ATOM     29  H   NAG d 902       2.926  -8.493  28.682  0.00  0.00     0.084 H 
ATOM     30  O6A GCD d 901       9.046 -13.973  28.386  0.00  0.00    -0.642 OA
ATOM     31  O5  GCD d 901       6.087 -12.123  29.481  0.00  0.00    -0.311 OA
ATOM     32  C1  GCD d 901       5.967 -10.694  29.954  0.00  0.00     0.165 C 
ATOM     33  C5  GCD d 901       7.439 -12.762  29.660  0.00  0.00     0.147 C 
ATOM     34  C2  GCD d 901       6.316 -10.669  31.410  0.00  0.00     0.111 C 
ATOM     35  O6B GCD d 901       6.816 -14.666  28.513  0.00  0.00    -0.642 OA
ATOM     36  C6  GCD d 901       7.797 -13.853  28.683  0.00  0.00     0.233 C 
ATOM     37  C3  GCD d 901       7.820 -11.109  31.493  0.00  0.00     0.084 C 
ATOM     38  O3  GCD d 901       8.178 -11.132  32.863  0.00  0.00    -0.389 OA
ATOM     39  O2  GCD d 901       6.134  -9.336  31.988  0.00  0.00    -0.388 OA
ATOM     40  C4  GCD d 901       8.307 -12.218  30.539  0.00  0.00    -0.034 C 
ATOM     41  H   GCD d 901       6.619 -10.011  29.451  0.00  0.00     0.134 H 
ATOM     42  H   GCD d 901       5.676 -11.321  31.967  0.00  0.00     0.095 H 
ATOM     43  H   GCD d 901       8.444 -10.379  31.020  0.00  0.00     0.093 H 
ATOM     44  H   GCD d 901       7.632 -11.784  33.329  0.00  0.00     0.210 HD
ATOM     45  H   GCD d 901       6.695  -8.700  31.517  0.00  0.00     0.210 HD
ATOM     46  H   GCD d 901       9.286 -12.542  30.573  0.00  0.00     0.085 H 
ENDROOT
TORSDOF 11
ENDMDL
MODEL 52
REMARK VINA RESULT:      -7.2      4.804      8.079
REMARK  0 active torsions:
REMARK  status: ('A' for Active; 'I' for Inactive)
REMARK       I    between atoms: C8_1  and  C7_18 
REMARK       I    between atoms: O6_4  and  C6_20 
REMARK       I    between atoms: C3_6  and  O3_22 
REMARK       I    between atoms: O1_7  and  C1_15 
REMARK       I    between atoms: O4_9  and  C4_11 
REMARK       I    between atoms: C1_10  and  O3_22 
REMARK       I    between atoms: C5_12  and  C6_17 
REMARK       I    between atoms: C2_13  and  O2_25 
REMARK       I    between atoms: C5_16  and  C6_20 
REMARK       I    between atoms: C7_18  and  N2_19 
REMARK       I    between atoms: N2_19  and  C2_23 
REMARK       I    between atoms: C3_21  and  O3_24 
ROOT
ATOM      1  C8  NAG d 902      -2.037  -5.680  30.388  0.00  0.00    -0.003 C 
ATOM      2  O6  NAG d 902       1.000 -13.097  27.673  0.00  0.00    -0.398 OA
ATOM      3  O7  NAG d 902      -2.125  -8.075  30.864  0.00  0.00    -0.274 OA
ATOM      4  C3  NAG d 902       1.043  -8.858  28.902  0.00  0.00     0.093 C 
ATOM      5  O1  NAG d 902      -2.097  -8.965  26.847  0.00  0.00    -0.369 OA
ATOM      6  O5  NAG d 902      -0.220 -10.479  26.881  0.00  0.00    -0.349 OA
ATOM      7  O4  NAG d 902       2.938 -10.465  28.895  0.00  0.00    -0.390 OA
ATOM      8  C4  NAG d 902       1.525 -10.307  28.629  0.00  0.00     0.089 C 
ATOM      9  C1  NAG d 902      -0.712  -9.091  27.147  0.00  0.00     0.151 C 
ATOM     10  C5  NAG d 902       1.247 -10.660  27.179  0.00  0.00     0.089 C 
ATOM     11  C7  NAG d 902      -1.725  -7.138  30.119  0.00  0.00     0.214 C 
ATOM     12  N2  NAG d 902      -0.900  -7.321  28.962  0.00  0.00    -0.349 N 
ATOM     13  C6  NAG d 902       1.691 -12.092  26.882  0.00  0.00     0.043 C 
ATOM     14  O3  NAG d 902       1.275  -8.484  30.282  0.00  0.00    -0.348 OA
ATOM     15  C2  NAG d 902      -0.458  -8.733  28.617  0.00  0.00     0.087 C 
ATOM     16  H   NAG d 902      -2.653  -5.601  31.259  0.00  0.00     0.040 H 
ATOM     17  H   NAG d 902      -2.554  -5.265  29.548  0.00  0.00     0.040 H 
ATOM     18  H   NAG d 902      -1.126  -5.143  30.547  0.00  0.00     0.040 H 
ATOM     19  H   NAG d 902       1.329 -13.978  27.435  0.00  0.00     0.209 HD
ATOM     20  H   NAG d 902       1.597  -8.208  28.257  0.00  0.00     0.091 H 
ATOM     21  H   NAG d 902      -2.248  -9.193  25.917  0.00  0.00     0.212 HD
ATOM     22  H   NAG d 902       3.121 -10.240  29.821  0.00  0.00     0.210 HD
ATOM     23  H   NAG d 902       0.991 -10.962  29.287  0.00  0.00     0.091 H 
ATOM     24  H   NAG d 902      -0.177  -8.417  26.512  0.00  0.00     0.132 H 
ATOM     25  H   NAG d 902       1.808 -10.003  26.547  0.00  0.00     0.090 H 
ATOM     26  H   NAG d 902      -0.628  -6.555  28.407  0.00  0.00     0.163 HD
ATOM     27  H   NAG d 902       1.509 -12.294  25.848  0.00  0.00     0.078 H 
ATOM     28  H   NAG d 902       2.728 -12.156  27.136  0.00  0.00     0.078 H 
ATOM     29  H   NAG d 902      -1.033  -9.408  29.216  0.00  0.00     0.084 H 
ATOM     30  O6A GCD d 901       6.135  -5.385  29.093  0.00  0.00    -0.642 OA
ATOM     31  O5  GCD d 901       3.445  -7.666  30.064  0.00  0.00    -0.311 OA
ATOM     32  C1  GCD d 901       2.065  -7.355  30.594  0.00  0.00     0.165 C 
ATOM     33  C5  GCD d 901       4.493  -6.613  30.307  0.00  0.00     0.147 C 
ATOM     34  C2  GCD d 901       2.187  -7.137  32.070  0.00  0.00     0.111 C 
ATOM     35  O6B GCD d 901       6.065  -7.722  29.032  0.00  0.00    -0.642 OA
ATOM     36  C6  GCD d 901       5.620  -6.548  29.307  0.00  0.00     0.233 C 
ATOM     37  C3  GCD d 901       3.094  -5.868  32.237  0.00  0.00     0.084 C 
ATOM     38  O3  GCD d 901       3.262  -5.650  33.626  0.00  0.00    -0.389 OA
ATOM     39  O2  GCD d 901       0.880  -6.925  32.695  0.00  0.00    -0.388 OA
ATOM     40  C4  GCD d 901       4.281  -5.690  31.269  0.00  0.00    -0.034 C 
ATOM     41  H   GCD d 901       1.621  -6.479  30.170  0.00  0.00     0.134 H 
ATOM     42  H   GCD d 901       2.606  -7.996  32.550  0.00  0.00     0.095 H 
ATOM     43  H   GCD d 901       2.598  -5.005  31.844  0.00  0.00     0.093 H 
ATOM     44  H   GCD d 901       3.710  -6.413  34.022  0.00  0.00     0.210 HD
ATOM     45  H   GCD d 901       0.452  -6.152  32.295  0.00  0.00     0.210 HD
ATOM     46  H   GCD d 901       4.907  -4.874  31.356  0.00  0.00     0.085 H 
ENDROOT
TORSDOF 11
ENDMDL
MODEL 53
REMARK VINA RESULT:      -7.2      3.121      5.936
REMARK  0 active torsions:
REMARK  status: ('A' for Active; 'I' for Inactive)
REMARK       I    between atoms: C8_1  and  C7_18 
REMARK       I    between atoms: O6_4  and  C6_20 
REMARK       I    between atoms: C3_6  and  O3_22 
REMARK       I    between atoms: O1_7  and  C1_15 
REMARK       I    between atoms: O4_9  and  C4_11 
REMARK       I    between atoms: C1_10  and  O3_22 
REMARK       I    between atoms: C5_12  and  C6_17 
REMARK       I    between atoms: C2_13  and  O2_25 
REMARK       I    between atoms: C5_16  and  C6_20 
REMARK       I    between atoms: C7_18  and  N2_19 
REMARK       I    between atoms: N2_19  and  C2_23 
REMARK       I    between atoms: C3_21  and  O3_24 
ROOT
ATOM      1  C8  NAG d 902       1.532  -8.363  29.154  0.00  0.00    -0.003 C 
ATOM      2  O6  NAG d 902       7.888  -4.369  33.061  0.00  0.00    -0.398 OA
ATOM      3  O7  NAG d 902       3.214  -6.628  28.792  0.00  0.00    -0.274 OA
ATOM      4  C3  NAG d 902       5.392  -7.749  31.708  0.00  0.00     0.093 C 
ATOM      5  O1  NAG d 902       2.750  -5.250  32.641  0.00  0.00    -0.369 OA
ATOM      6  O5  NAG d 902       5.071  -5.359  33.289  0.00  0.00    -0.349 OA
ATOM      7  O4  NAG d 902       7.776  -7.795  32.405  0.00  0.00    -0.390 OA
ATOM      8  C4  NAG d 902       6.626  -6.943  32.192  0.00  0.00     0.089 C 
ATOM      9  C1  NAG d 902       3.869  -6.112  32.811  0.00  0.00     0.151 C 
ATOM     10  C5  NAG d 902       6.282  -6.235  33.490  0.00  0.00     0.089 C 
ATOM     11  C7  NAG d 902       2.657  -7.441  29.580  0.00  0.00     0.214 C 
ATOM     12  N2  NAG d 902       3.036  -7.629  30.949  0.00  0.00    -0.349 N 
ATOM     13  C6  NAG d 902       7.472  -5.413  33.983  0.00  0.00     0.043 C 
ATOM     14  O3  NAG d 902       5.672  -8.429  30.460  0.00  0.00    -0.348 OA
ATOM     15  C2  NAG d 902       4.198  -6.812  31.487  0.00  0.00     0.087 C 
ATOM     16  H   NAG d 902       1.291  -8.181  28.128  0.00  0.00     0.040 H 
ATOM     17  H   NAG d 902       0.671  -8.178  29.761  0.00  0.00     0.040 H 
ATOM     18  H   NAG d 902       1.840  -9.381  29.272  0.00  0.00     0.040 H 
ATOM     19  H   NAG d 902       8.643  -3.889  33.436  0.00  0.00     0.209 HD
ATOM     20  H   NAG d 902       5.161  -8.469  32.465  0.00  0.00     0.091 H 
ATOM     21  H   NAG d 902       2.549  -4.812  33.483  0.00  0.00     0.212 HD
ATOM     22  H   NAG d 902       8.000  -8.249  31.578  0.00  0.00     0.210 HD
ATOM     23  H   NAG d 902       6.878  -6.235  31.429  0.00  0.00     0.091 H 
ATOM     24  H   NAG d 902       3.610  -6.840  33.552  0.00  0.00     0.132 H 
ATOM     25  H   NAG d 902       6.054  -6.967  34.237  0.00  0.00     0.090 H 
ATOM     26  H   NAG d 902       2.557  -8.269  31.524  0.00  0.00     0.163 HD
ATOM     27  H   NAG d 902       7.204  -4.955  34.912  0.00  0.00     0.078 H 
ATOM     28  H   NAG d 902       8.297  -6.087  34.081  0.00  0.00     0.078 H 
ATOM     29  H   NAG d 902       4.419  -6.051  30.767  0.00  0.00     0.084 H 
ATOM     30  O6A GCD d 901       6.605 -13.654  33.004  0.00  0.00    -0.642 OA
ATOM     31  O5  GCD d 901       6.554 -10.403  31.328  0.00  0.00    -0.311 OA
ATOM     32  C1  GCD d 901       5.539  -9.833  30.367  0.00  0.00     0.165 C 
ATOM     33  C5  GCD d 901       6.631 -11.906  31.386  0.00  0.00     0.147 C 
ATOM     34  C2  GCD d 901       5.873 -10.344  29.000  0.00  0.00     0.111 C 
ATOM     35  O6B GCD d 901       8.115 -11.875  33.153  0.00  0.00    -0.642 OA
ATOM     36  C6  GCD d 901       7.093 -12.502  32.692  0.00  0.00     0.233 C 
ATOM     37  C3  GCD d 901       5.687 -11.901  29.073  0.00  0.00     0.084 C 
ATOM     38  O3  GCD d 901       6.030 -12.427  27.804  0.00  0.00    -0.389 OA
ATOM     39  O2  GCD d 901       5.000  -9.767  27.976  0.00  0.00    -0.388 OA
ATOM     40  C4  GCD d 901       6.123 -12.625  30.363  0.00  0.00    -0.034 C 
ATOM     41  H   GCD d 901       4.528 -10.112  30.581  0.00  0.00     0.134 H 
ATOM     42  H   GCD d 901       6.870 -10.072  28.723  0.00  0.00     0.095 H 
ATOM     43  H   GCD d 901       4.659 -12.142  29.243  0.00  0.00     0.093 H 
ATOM     44  H   GCD d 901       6.959 -12.228  27.612  0.00  0.00     0.210 HD
ATOM     45  H   GCD d 901       4.077  -9.984  28.179  0.00  0.00     0.210 HD
ATOM     46  H   GCD d 901       6.027 -13.649  30.443  0.00  0.00     0.085 H 
ENDROOT
TORSDOF 11
ENDMDL
MODEL 54
REMARK VINA RESULT:      -7.1      2.542      3.205
REMARK  0 active torsions:
REMARK  status: ('A' for Active; 'I' for Inactive)
REMARK       I    between atoms: C8_1  and  C7_18 
REMARK       I    between atoms: O6_4  and  C6_20 
REMARK       I    between atoms: C3_6  and  O3_22 
REMARK       I    between atoms: O1_7  and  C1_15 
REMARK       I    between atoms: O4_9  and  C4_11 
REMARK       I    between atoms: C1_10  and  O3_22 
REMARK       I    between atoms: C5_12  and  C6_17 
REMARK       I    between atoms: C2_13  and  O2_25 
REMARK       I    between atoms: C5_16  and  C6_20 
REMARK       I    between atoms: C7_18  and  N2_19 
REMARK       I    between atoms: N2_19  and  C2_23 
REMARK       I    between atoms: C3_21  and  O3_24 
ROOT
ATOM      1  C8  NAG d 902       8.165 -11.804  30.164  0.00  0.00    -0.003 C 
ATOM      2  O6  NAG d 902       6.905  -4.824  34.780  0.00  0.00    -0.398 OA
ATOM      3  O7  NAG d 902       8.172 -11.009  32.474  0.00  0.00    -0.274 OA
ATOM      4  C3  NAG d 902       6.141  -7.884  31.692  0.00  0.00     0.093 C 
ATOM      5  O1  NAG d 902       9.850  -7.430  31.332  0.00  0.00    -0.369 OA
ATOM      6  O5  NAG d 902       8.208  -5.983  32.345  0.00  0.00    -0.349 OA
ATOM      7  O4  NAG d 902       4.503  -6.352  32.761  0.00  0.00    -0.390 OA
ATOM      8  C4  NAG d 902       5.890  -6.764  32.735  0.00  0.00     0.089 C 
ATOM      9  C1  NAG d 902       8.474  -7.072  31.353  0.00  0.00     0.151 C 
ATOM     10  C5  NAG d 902       6.760  -5.566  32.398  0.00  0.00     0.089 C 
ATOM     11  C7  NAG d 902       8.067 -10.746  31.245  0.00  0.00     0.214 C 
ATOM     12  N2  NAG d 902       7.805  -9.441  30.716  0.00  0.00    -0.349 N 
ATOM     13  C6  NAG d 902       6.552  -4.449  33.421  0.00  0.00     0.043 C 
ATOM     14  O3  NAG d 902       5.342  -9.056  31.985  0.00  0.00    -0.348 OA
ATOM     15  C2  NAG d 902       7.618  -8.297  31.699  0.00  0.00     0.087 C 
ATOM     16  H   NAG d 902       8.362 -12.755  30.612  0.00  0.00     0.040 H 
ATOM     17  H   NAG d 902       8.961 -11.556  29.493  0.00  0.00     0.040 H 
ATOM     18  H   NAG d 902       7.243 -11.849  29.623  0.00  0.00     0.040 H 
ATOM     19  H   NAG d 902       6.750  -4.072  35.373  0.00  0.00     0.209 HD
ATOM     20  H   NAG d 902       5.870  -7.496  30.732  0.00  0.00     0.091 H 
ATOM     21  H   NAG d 902      10.384  -6.650  31.113  0.00  0.00     0.212 HD
ATOM     22  H   NAG d 902       3.944  -7.115  32.977  0.00  0.00     0.210 HD
ATOM     23  H   NAG d 902       6.138  -7.151  33.702  0.00  0.00     0.091 H 
ATOM     24  H   NAG d 902       8.215  -6.712  30.379  0.00  0.00     0.132 H 
ATOM     25  H   NAG d 902       6.477  -5.189  31.436  0.00  0.00     0.090 H 
ATOM     26  H   NAG d 902       7.747  -9.289  29.745  0.00  0.00     0.163 HD
ATOM     27  H   NAG d 902       7.155  -3.613  33.135  0.00  0.00     0.078 H 
ATOM     28  H   NAG d 902       5.507  -4.219  33.423  0.00  0.00     0.078 H 
ATOM     29  H   NAG d 902       7.928  -8.645  32.662  0.00  0.00     0.084 H 
ATOM     30  O6A GCD d 901       1.254  -7.829  27.933  0.00  0.00    -0.642 OA
ATOM     31  O5  GCD d 901       3.416  -8.468  30.813  0.00  0.00    -0.311 OA
ATOM     32  C1  GCD d 901       4.436  -9.561  31.026  0.00  0.00     0.165 C 
ATOM     33  C5  GCD d 901       2.308  -8.785  29.843  0.00  0.00     0.147 C 
ATOM     34  C2  GCD d 901       3.705 -10.772  31.518  0.00  0.00     0.111 C 
ATOM     35  O6B GCD d 901       1.462  -6.639  29.934  0.00  0.00    -0.642 OA
ATOM     36  C6  GCD d 901       1.693  -7.610  29.125  0.00  0.00     0.233 C 
ATOM     37  C3  GCD d 901       2.745 -11.191  30.349  0.00  0.00     0.084 C 
ATOM     38  O3  GCD d 901       2.008 -12.316  30.791  0.00  0.00    -0.389 OA
ATOM     39  O2  GCD d 901       4.624 -11.862  31.849  0.00  0.00    -0.388 OA
ATOM     40  C4  GCD d 901       2.057 -10.075  29.538  0.00  0.00    -0.034 C 
ATOM     41  H   GCD d 901       4.970  -9.840  30.142  0.00  0.00     0.134 H 
ATOM     42  H   GCD d 901       3.170 -10.555  32.418  0.00  0.00     0.095 H 
ATOM     43  H   GCD d 901       3.315 -11.506  29.499  0.00  0.00     0.093 H 
ATOM     44  H   GCD d 901       1.476 -12.071  31.564  0.00  0.00     0.210 HD
ATOM     45  H   GCD d 901       5.139 -12.101  31.062  0.00  0.00     0.210 HD
ATOM     46  H   GCD d 901       1.410 -10.312  28.770  0.00  0.00     0.085 H 
ENDROOT
TORSDOF 11
ENDMDL
MODEL 55
REMARK VINA RESULT:      -7.1      3.427      4.738
REMARK  0 active torsions:
REMARK  status: ('A' for Active; 'I' for Inactive)
REMARK       I    between atoms: C8_1  and  C7_18 
REMARK       I    between atoms: O6_4  and  C6_20 
REMARK       I    between atoms: C3_6  and  O3_22 
REMARK       I    between atoms: O1_7  and  C1_15 
REMARK       I    between atoms: O4_9  and  C4_11 
REMARK       I    between atoms: C1_10  and  O3_22 
REMARK       I    between atoms: C5_12  and  C6_17 
REMARK       I    between atoms: C2_13  and  O2_25 
REMARK       I    between atoms: C5_16  and  C6_20 
REMARK       I    between atoms: C7_18  and  N2_19 
REMARK       I    between atoms: N2_19  and  C2_23 
REMARK       I    between atoms: C3_21  and  O3_24 
ROOT
ATOM      1  C8  NAG d 902       5.224 -12.077  30.628  0.00  0.00    -0.003 C 
ATOM      2  O6  NAG d 902       5.913  -4.020  33.122  0.00  0.00    -0.398 OA
ATOM      3  O7  NAG d 902       6.273 -10.686  32.340  0.00  0.00    -0.274 OA
ATOM      4  C3  NAG d 902       3.951  -7.727  31.746  0.00  0.00     0.093 C 
ATOM      5  O1  NAG d 902       7.026  -7.716  29.593  0.00  0.00    -0.369 OA
ATOM      6  O5  NAG d 902       5.978  -5.909  30.799  0.00  0.00    -0.349 OA
ATOM      7  O4  NAG d 902       2.929  -5.823  32.974  0.00  0.00    -0.390 OA
ATOM      8  C4  NAG d 902       4.161  -6.347  32.423  0.00  0.00     0.089 C 
ATOM      9  C1  NAG d 902       5.804  -7.246  30.150  0.00  0.00     0.151 C 
ATOM     10  C5  NAG d 902       4.705  -5.367  31.398  0.00  0.00     0.089 C 
ATOM     11  C7  NAG d 902       5.589 -10.759  31.282  0.00  0.00     0.214 C 
ATOM     12  N2  NAG d 902       5.041  -9.631  30.593  0.00  0.00    -0.349 N 
ATOM     13  C6  NAG d 902       4.944  -4.000  32.039  0.00  0.00     0.043 C 
ATOM     14  O3  NAG d 902       3.446  -8.699  32.695  0.00  0.00    -0.348 OA
ATOM     15  C2  NAG d 902       5.277  -8.251  31.183  0.00  0.00     0.087 C 
ATOM     16  H   NAG d 902       5.658 -12.883  31.181  0.00  0.00     0.040 H 
ATOM     17  H   NAG d 902       5.596 -12.092  29.625  0.00  0.00     0.040 H 
ATOM     18  H   NAG d 902       4.160 -12.186  30.615  0.00  0.00     0.040 H 
ATOM     19  H   NAG d 902       6.015  -3.124  33.480  0.00  0.00     0.209 HD
ATOM     20  H   NAG d 902       3.240  -7.593  30.958  0.00  0.00     0.091 H 
ATOM     21  H   NAG d 902       7.351  -7.076  28.942  0.00  0.00     0.212 HD
ATOM     22  H   NAG d 902       2.578  -6.446  33.630  0.00  0.00     0.210 HD
ATOM     23  H   NAG d 902       4.853  -6.476  33.229  0.00  0.00     0.091 H 
ATOM     24  H   NAG d 902       5.099  -7.144  29.351  0.00  0.00     0.132 H 
ATOM     25  H   NAG d 902       3.984  -5.244  30.617  0.00  0.00     0.090 H 
ATOM     26  H   NAG d 902       4.525  -9.745  29.762  0.00  0.00     0.163 HD
ATOM     27  H   NAG d 902       5.296  -3.330  31.284  0.00  0.00     0.078 H 
ATOM     28  H   NAG d 902       4.012  -3.687  32.462  0.00  0.00     0.078 H 
ATOM     29  H   NAG d 902       6.022  -8.347  31.945  0.00  0.00     0.084 H 
ATOM     30  O6A GCD d 901      -2.125  -8.270  30.847  0.00  0.00    -0.642 OA
ATOM     31  O5  GCD d 901       1.168  -8.287  32.440  0.00  0.00    -0.311 OA
ATOM     32  C1  GCD d 901       2.224  -9.365  32.453  0.00  0.00     0.165 C 
ATOM     33  C5  GCD d 901      -0.247  -8.757  32.230  0.00  0.00     0.147 C 
ATOM     34  C2  GCD d 901       1.876 -10.327  33.546  0.00  0.00     0.111 C 
ATOM     35  O6B GCD d 901      -1.064  -6.602  32.095  0.00  0.00    -0.642 OA
ATOM     36  C6  GCD d 901      -1.189  -7.774  31.582  0.00  0.00     0.233 C 
ATOM     37  C3  GCD d 901       0.503 -10.963  33.129  0.00  0.00     0.084 C 
ATOM     38  O3  GCD d 901       0.121 -11.855  34.160  0.00  0.00    -0.389 OA
ATOM     39  O2  GCD d 901       2.899 -11.362  33.704  0.00  0.00    -0.388 OA
ATOM     40  C4  GCD d 901      -0.544 -10.054  32.454  0.00  0.00    -0.034 C 
ATOM     41  H   GCD d 901       2.294  -9.920  31.541  0.00  0.00     0.134 H 
ATOM     42  H   GCD d 901       1.816  -9.826  34.490  0.00  0.00     0.095 H 
ATOM     43  H   GCD d 901       0.622 -11.546  32.240  0.00  0.00     0.093 H 
ATOM     44  H   GCD d 901       0.003 -11.362  34.987  0.00  0.00     0.210 HD
ATOM     45  H   GCD d 901       2.996 -11.850  32.872  0.00  0.00     0.210 HD
ATOM     46  H   GCD d 901      -1.462 -10.434  32.177  0.00  0.00     0.085 H 
ENDROOT
TORSDOF 11
ENDMDL
MODEL 56
REMARK VINA RESULT:      -7.1      3.967      7.157
REMARK  0 active torsions:
REMARK  status: ('A' for Active; 'I' for Inactive)
REMARK       I    between atoms: C8_1  and  C7_18 
REMARK       I    between atoms: O6_4  and  C6_20 
REMARK       I    between atoms: C3_6  and  O3_22 
REMARK       I    between atoms: O1_7  and  C1_15 
REMARK       I    between atoms: O4_9  and  C4_11 
REMARK       I    between atoms: C1_10  and  O3_22 
REMARK       I    between atoms: C5_12  and  C6_17 
REMARK       I    between atoms: C2_13  and  O2_25 
REMARK       I    between atoms: C5_16  and  C6_20 
REMARK       I    between atoms: C7_18  and  N2_19 
REMARK       I    between atoms: N2_19  and  C2_23 
REMARK       I    between atoms: C3_21  and  O3_24 
ROOT
ATOM      1  C8  NAG d 902       6.266  -9.627  29.884  0.00  0.00    -0.003 C 
ATOM      2  O6  NAG d 902       0.309 -10.177  23.899  0.00  0.00    -0.398 OA
ATOM      3  O7  NAG d 902       5.614  -8.661  27.736  0.00  0.00    -0.274 OA
ATOM      4  C3  NAG d 902       2.023  -9.907  27.958  0.00  0.00     0.093 C 
ATOM      5  O1  NAG d 902       4.390 -12.338  26.353  0.00  0.00    -0.369 OA
ATOM      6  O5  NAG d 902       2.160 -11.693  25.700  0.00  0.00    -0.349 OA
ATOM      7  O4  NAG d 902      -0.267  -9.279  27.222  0.00  0.00    -0.390 OA
ATOM      8  C4  NAG d 902       1.017  -9.782  26.782  0.00  0.00     0.089 C 
ATOM      9  C1  NAG d 902       3.151 -11.813  26.814  0.00  0.00     0.151 C 
ATOM     10  C5  NAG d 902       0.827 -11.146  26.143  0.00  0.00     0.089 C 
ATOM     11  C7  NAG d 902       5.412  -9.523  28.636  0.00  0.00     0.214 C 
ATOM     12  N2  NAG d 902       4.343 -10.475  28.618  0.00  0.00    -0.349 N 
ATOM     13  C6  NAG d 902      -0.144 -11.054  24.966  0.00  0.00     0.043 C 
ATOM     14  O3  NAG d 902       2.247  -8.622  28.588  0.00  0.00    -0.348 OA
ATOM     15  C2  NAG d 902       3.370 -10.434  27.452  0.00  0.00     0.087 C 
ATOM     16  H   NAG d 902       7.047  -8.896  29.845  0.00  0.00     0.040 H 
ATOM     17  H   NAG d 902       6.696 -10.605  29.941  0.00  0.00     0.040 H 
ATOM     18  H   NAG d 902       5.659  -9.453  30.747  0.00  0.00     0.040 H 
ATOM     19  H   NAG d 902      -0.352 -10.166  23.188  0.00  0.00     0.209 HD
ATOM     20  H   NAG d 902       1.602 -10.586  28.669  0.00  0.00     0.091 H 
ATOM     21  H   NAG d 902       4.243 -13.208  25.952  0.00  0.00     0.212 HD
ATOM     22  H   NAG d 902      -0.149  -8.407  27.631  0.00  0.00     0.210 HD
ATOM     23  H   NAG d 902       1.420  -9.086  26.076  0.00  0.00     0.091 H 
ATOM     24  H   NAG d 902       2.760 -12.491  27.543  0.00  0.00     0.132 H 
ATOM     25  H   NAG d 902       0.406 -11.814  26.866  0.00  0.00     0.090 H 
ATOM     26  H   NAG d 902       4.240 -11.135  29.341  0.00  0.00     0.163 HD
ATOM     27  H   NAG d 902      -0.277 -12.035  24.561  0.00  0.00     0.078 H 
ATOM     28  H   NAG d 902      -1.054 -10.639  25.344  0.00  0.00     0.078 H 
ATOM     29  H   NAG d 902       3.790  -9.797  26.702  0.00  0.00     0.084 H 
ATOM     30  O6A GCD d 901      -1.358  -9.710  33.111  0.00  0.00    -0.642 OA
ATOM     31  O5  GCD d 901       0.509  -8.683  30.137  0.00  0.00    -0.311 OA
ATOM     32  C1  GCD d 901       1.990  -8.447  29.966  0.00  0.00     0.165 C 
ATOM     33  C5  GCD d 901      -0.024  -8.520  31.536  0.00  0.00     0.147 C 
ATOM     34  C2  GCD d 901       2.282  -7.053  30.426  0.00  0.00     0.111 C 
ATOM     35  O6B GCD d 901      -2.125  -9.272  30.946  0.00  0.00    -0.642 OA
ATOM     36  C6  GCD d 901      -1.249  -9.328  31.884  0.00  0.00     0.233 C 
ATOM     37  C3  GCD d 901       1.936  -7.030  31.956  0.00  0.00     0.084 C 
ATOM     38  O3  GCD d 901       2.167  -5.713  32.422  0.00  0.00    -0.389 OA
ATOM     39  O2  GCD d 901       3.684  -6.692  30.207  0.00  0.00    -0.388 OA
ATOM     40  C4  GCD d 901       0.704  -7.824  32.435  0.00  0.00    -0.034 C 
ATOM     41  H   GCD d 901       2.607  -9.113  30.532  0.00  0.00     0.134 H 
ATOM     42  H   GCD d 901       1.706  -6.340  29.874  0.00  0.00     0.095 H 
ATOM     43  H   GCD d 901       2.602  -7.672  32.495  0.00  0.00     0.093 H 
ATOM     44  H   GCD d 901       1.579  -5.098  31.956  0.00  0.00     0.210 HD
ATOM     45  H   GCD d 901       4.256  -7.311  30.689  0.00  0.00     0.210 HD
ATOM     46  H   GCD d 901       0.438  -7.823  33.432  0.00  0.00     0.085 H 
ENDROOT
TORSDOF 11
ENDMDL
MODEL 57
REMARK VINA RESULT:      -7.1      3.830      6.706
REMARK  0 active torsions:
REMARK  status: ('A' for Active; 'I' for Inactive)
REMARK       I    between atoms: C8_1  and  C7_18 
REMARK       I    between atoms: O6_4  and  C6_20 
REMARK       I    between atoms: C3_6  and  O3_22 
REMARK       I    between atoms: O1_7  and  C1_15 
REMARK       I    between atoms: O4_9  and  C4_11 
REMARK       I    between atoms: C1_10  and  O3_22 
REMARK       I    between atoms: C5_12  and  C6_17 
REMARK       I    between atoms: C2_13  and  O2_25 
REMARK       I    between atoms: C5_16  and  C6_20 
REMARK       I    between atoms: C7_18  and  N2_19 
REMARK       I    between atoms: N2_19  and  C2_23 
REMARK       I    between atoms: C3_21  and  O3_24 
ROOT
ATOM      1  C8  NAG d 902       1.652  -5.239  29.144  0.00  0.00    -0.003 C 
ATOM      2  O6  NAG d 902       5.935 -12.459  30.211  0.00  0.00    -0.398 OA
ATOM      3  O7  NAG d 902       1.340  -7.572  29.799  0.00  0.00    -0.274 OA
ATOM      4  C3  NAG d 902       5.034  -8.149  30.519  0.00  0.00     0.093 C 
ATOM      5  O1  NAG d 902       4.044  -8.824  26.962  0.00  0.00    -0.369 OA
ATOM      6  O5  NAG d 902       5.470 -10.093  28.435  0.00  0.00    -0.349 OA
ATOM      7  O4  NAG d 902       6.505  -9.511  31.988  0.00  0.00    -0.390 OA
ATOM      8  C4  NAG d 902       5.616  -9.550  30.847  0.00  0.00     0.089 C 
ATOM      9  C1  NAG d 902       4.887  -8.755  28.105  0.00  0.00     0.151 C 
ATOM     10  C5  NAG d 902       6.378 -10.067  29.639  0.00  0.00     0.089 C 
ATOM     11  C7  NAG d 902       2.106  -6.668  29.365  0.00  0.00     0.214 C 
ATOM     12  N2  NAG d 902       3.494  -6.858  29.069  0.00  0.00    -0.349 N 
ATOM     13  C6  NAG d 902       6.947 -11.457  29.922  0.00  0.00     0.043 C 
ATOM     14  O3  NAG d 902       4.284  -7.623  31.641  0.00  0.00    -0.348 OA
ATOM     15  C2  NAG d 902       4.094  -8.233  29.311  0.00  0.00     0.087 C 
ATOM     16  H   NAG d 902       0.612  -5.154  29.380  0.00  0.00     0.040 H 
ATOM     17  H   NAG d 902       1.809  -4.969  28.121  0.00  0.00     0.040 H 
ATOM     18  H   NAG d 902       2.215  -4.584  29.776  0.00  0.00     0.040 H 
ATOM     19  H   NAG d 902       6.364 -13.313  30.379  0.00  0.00     0.209 HD
ATOM     20  H   NAG d 902       5.858  -7.501  30.303  0.00  0.00     0.091 H 
ATOM     21  H   NAG d 902       4.552  -9.155  26.205  0.00  0.00     0.212 HD
ATOM     22  H   NAG d 902       6.022  -9.180  32.763  0.00  0.00     0.210 HD
ATOM     23  H   NAG d 902       4.800 -10.199  31.086  0.00  0.00     0.091 H 
ATOM     24  H   NAG d 902       5.688  -8.083  27.880  0.00  0.00     0.132 H 
ATOM     25  H   NAG d 902       7.198  -9.410  29.436  0.00  0.00     0.090 H 
ATOM     26  H   NAG d 902       4.044  -6.120  28.719  0.00  0.00     0.163 HD
ATOM     27  H   NAG d 902       7.501 -11.775  29.064  0.00  0.00     0.078 H 
ATOM     28  H   NAG d 902       7.558 -11.372  30.796  0.00  0.00     0.078 H 
ATOM     29  H   NAG d 902       3.286  -8.913  29.483  0.00  0.00     0.084 H 
ATOM     30  O6A GCD d 901       8.625  -4.089  33.458  0.00  0.00    -0.642 OA
ATOM     31  O5  GCD d 901       6.031  -6.574  32.770  0.00  0.00    -0.311 OA
ATOM     32  C1  GCD d 901       4.639  -6.384  32.219  0.00  0.00     0.165 C 
ATOM     33  C5  GCD d 901       6.626  -5.385  33.476  0.00  0.00     0.147 C 
ATOM     34  C2  GCD d 901       3.747  -6.015  33.364  0.00  0.00     0.111 C 
ATOM     35  O6B GCD d 901       8.680  -6.412  33.716  0.00  0.00    -0.642 OA
ATOM     36  C6  GCD d 901       8.131  -5.279  33.456  0.00  0.00     0.233 C 
ATOM     37  C3  GCD d 901       4.280  -4.636  33.890  0.00  0.00     0.084 C 
ATOM     38  O3  GCD d 901       3.481  -4.270  35.000  0.00  0.00    -0.389 OA
ATOM     39  O2  GCD d 901       2.348  -5.904  32.947  0.00  0.00    -0.388 OA
ATOM     40  C4  GCD d 901       5.805  -4.409  33.916  0.00  0.00    -0.034 C 
ATOM     41  H   GCD d 901       4.561  -5.610  31.484  0.00  0.00     0.134 H 
ATOM     42  H   GCD d 901       3.768  -6.769  34.123  0.00  0.00     0.095 H 
ATOM     43  H   GCD d 901       4.144  -3.880  33.145  0.00  0.00     0.093 H 
ATOM     44  H   GCD d 901       3.577  -4.934  35.700  0.00  0.00     0.210 HD
ATOM     45  H   GCD d 901       2.270  -5.229  32.254  0.00  0.00     0.210 HD
ATOM     46  H   GCD d 901       6.193  -3.519  34.266  0.00  0.00     0.085 H 
ENDROOT
TORSDOF 11
ENDMDL
MODEL 58
REMARK VINA RESULT:      -7.0      5.056      6.345
REMARK  0 active torsions:
REMARK  status: ('A' for Active; 'I' for Inactive)
REMARK       I    between atoms: C8_1  and  C7_18 
REMARK       I    between atoms: O6_4  and  C6_20 
REMARK       I    between atoms: C3_6  and  O3_22 
REMARK       I    between atoms: O1_7  and  C1_15 
REMARK       I    between atoms: O4_9  and  C4_11 
REMARK       I    between atoms: C1_10  and  O3_22 
REMARK       I    between atoms: C5_12  and  C6_17 
REMARK       I    between atoms: C2_13  and  O2_25 
REMARK       I    between atoms: C5_16  and  C6_20 
REMARK       I    between atoms: C7_18  and  N2_19 
REMARK       I    between atoms: N2_19  and  C2_23 
REMARK       I    between atoms: C3_21  and  O3_24 
ROOT
ATOM      1  C8  NAG d 902      -1.806  -8.448  32.026  0.00  0.00    -0.003 C 
ATOM      2  O6  NAG d 902       5.345  -4.160  30.582  0.00  0.00    -0.398 OA
ATOM      3  O7  NAG d 902      -0.994  -6.215  31.457  0.00  0.00    -0.274 OA
ATOM      4  C3  NAG d 902       2.418  -7.453  30.306  0.00  0.00     0.093 C 
ATOM      5  O1  NAG d 902       2.236  -6.651  33.969  0.00  0.00    -0.369 OA
ATOM      6  O5  NAG d 902       3.952  -6.129  32.357  0.00  0.00    -0.349 OA
ATOM      7  O4  NAG d 902       4.219  -6.871  28.695  0.00  0.00    -0.390 OA
ATOM      8  C4  NAG d 902       3.579  -6.491  29.936  0.00  0.00     0.089 C 
ATOM      9  C1  NAG d 902       2.821  -7.035  32.731  0.00  0.00     0.151 C 
ATOM     10  C5  NAG d 902       4.608  -6.501  31.052  0.00  0.00     0.089 C 
ATOM     11  C7  NAG d 902      -0.732  -7.407  31.778  0.00  0.00     0.214 C 
ATOM     12  N2  NAG d 902       0.591  -7.938  31.908  0.00  0.00    -0.349 N 
ATOM     13  C6  NAG d 902       5.757  -5.546  30.728  0.00  0.00     0.043 C 
ATOM     14  O3  NAG d 902       1.403  -7.462  29.274  0.00  0.00    -0.348 OA
ATOM     15  C2  NAG d 902       1.762  -7.014  31.621  0.00  0.00     0.087 C 
ATOM     16  H   NAG d 902      -2.771  -7.999  31.917  0.00  0.00     0.040 H 
ATOM     17  H   NAG d 902      -1.704  -8.836  33.018  0.00  0.00     0.040 H 
ATOM     18  H   NAG d 902      -1.702  -9.244  31.319  0.00  0.00     0.040 H 
ATOM     19  H   NAG d 902       6.120  -3.612  30.378  0.00  0.00     0.209 HD
ATOM     20  H   NAG d 902       2.834  -8.433  30.409  0.00  0.00     0.091 H 
ATOM     21  H   NAG d 902       2.911  -6.667  34.664  0.00  0.00     0.212 HD
ATOM     22  H   NAG d 902       3.564  -6.866  27.979  0.00  0.00     0.210 HD
ATOM     23  H   NAG d 902       3.168  -5.511  29.809  0.00  0.00     0.091 H 
ATOM     24  H   NAG d 902       3.207  -8.026  32.845  0.00  0.00     0.132 H 
ATOM     25  H   NAG d 902       5.015  -7.487  31.143  0.00  0.00     0.090 H 
ATOM     26  H   NAG d 902       0.738  -8.874  32.176  0.00  0.00     0.163 HD
ATOM     27  H   NAG d 902       6.475  -5.602  31.519  0.00  0.00     0.078 H 
ATOM     28  H   NAG d 902       6.160  -5.852  29.785  0.00  0.00     0.078 H 
ATOM     29  H   NAG d 902       1.380  -6.016  31.560  0.00  0.00     0.084 H 
ATOM     30  O6A GCD d 901       3.249 -12.513  26.882  0.00  0.00    -0.642 OA
ATOM     31  O5  GCD d 901       2.291  -9.140  27.923  0.00  0.00    -0.311 OA
ATOM     32  C1  GCD d 901       1.045  -8.671  28.635  0.00  0.00     0.165 C 
ATOM     33  C5  GCD d 901       2.154 -10.412  27.129  0.00  0.00     0.147 C 
ATOM     34  C2  GCD d 901      -0.018  -8.472  27.600  0.00  0.00     0.111 C 
ATOM     35  O6B GCD d 901       4.413 -10.497  26.661  0.00  0.00    -0.642 OA
ATOM     36  C6  GCD d 901       3.406 -11.236  26.965  0.00  0.00     0.233 C 
ATOM     37  C3  GCD d 901      -0.285  -9.892  26.988  0.00  0.00     0.084 C 
ATOM     38  O3  GCD d 901      -1.264  -9.740  25.976  0.00  0.00    -0.389 OA
ATOM     39  O2  GCD d 901      -1.244  -7.921  28.181  0.00  0.00    -0.388 OA
ATOM     40  C4  GCD d 901       0.921 -10.830  26.774  0.00  0.00    -0.034 C 
ATOM     41  H   GCD d 901       0.669  -9.361  29.360  0.00  0.00     0.134 H 
ATOM     42  H   GCD d 901       0.297  -7.769  26.858  0.00  0.00     0.095 H 
ATOM     43  H   GCD d 901      -0.702 -10.541  27.730  0.00  0.00     0.093 H 
ATOM     44  H   GCD d 901      -0.922  -9.156  25.282  0.00  0.00     0.210 HD
ATOM     45  H   GCD d 901      -1.576  -8.523  28.865  0.00  0.00     0.210 HD
ATOM     46  H   GCD d 901       0.787 -11.767  26.363  0.00  0.00     0.085 H 
ENDROOT
TORSDOF 11
ENDMDL
MODEL 59
REMARK VINA RESULT:      -7.0      3.881      6.642
REMARK  0 active torsions:
REMARK  status: ('A' for Active; 'I' for Inactive)
REMARK       I    between atoms: C8_1  and  C7_18 
REMARK       I    between atoms: O6_4  and  C6_20 
REMARK       I    between atoms: C3_6  and  O3_22 
REMARK       I    between atoms: O1_7  and  C1_15 
REMARK       I    between atoms: O4_9  and  C4_11 
REMARK       I    between atoms: C1_10  and  O3_22 
REMARK       I    between atoms: C5_12  and  C6_17 
REMARK       I    between atoms: C2_13  and  O2_25 
REMARK       I    between atoms: C5_16  and  C6_20 
REMARK       I    between atoms: C7_18  and  N2_19 
REMARK       I    between atoms: N2_19  and  C2_23 
REMARK       I    between atoms: C3_21  and  O3_24 
ROOT
ATOM      1  C8  NAG d 902      -1.570  -8.295  31.896  0.00  0.00    -0.003 C 
ATOM      2  O6  NAG d 902       6.267 -10.236  29.361  0.00  0.00    -0.398 OA
ATOM      3  O7  NAG d 902       0.704  -7.402  31.849  0.00  0.00    -0.274 OA
ATOM      4  C3  NAG d 902       1.881  -9.798  29.134  0.00  0.00     0.093 C 
ATOM      5  O1  NAG d 902       2.277 -11.124  32.623  0.00  0.00    -0.369 OA
ATOM      6  O5  NAG d 902       3.802 -11.208  30.756  0.00  0.00    -0.349 OA
ATOM      7  O4  NAG d 902       3.503  -9.909  27.255  0.00  0.00    -0.390 OA
ATOM      8  C4  NAG d 902       3.365  -9.906  28.696  0.00  0.00     0.089 C 
ATOM      9  C1  NAG d 902       2.379 -11.093  31.205  0.00  0.00     0.151 C 
ATOM     10  C5  NAG d 902       3.958 -11.186  29.257  0.00  0.00     0.089 C 
ATOM     11  C7  NAG d 902      -0.081  -8.364  31.622  0.00  0.00     0.214 C 
ATOM     12  N2  NAG d 902       0.317  -9.613  31.047  0.00  0.00    -0.349 N 
ATOM     13  C6  NAG d 902       5.429 -11.312  28.861  0.00  0.00     0.043 C 
ATOM     14  O3  NAG d 902       1.279  -8.580  28.632  0.00  0.00    -0.348 OA
ATOM     15  C2  NAG d 902       1.776  -9.790  30.663  0.00  0.00     0.087 C 
ATOM     16  H   NAG d 902      -1.811  -7.344  32.323  0.00  0.00     0.040 H 
ATOM     17  H   NAG d 902      -1.844  -9.072  32.578  0.00  0.00     0.040 H 
ATOM     18  H   NAG d 902      -2.108  -8.419  30.979  0.00  0.00     0.040 H 
ATOM     19  H   NAG d 902       7.183 -10.379  29.074  0.00  0.00     0.209 HD
ATOM     20  H   NAG d 902       1.365 -10.645  28.732  0.00  0.00     0.091 H 
ATOM     21  H   NAG d 902       2.660 -11.950  32.957  0.00  0.00     0.212 HD
ATOM     22  H   NAG d 902       3.126  -9.092  26.892  0.00  0.00     0.210 HD
ATOM     23  H   NAG d 902       3.884  -9.050  29.075  0.00  0.00     0.091 H 
ATOM     24  H   NAG d 902       1.835 -11.931  30.820  0.00  0.00     0.132 H 
ATOM     25  H   NAG d 902       3.432 -12.023  28.846  0.00  0.00     0.090 H 
ATOM     26  H   NAG d 902      -0.336 -10.337  30.905  0.00  0.00     0.163 HD
ATOM     27  H   NAG d 902       5.804 -12.237  29.246  0.00  0.00     0.078 H 
ATOM     28  H   NAG d 902       5.469 -11.267  27.792  0.00  0.00     0.078 H 
ATOM     29  H   NAG d 902       2.325  -8.979  31.094  0.00  0.00     0.084 H 
ATOM     30  O6A GCD d 901      -1.466 -11.249  24.162  0.00  0.00    -0.642 OA
ATOM     31  O5  GCD d 901       0.555  -9.372  26.564  0.00  0.00    -0.311 OA
ATOM     32  C1  GCD d 901       0.129  -8.636  27.812  0.00  0.00     0.165 C 
ATOM     33  C5  GCD d 901      -0.502  -9.533  25.504  0.00  0.00     0.147 C 
ATOM     34  C2  GCD d 901      -0.339  -7.276  27.397  0.00  0.00     0.111 C 
ATOM     35  O6B GCD d 901       0.844 -10.887  24.207  0.00  0.00    -0.642 OA
ATOM     36  C6  GCD d 901      -0.369 -10.736  24.605  0.00  0.00     0.233 C 
ATOM     37  C3  GCD d 901      -1.599  -7.519  26.494  0.00  0.00     0.084 C 
ATOM     38  O3  GCD d 901      -2.051  -6.252  26.051  0.00  0.00    -0.389 OA
ATOM     39  O2  GCD d 901      -0.684  -6.445  28.553  0.00  0.00    -0.388 OA
ATOM     40  C4  GCD d 901      -1.581  -8.723  25.531  0.00  0.00    -0.034 C 
ATOM     41  H   GCD d 901      -0.669  -9.106  28.346  0.00  0.00     0.134 H 
ATOM     42  H   GCD d 901       0.433  -6.748  26.876  0.00  0.00     0.095 H 
ATOM     43  H   GCD d 901      -2.390  -7.948  27.072  0.00  0.00     0.093 H 
ATOM     44  H   GCD d 901      -1.359  -5.829  25.520  0.00  0.00     0.210 HD
ATOM     45  H   GCD d 901      -1.384  -6.879  29.065  0.00  0.00     0.210 HD
ATOM     46  H   GCD d 901      -2.387  -8.908  24.913  0.00  0.00     0.085 H 
ENDROOT
TORSDOF 11
ENDMDL
MODEL 60
REMARK VINA RESULT:      -7.0      3.505      6.021
REMARK  0 active torsions:
REMARK  status: ('A' for Active; 'I' for Inactive)
REMARK       I    between atoms: C8_1  and  C7_18 
REMARK       I    between atoms: O6_4  and  C6_20 
REMARK       I    between atoms: C3_6  and  O3_22 
REMARK       I    between atoms: O1_7  and  C1_15 
REMARK       I    between atoms: O4_9  and  C4_11 
REMARK       I    between atoms: C1_10  and  O3_22 
REMARK       I    between atoms: C5_12  and  C6_17 
REMARK       I    between atoms: C2_13  and  O2_25 
REMARK       I    between atoms: C5_16  and  C6_20 
REMARK       I    between atoms: C7_18  and  N2_19 
REMARK       I    between atoms: N2_19  and  C2_23 
REMARK       I    between atoms: C3_21  and  O3_24 
ROOT
ATOM      1  C8  NAG d 902      -0.389  -8.021  30.708  0.00  0.00    -0.003 C 
ATOM      2  O6  NAG d 902       6.242 -13.167  31.793  0.00  0.00    -0.398 OA
ATOM      3  O7  NAG d 902       0.463  -9.759  32.200  0.00  0.00    -0.274 OA
ATOM      4  C3  NAG d 902       4.058  -9.415  30.994  0.00  0.00     0.093 C 
ATOM      5  O1  NAG d 902       2.007 -11.860  29.017  0.00  0.00    -0.369 OA
ATOM      6  O5  NAG d 902       4.266 -12.048  29.840  0.00  0.00    -0.349 OA
ATOM      7  O4  NAG d 902       6.386  -9.680  31.823  0.00  0.00    -0.390 OA
ATOM      8  C4  NAG d 902       5.186 -10.387  31.429  0.00  0.00     0.089 C 
ATOM      9  C1  NAG d 902       3.159 -11.131  29.425  0.00  0.00     0.151 C 
ATOM     10  C5  NAG d 902       5.512 -11.320  30.276  0.00  0.00     0.089 C 
ATOM     11  C7  NAG d 902       0.599  -9.087  31.140  0.00  0.00     0.214 C 
ATOM     12  N2  NAG d 902       1.706  -9.211  30.241  0.00  0.00    -0.349 N 
ATOM     13  C6  NAG d 902       6.607 -12.307  30.680  0.00  0.00     0.043 C 
ATOM     14  O3  NAG d 902       3.703  -8.515  32.072  0.00  0.00    -0.348 OA
ATOM     15  C2  NAG d 902       2.804 -10.200  30.592  0.00  0.00     0.087 C 
ATOM     16  H   NAG d 902      -1.192  -7.972  31.413  0.00  0.00     0.040 H 
ATOM     17  H   NAG d 902      -0.777  -8.265  29.742  0.00  0.00     0.040 H 
ATOM     18  H   NAG d 902       0.106  -7.073  30.665  0.00  0.00     0.040 H 
ATOM     19  H   NAG d 902       6.979 -13.764  31.995  0.00  0.00     0.209 HD
ATOM     20  H   NAG d 902       4.424  -8.850  30.161  0.00  0.00     0.091 H 
ATOM     21  H   NAG d 902       2.240 -12.445  28.280  0.00  0.00     0.212 HD
ATOM     22  H   NAG d 902       6.182  -9.082  32.560  0.00  0.00     0.210 HD
ATOM     23  H   NAG d 902       4.836 -10.940  32.276  0.00  0.00     0.091 H 
ATOM     24  H   NAG d 902       3.494 -10.554  28.590  0.00  0.00     0.132 H 
ATOM     25  H   NAG d 902       5.876 -10.742  29.452  0.00  0.00     0.090 H 
ATOM     26  H   NAG d 902       1.755  -8.670  29.419  0.00  0.00     0.163 HD
ATOM     27  H   NAG d 902       6.831 -12.925  29.837  0.00  0.00     0.078 H 
ATOM     28  H   NAG d 902       7.448 -11.726  30.998  0.00  0.00     0.078 H 
ATOM     29  H   NAG d 902       2.445 -10.811  31.393  0.00  0.00     0.084 H 
ATOM     30  O6A GCD d 901       6.806  -4.000  29.920  0.00  0.00    -0.642 OA
ATOM     31  O5  GCD d 901       5.251  -6.827  31.643  0.00  0.00    -0.311 OA
ATOM     32  C1  GCD d 901       3.790  -7.116  31.892  0.00  0.00     0.165 C 
ATOM     33  C5  GCD d 901       5.610  -5.377  31.453  0.00  0.00     0.147 C 
ATOM     34  C2  GCD d 901       3.383  -6.360  33.119  0.00  0.00     0.111 C 
ATOM     35  O6B GCD d 901       7.797  -5.873  30.907  0.00  0.00    -0.642 OA
ATOM     36  C6  GCD d 901       6.822  -5.095  30.601  0.00  0.00     0.233 C 
ATOM     37  C3  GCD d 901       3.547  -4.842  32.756  0.00  0.00     0.084 C 
ATOM     38  O3  GCD d 901       3.204  -4.093  33.907  0.00  0.00    -0.389 OA
ATOM     39  O2  GCD d 901       2.000  -6.653  33.502  0.00  0.00    -0.388 OA
ATOM     40  C4  GCD d 901       4.751  -4.430  31.885  0.00  0.00    -0.034 C 
ATOM     41  H   GCD d 901       3.143  -6.816  31.095  0.00  0.00     0.134 H 
ATOM     42  H   GCD d 901       3.985  -6.639  33.958  0.00  0.00     0.095 H 
ATOM     43  H   GCD d 901       2.853  -4.570  31.988  0.00  0.00     0.093 H 
ATOM     44  H   GCD d 901       3.813  -4.313  34.629  0.00  0.00     0.210 HD
ATOM     45  H   GCD d 901       1.406  -6.417  32.772  0.00  0.00     0.210 HD
ATOM     46  H   GCD d 901       4.899  -3.440  31.635  0.00  0.00     0.085 H 
ENDROOT
TORSDOF 11
ENDMDL
MODEL 61
REMARK VINA RESULT:      -7.0      2.427      5.141
REMARK  0 active torsions:
REMARK  status: ('A' for Active; 'I' for Inactive)
REMARK       I    between atoms: C8_1  and  C7_18 
REMARK       I    between atoms: O6_4  and  C6_20 
REMARK       I    between atoms: C3_6  and  O3_22 
REMARK       I    between atoms: O1_7  and  C1_15 
REMARK       I    between atoms: O4_9  and  C4_11 
REMARK       I    between atoms: C1_10  and  O3_22 
REMARK       I    between atoms: C5_12  and  C6_17 
REMARK       I    between atoms: C2_13  and  O2_25 
REMARK       I    between atoms: C5_16  and  C6_20 
REMARK       I    between atoms: C7_18  and  N2_19 
REMARK       I    between atoms: N2_19  and  C2_23 
REMARK       I    between atoms: C3_21  and  O3_24 
ROOT
ATOM      1  C8  NAG d 902       8.275  -4.084  30.829  0.00  0.00    -0.003 C 
ATOM      2  O6  NAG d 902      12.123 -11.592  30.163  0.00  0.00    -0.398 OA
ATOM      3  O7  NAG d 902       9.794  -5.336  29.382  0.00  0.00    -0.274 OA
ATOM      4  C3  NAG d 902       8.843  -8.718  30.850  0.00  0.00     0.093 C 
ATOM      5  O1  NAG d 902      11.665  -7.010  32.642  0.00  0.00    -0.369 OA
ATOM      6  O5  NAG d 902      11.426  -9.317  31.982  0.00  0.00    -0.349 OA
ATOM      7  O4  NAG d 902       8.667 -11.107  30.188  0.00  0.00    -0.390 OA
ATOM      8  C4  NAG d 902       9.587 -10.030  30.484  0.00  0.00     0.089 C 
ATOM      9  C1  NAG d 902      10.732  -8.037  32.327  0.00  0.00     0.151 C 
ATOM     10  C5  NAG d 902      10.475 -10.439  31.646  0.00  0.00     0.089 C 
ATOM     11  C7  NAG d 902       9.136  -5.275  30.457  0.00  0.00     0.214 C 
ATOM     12  N2  NAG d 902       9.082  -6.322  31.432  0.00  0.00    -0.349 N 
ATOM     13  C6  NAG d 902      11.240 -11.719  31.310  0.00  0.00     0.043 C 
ATOM     14  O3  NAG d 902       7.994  -8.283  29.760  0.00  0.00    -0.348 OA
ATOM     15  C2  NAG d 902       9.850  -7.601  31.149  0.00  0.00     0.087 C 
ATOM     16  H   NAG d 902       8.352  -3.336  30.069  0.00  0.00     0.040 H 
ATOM     17  H   NAG d 902       8.609  -3.681  31.762  0.00  0.00     0.040 H 
ATOM     18  H   NAG d 902       7.255  -4.396  30.920  0.00  0.00     0.040 H 
ATOM     19  H   NAG d 902      12.574 -12.437  30.007  0.00  0.00     0.209 HD
ATOM     20  H   NAG d 902       8.244  -8.918  31.713  0.00  0.00     0.091 H 
ATOM     21  H   NAG d 902      12.218  -7.293  33.386  0.00  0.00     0.212 HD
ATOM     22  H   NAG d 902       8.097 -10.850  29.446  0.00  0.00     0.210 HD
ATOM     23  H   NAG d 902      10.172  -9.845  29.607  0.00  0.00     0.091 H 
ATOM     24  H   NAG d 902      10.126  -8.204  33.192  0.00  0.00     0.132 H 
ATOM     25  H   NAG d 902       9.862 -10.635  32.502  0.00  0.00     0.090 H 
ATOM     26  H   NAG d 902       8.563  -6.215  32.262  0.00  0.00     0.163 HD
ATOM     27  H   NAG d 902      11.830 -11.992  32.160  0.00  0.00     0.078 H 
ATOM     28  H   NAG d 902      10.511 -12.461  31.061  0.00  0.00     0.078 H 
ATOM     29  H   NAG d 902      10.495  -7.415  30.316  0.00  0.00     0.084 H 
ATOM     30  O6A GCD d 901       3.054 -10.365  32.187  0.00  0.00    -0.642 OA
ATOM     31  O5  GCD d 901       6.069  -9.467  30.321  0.00  0.00    -0.311 OA
ATOM     32  C1  GCD d 901       6.607  -8.103  29.963  0.00  0.00     0.165 C 
ATOM     33  C5  GCD d 901       4.583  -9.545  30.555  0.00  0.00     0.147 C 
ATOM     34  C2  GCD d 901       5.906  -7.652  28.719  0.00  0.00     0.111 C 
ATOM     35  O6B GCD d 901       4.694 -11.743  31.251  0.00  0.00    -0.642 OA
ATOM     36  C6  GCD d 901       4.111 -10.625  31.496  0.00  0.00     0.233 C 
ATOM     37  C3  GCD d 901       4.393  -7.515  29.113  0.00  0.00     0.084 C 
ATOM     38  O3  GCD d 901       3.688  -7.123  27.949  0.00  0.00    -0.389 OA
ATOM     39  O2  GCD d 901       6.431  -6.375  28.234  0.00  0.00    -0.388 OA
ATOM     40  C4  GCD d 901       3.794  -8.562  30.074  0.00  0.00    -0.034 C 
ATOM     41  H   GCD d 901       6.449  -7.359  30.715  0.00  0.00     0.134 H 
ATOM     42  H   GCD d 901       6.051  -8.352  27.923  0.00  0.00     0.095 H 
ATOM     43  H   GCD d 901       4.268  -6.732  29.832  0.00  0.00     0.093 H 
ATOM     44  H   GCD d 901       3.777  -7.810  27.270  0.00  0.00     0.210 HD
ATOM     45  H   GCD d 901       6.324  -5.699  28.921  0.00  0.00     0.210 HD
ATOM     46  H   GCD d 901       2.800  -8.511  30.346  0.00  0.00     0.085 H 
ENDROOT
TORSDOF 11
ENDMDL
MODEL 62
REMARK VINA RESULT:      -7.0      2.196      6.321
REMARK  0 active torsions:
REMARK  status: ('A' for Active; 'I' for Inactive)
REMARK       I    between atoms: C8_1  and  C7_18 
REMARK       I    between atoms: O6_4  and  C6_20 
REMARK       I    between atoms: C3_6  and  O3_22 
REMARK       I    between atoms: O1_7  and  C1_15 
REMARK       I    between atoms: O4_9  and  C4_11 
REMARK       I    between atoms: C1_10  and  O3_22 
REMARK       I    between atoms: C5_12  and  C6_17 
REMARK       I    between atoms: C2_13  and  O2_25 
REMARK       I    between atoms: C5_16  and  C6_20 
REMARK       I    between atoms: C7_18  and  N2_19 
REMARK       I    between atoms: N2_19  and  C2_23 
REMARK       I    between atoms: C3_21  and  O3_24 
ROOT
ATOM      1  C8  NAG d 902       3.489 -12.686  32.823  0.00  0.00    -0.003 C 
ATOM      2  O6  NAG d 902       0.728  -7.603  26.646  0.00  0.00    -0.398 OA
ATOM      3  O7  NAG d 902       2.504 -12.749  30.588  0.00  0.00    -0.274 OA
ATOM      4  C3  NAG d 902       3.424  -9.143  29.784  0.00  0.00     0.093 C 
ATOM      5  O1  NAG d 902       0.090  -9.534  31.464  0.00  0.00    -0.369 OA
ATOM      6  O5  NAG d 902       0.723  -8.155  29.590  0.00  0.00    -0.349 OA
ATOM      7  O4  NAG d 902       4.006  -7.706  27.842  0.00  0.00    -0.390 OA
ATOM      8  C4  NAG d 902       2.933  -8.417  28.504  0.00  0.00     0.089 C 
ATOM      9  C1  NAG d 902       1.174  -8.873  30.823  0.00  0.00     0.151 C 
ATOM     10  C5  NAG d 902       1.839  -7.432  28.878  0.00  0.00     0.089 C 
ATOM     11  C7  NAG d 902       2.873 -12.067  31.584  0.00  0.00     0.214 C 
ATOM     12  N2  NAG d 902       2.800 -10.639  31.658  0.00  0.00    -0.349 N 
ATOM     13  C6  NAG d 902       1.317  -6.714  27.634  0.00  0.00     0.043 C 
ATOM     14  O3  NAG d 902       4.460 -10.105  29.470  0.00  0.00    -0.348 OA
ATOM     15  C2  NAG d 902       2.263  -9.888  30.452  0.00  0.00     0.087 C 
ATOM     16  H   NAG d 902       3.518 -13.750  32.714  0.00  0.00     0.040 H 
ATOM     17  H   NAG d 902       2.899 -12.432  33.679  0.00  0.00     0.040 H 
ATOM     18  H   NAG d 902       4.484 -12.314  32.951  0.00  0.00     0.040 H 
ATOM     19  H   NAG d 902       0.420  -7.083  25.887  0.00  0.00     0.209 HD
ATOM     20  H   NAG d 902       3.815  -8.398  30.446  0.00  0.00     0.091 H 
ATOM     21  H   NAG d 902      -0.593  -8.885  31.695  0.00  0.00     0.212 HD
ATOM     22  H   NAG d 902       4.707  -8.332  27.600  0.00  0.00     0.210 HD
ATOM     23  H   NAG d 902       2.560  -9.157  27.827  0.00  0.00     0.091 H 
ATOM     24  H   NAG d 902       1.568  -8.152  31.508  0.00  0.00     0.132 H 
ATOM     25  H   NAG d 902       2.245  -6.695  29.539  0.00  0.00     0.090 H 
ATOM     26  H   NAG d 902       3.091 -10.158  32.467  0.00  0.00     0.163 HD
ATOM     27  H   NAG d 902       0.572  -6.009  27.939  0.00  0.00     0.078 H 
ATOM     28  H   NAG d 902       2.159  -6.246  27.169  0.00  0.00     0.078 H 
ATOM     29  H   NAG d 902       1.821 -10.607  29.794  0.00  0.00     0.084 H 
ATOM     30  O6A GCD d 901       8.861  -6.600  31.196  0.00  0.00    -0.642 OA
ATOM     31  O5  GCD d 901       6.307  -8.695  29.625  0.00  0.00    -0.311 OA
ATOM     32  C1  GCD d 901       5.730 -10.013  30.082  0.00  0.00     0.165 C 
ATOM     33  C5  GCD d 901       7.692  -8.377  30.123  0.00  0.00     0.147 C 
ATOM     34  C2  GCD d 901       6.659 -11.096  29.627  0.00  0.00     0.111 C 
ATOM     35  O6B GCD d 901       7.650  -6.251  29.227  0.00  0.00    -0.642 OA
ATOM     36  C6  GCD d 901       8.036  -6.915  30.257  0.00  0.00     0.233 C 
ATOM     37  C3  GCD d 901       8.009 -10.841  30.385  0.00  0.00     0.084 C 
ATOM     38  O3  GCD d 901       8.928 -11.828  29.952  0.00  0.00    -0.389 OA
ATOM     39  O2  GCD d 901       6.134 -12.426  29.939  0.00  0.00    -0.388 OA
ATOM     40  C4  GCD d 901       8.466  -9.382  30.586  0.00  0.00    -0.034 C 
ATOM     41  H   GCD d 901       5.624 -10.100  31.143  0.00  0.00     0.134 H 
ATOM     42  H   GCD d 901       6.784 -11.071  28.565  0.00  0.00     0.095 H 
ATOM     43  H   GCD d 901       7.874 -10.981  31.437  0.00  0.00     0.093 H 
ATOM     44  H   GCD d 901       9.078 -11.734  28.999  0.00  0.00     0.210 HD
ATOM     45  H   GCD d 901       6.001 -12.505  30.897  0.00  0.00     0.210 HD
ATOM     46  H   GCD d 901       9.354  -9.176  31.069  0.00  0.00     0.085 H 
ENDROOT
TORSDOF 11
ENDMDL
MODEL 63
REMARK VINA RESULT:      -7.0      3.619      6.308
REMARK  0 active torsions:
REMARK  status: ('A' for Active; 'I' for Inactive)
REMARK       I    between atoms: C8_1  and  C7_18 
REMARK       I    between atoms: O6_4  and  C6_20 
REMARK       I    between atoms: C3_6  and  O3_22 
REMARK       I    between atoms: O1_7  and  C1_15 
REMARK       I    between atoms: O4_9  and  C4_11 
REMARK       I    between atoms: C1_10  and  O3_22 
REMARK       I    between atoms: C5_12  and  C6_17 
REMARK       I    between atoms: C2_13  and  O2_25 
REMARK       I    between atoms: C5_16  and  C6_20 
REMARK       I    between atoms: C7_18  and  N2_19 
REMARK       I    between atoms: N2_19  and  C2_23 
REMARK       I    between atoms: C3_21  and  O3_24 
ROOT
ATOM      1  C8  NAG d 902       3.445 -11.900  26.790  0.00  0.00    -0.003 C 
ATOM      2  O6  NAG d 902       4.105  -4.458  30.765  0.00  0.00    -0.398 OA
ATOM      3  O7  NAG d 902       5.012 -10.063  27.169  0.00  0.00    -0.274 OA
ATOM      4  C3  NAG d 902       3.135  -8.727  30.202  0.00  0.00     0.093 C 
ATOM      5  O1  NAG d 902       1.971  -7.301  26.930  0.00  0.00    -0.369 OA
ATOM      6  O5  NAG d 902       2.391  -6.199  29.034  0.00  0.00    -0.349 OA
ATOM      7  O4  NAG d 902       3.560  -7.527  32.335  0.00  0.00    -0.390 OA
ATOM      8  C4  NAG d 902       3.507  -7.390  30.896  0.00  0.00     0.089 C 
ATOM      9  C1  NAG d 902       2.045  -7.479  28.340  0.00  0.00     0.151 C 
ATOM     10  C5  NAG d 902       2.474  -6.337  30.533  0.00  0.00     0.089 C 
ATOM     11  C7  NAG d 902       3.853 -10.539  27.321  0.00  0.00     0.214 C 
ATOM     12  N2  NAG d 902       2.798  -9.888  28.038  0.00  0.00    -0.349 N 
ATOM     13  C6  NAG d 902       2.823  -4.999  31.184  0.00  0.00     0.043 C 
ATOM     14  O3  NAG d 902       4.105  -9.758  30.509  0.00  0.00    -0.348 OA
ATOM     15  C2  NAG d 902       3.096  -8.544  28.680  0.00  0.00     0.087 C 
ATOM     16  H   NAG d 902       4.267 -12.339  26.265  0.00  0.00     0.040 H 
ATOM     17  H   NAG d 902       2.615 -11.788  26.125  0.00  0.00     0.040 H 
ATOM     18  H   NAG d 902       3.165 -12.532  27.607  0.00  0.00     0.040 H 
ATOM     19  H   NAG d 902       4.261  -3.612  31.215  0.00  0.00     0.209 HD
ATOM     20  H   NAG d 902       2.173  -9.021  30.564  0.00  0.00     0.091 H 
ATOM     21  H   NAG d 902       1.305  -6.627  26.724  0.00  0.00     0.212 HD
ATOM     22  H   NAG d 902       4.219  -8.199  32.572  0.00  0.00     0.210 HD
ATOM     23  H   NAG d 902       4.479  -7.100  30.556  0.00  0.00     0.091 H 
ATOM     24  H   NAG d 902       1.082  -7.798  28.680  0.00  0.00     0.132 H 
ATOM     25  H   NAG d 902       1.518  -6.645  30.902  0.00  0.00     0.090 H 
ATOM     26  H   NAG d 902       1.907 -10.300  28.114  0.00  0.00     0.163 HD
ATOM     27  H   NAG d 902       2.061  -4.293  30.933  0.00  0.00     0.078 H 
ATOM     28  H   NAG d 902       2.889  -5.174  32.238  0.00  0.00     0.078 H 
ATOM     29  H   NAG d 902       4.035  -8.203  28.297  0.00  0.00     0.084 H 
ATOM     30  O6A GCD d 901       0.747 -12.320  34.606  0.00  0.00    -0.642 OA
ATOM     31  O5  GCD d 901       3.144 -10.571  32.469  0.00  0.00    -0.311 OA
ATOM     32  C1  GCD d 901       3.696 -10.965  31.120  0.00  0.00     0.165 C 
ATOM     33  C5  GCD d 901       2.667 -11.703  33.339  0.00  0.00     0.147 C 
ATOM     34  C2  GCD d 901       4.842 -11.899  31.356  0.00  0.00     0.111 C 
ATOM     35  O6B GCD d 901       1.819 -10.269  34.937  0.00  0.00    -0.642 OA
ATOM     36  C6  GCD d 901       1.576 -11.374  34.326  0.00  0.00     0.233 C 
ATOM     37  C3  GCD d 901       4.222 -13.166  32.042  0.00  0.00     0.084 C 
ATOM     38  O3  GCD d 901       5.284 -14.061  32.314  0.00  0.00    -0.389 OA
ATOM     39  O2  GCD d 901       5.510 -12.263  30.105  0.00  0.00    -0.388 OA
ATOM     40  C4  GCD d 901       3.093 -12.955  33.072  0.00  0.00    -0.034 C 
ATOM     41  H   GCD d 901       2.992 -11.465  30.489  0.00  0.00     0.134 H 
ATOM     42  H   GCD d 901       5.591 -11.438  31.966  0.00  0.00     0.095 H 
ATOM     43  H   GCD d 901       3.559 -13.665  31.366  0.00  0.00     0.093 H 
ATOM     44  H   GCD d 901       5.909 -13.645  32.927  0.00  0.00     0.210 HD
ATOM     45  H   GCD d 901       4.873 -12.688  29.510  0.00  0.00     0.210 HD
ATOM     46  H   GCD d 901       2.669 -13.764  33.553  0.00  0.00     0.085 H 
ENDROOT
TORSDOF 11
ENDMDL
MODEL 64
REMARK VINA RESULT:      -6.9      2.991      4.260
REMARK  0 active torsions:
REMARK  status: ('A' for Active; 'I' for Inactive)
REMARK       I    between atoms: C8_1  and  C7_18 
REMARK       I    between atoms: O6_4  and  C6_20 
REMARK       I    between atoms: C3_6  and  O3_22 
REMARK       I    between atoms: O1_7  and  C1_15 
REMARK       I    between atoms: O4_9  and  C4_11 
REMARK       I    between atoms: C1_10  and  O3_22 
REMARK       I    between atoms: C5_12  and  C6_17 
REMARK       I    between atoms: C2_13  and  O2_25 
REMARK       I    between atoms: C5_16  and  C6_20 
REMARK       I    between atoms: C7_18  and  N2_19 
REMARK       I    between atoms: N2_19  and  C2_23 
REMARK       I    between atoms: C3_21  and  O3_24 
ROOT
ATOM      1  C8  NAG d 902       6.158 -12.237  30.267  0.00  0.00    -0.003 C 
ATOM      2  O6  NAG d 902       3.145  -5.137  33.749  0.00  0.00    -0.398 OA
ATOM      3  O7  NAG d 902       4.925 -11.435  32.217  0.00  0.00    -0.274 OA
ATOM      4  C3  NAG d 902       3.993  -8.114  30.602  0.00  0.00     0.093 C 
ATOM      5  O1  NAG d 902       7.273  -8.063  32.427  0.00  0.00    -0.369 OA
ATOM      6  O5  NAG d 902       5.487  -6.443  32.414  0.00  0.00    -0.349 OA
ATOM      7  O4  NAG d 902       2.186  -6.409  30.644  0.00  0.00    -0.390 OA
ATOM      8  C4  NAG d 902       3.298  -6.968  31.383  0.00  0.00     0.089 C 
ATOM      9  C1  NAG d 902       6.168  -7.559  31.687  0.00  0.00     0.151 C 
ATOM     10  C5  NAG d 902       4.311  -5.872  31.664  0.00  0.00     0.089 C 
ATOM     11  C7  NAG d 902       5.561 -11.168  31.161  0.00  0.00     0.214 C 
ATOM     12  N2  NAG d 902       5.766  -9.846  30.651  0.00  0.00    -0.349 N 
ATOM     13  C6  NAG d 902       3.662  -4.734  32.452  0.00  0.00     0.043 C 
ATOM     14  O3  NAG d 902       3.065  -9.192  30.326  0.00  0.00    -0.348 OA
ATOM     15  C2  NAG d 902       5.159  -8.684  31.419  0.00  0.00     0.087 C 
ATOM     16  H   NAG d 902       5.977 -13.202  30.693  0.00  0.00     0.040 H 
ATOM     17  H   NAG d 902       7.212 -12.079  30.178  0.00  0.00     0.040 H 
ATOM     18  H   NAG d 902       5.706 -12.186  29.298  0.00  0.00     0.040 H 
ATOM     19  H   NAG d 902       2.750  -4.370  34.192  0.00  0.00     0.209 HD
ATOM     20  H   NAG d 902       4.352  -7.705  29.681  0.00  0.00     0.091 H 
ATOM     21  H   NAG d 902       7.905  -7.346  32.592  0.00  0.00     0.212 HD
ATOM     22  H   NAG d 902       1.536  -7.107  30.462  0.00  0.00     0.210 HD
ATOM     23  H   NAG d 902       2.916  -7.374  32.296  0.00  0.00     0.091 H 
ATOM     24  H   NAG d 902       6.542  -7.179  30.760  0.00  0.00     0.132 H 
ATOM     25  H   NAG d 902       4.660  -5.472  30.734  0.00  0.00     0.090 H 
ATOM     26  H   NAG d 902       6.283  -9.694  29.828  0.00  0.00     0.163 HD
ATOM     27  H   NAG d 902       4.394  -3.969  32.604  0.00  0.00     0.078 H 
ATOM     28  H   NAG d 902       2.827  -4.393  31.876  0.00  0.00     0.078 H 
ATOM     29  H   NAG d 902       4.834  -9.057  32.368  0.00  0.00     0.084 H 
ATOM     30  O6A GCD d 901       2.134  -7.556  24.750  0.00  0.00    -0.642 OA
ATOM     31  O5  GCD d 901       2.209  -8.408  28.306  0.00  0.00    -0.311 OA
ATOM     32  C1  GCD d 901       2.823  -9.602  28.996  0.00  0.00     0.165 C 
ATOM     33  C5  GCD d 901       1.824  -8.609  26.864  0.00  0.00     0.147 C 
ATOM     34  C2  GCD d 901       1.835 -10.725  28.920  0.00  0.00     0.111 C 
ATOM     35  O6B GCD d 901       1.277  -6.384  26.583  0.00  0.00    -0.642 OA
ATOM     36  C6  GCD d 901       1.836  -7.379  25.992  0.00  0.00     0.233 C 
ATOM     37  C3  GCD d 901       1.675 -11.045  27.392  0.00  0.00     0.084 C 
ATOM     38  O3  GCD d 901       0.718 -12.082  27.276  0.00  0.00    -0.389 OA
ATOM     39  O2  GCD d 901       2.299 -11.906  29.650  0.00  0.00    -0.388 OA
ATOM     40  C4  GCD d 901       1.674  -9.866  26.398  0.00  0.00    -0.034 C 
ATOM     41  H   GCD d 901       3.736  -9.942  28.554  0.00  0.00     0.134 H 
ATOM     42  H   GCD d 901       0.905 -10.447  29.371  0.00  0.00     0.095 H 
ATOM     43  H   GCD d 901       2.594 -11.424  26.996  0.00  0.00     0.093 H 
ATOM     44  H   GCD d 901      -0.134 -11.777  27.626  0.00  0.00     0.210 HD
ATOM     45  H   GCD d 901       3.145 -12.203  29.280  0.00  0.00     0.210 HD
ATOM     46  H   GCD d 901       1.559 -10.037  25.387  0.00  0.00     0.085 H 
ENDROOT
TORSDOF 11
ENDMDL
MODEL 65
REMARK VINA RESULT:      -6.9      2.744      5.311
REMARK  0 active torsions:
REMARK  status: ('A' for Active; 'I' for Inactive)
REMARK       I    between atoms: C8_1  and  C7_18 
REMARK       I    between atoms: O6_4  and  C6_20 
REMARK       I    between atoms: C3_6  and  O3_22 
REMARK       I    between atoms: O1_7  and  C1_15 
REMARK       I    between atoms: O4_9  and  C4_11 
REMARK       I    between atoms: C1_10  and  O3_22 
REMARK       I    between atoms: C5_12  and  C6_17 
REMARK       I    between atoms: C2_13  and  O2_25 
REMARK       I    between atoms: C5_16  and  C6_20 
REMARK       I    between atoms: C7_18  and  N2_19 
REMARK       I    between atoms: N2_19  and  C2_23 
REMARK       I    between atoms: C3_21  and  O3_24 
ROOT
ATOM      1  C8  NAG d 902       2.237  -5.636  30.109  0.00  0.00    -0.003 C 
ATOM      2  O6  NAG d 902      10.343  -7.414  31.768  0.00  0.00    -0.398 OA
ATOM      3  O7  NAG d 902       4.456  -5.590  29.086  0.00  0.00    -0.274 OA
ATOM      4  C3  NAG d 902       5.970  -8.000  31.616  0.00  0.00     0.093 C 
ATOM      5  O1  NAG d 902       6.164  -4.391  32.632  0.00  0.00    -0.369 OA
ATOM      6  O5  NAG d 902       7.832  -6.127  32.772  0.00  0.00    -0.349 OA
ATOM      7  O4  NAG d 902       7.739  -9.737  31.779  0.00  0.00    -0.390 OA
ATOM      8  C4  NAG d 902       7.488  -8.317  31.669  0.00  0.00     0.089 C 
ATOM      9  C1  NAG d 902       6.374  -5.796  32.709  0.00  0.00     0.151 C 
ATOM     10  C5  NAG d 902       8.104  -7.607  32.862  0.00  0.00     0.089 C 
ATOM     11  C7  NAG d 902       3.745  -5.792  30.109  0.00  0.00     0.214 C 
ATOM     12  N2  NAG d 902       4.254  -6.228  31.375  0.00  0.00    -0.349 N 
ATOM     13  C6  NAG d 902       9.607  -7.882  32.930  0.00  0.00     0.043 C 
ATOM     14  O3  NAG d 902       5.344  -8.645  30.481  0.00  0.00    -0.348 OA
ATOM     15  C2  NAG d 902       5.746  -6.488  31.493  0.00  0.00     0.087 C 
ATOM     16  H   NAG d 902       1.912  -5.309  29.144  0.00  0.00     0.040 H 
ATOM     17  H   NAG d 902       1.954  -4.912  30.844  0.00  0.00     0.040 H 
ATOM     18  H   NAG d 902       1.781  -6.576  30.339  0.00  0.00     0.040 H 
ATOM     19  H   NAG d 902      11.285  -7.620  31.877  0.00  0.00     0.209 HD
ATOM     20  H   NAG d 902       5.534  -8.366  32.522  0.00  0.00     0.091 H 
ATOM     21  H   NAG d 902       6.564  -3.962  33.404  0.00  0.00     0.212 HD
ATOM     22  H   NAG d 902       7.347 -10.195  31.018  0.00  0.00     0.210 HD
ATOM     23  H   NAG d 902       7.929  -7.974  30.755  0.00  0.00     0.091 H 
ATOM     24  H   NAG d 902       5.909  -6.147  33.606  0.00  0.00     0.132 H 
ATOM     25  H   NAG d 902       7.659  -7.983  33.759  0.00  0.00     0.090 H 
ATOM     26  H   NAG d 902       3.655  -6.357  32.145  0.00  0.00     0.163 HD
ATOM     27  H   NAG d 902       9.999  -7.393  33.796  0.00  0.00     0.078 H 
ATOM     28  H   NAG d 902       9.727  -8.944  32.968  0.00  0.00     0.078 H 
ATOM     29  H   NAG d 902       6.214  -6.088  30.618  0.00  0.00     0.084 H 
ATOM     30  O6A GCD d 901       3.108 -13.063  33.661  0.00  0.00    -0.642 OA
ATOM     31  O5  GCD d 901       4.829 -10.686  31.479  0.00  0.00    -0.311 OA
ATOM     32  C1  GCD d 901       4.267  -9.540  30.673  0.00  0.00     0.165 C 
ATOM     33  C5  GCD d 901       3.868 -11.804  31.788  0.00  0.00     0.147 C 
ATOM     34  C2  GCD d 901       3.760 -10.102  29.381  0.00  0.00     0.111 C 
ATOM     35  O6B GCD d 901       5.383 -12.879  33.158  0.00  0.00    -0.642 OA
ATOM     36  C6  GCD d 901       4.137 -12.586  33.049  0.00  0.00     0.233 C 
ATOM     37  C3  GCD d 901       2.589 -11.072  29.771  0.00  0.00     0.084 C 
ATOM     38  O3  GCD d 901       2.105 -11.652  28.574  0.00  0.00    -0.389 OA
ATOM     39  O2  GCD d 901       3.281  -9.049  28.483  0.00  0.00    -0.388 OA
ATOM     40  C4  GCD d 901       2.748 -11.925  31.046  0.00  0.00    -0.034 C 
ATOM     41  H   GCD d 901       3.456  -9.028  31.146  0.00  0.00     0.134 H 
ATOM     42  H   GCD d 901       4.540 -10.607  28.851  0.00  0.00     0.095 H 
ATOM     43  H   GCD d 901       1.780 -10.519  30.200  0.00  0.00     0.093 H 
ATOM     44  H   GCD d 901       2.813 -12.164  28.154  0.00  0.00     0.210 HD
ATOM     45  H   GCD d 901       2.567  -8.555  28.916  0.00  0.00     0.210 HD
ATOM     46  H   GCD d 901       2.005 -12.583  31.328  0.00  0.00     0.085 H 
ENDROOT
TORSDOF 11
ENDMDL
MODEL 66
REMARK VINA RESULT:      -6.9      4.634      7.353
REMARK  0 active torsions:
REMARK  status: ('A' for Active; 'I' for Inactive)
REMARK       I    between atoms: C8_1  and  C7_18 
REMARK       I    between atoms: O6_4  and  C6_20 
REMARK       I    between atoms: C3_6  and  O3_22 
REMARK       I    between atoms: O1_7  and  C1_15 
REMARK       I    between atoms: O4_9  and  C4_11 
REMARK       I    between atoms: C1_10  and  O3_22 
REMARK       I    between atoms: C5_12  and  C6_17 
REMARK       I    between atoms: C2_13  and  O2_25 
REMARK       I    between atoms: C5_16  and  C6_20 
REMARK       I    between atoms: C7_18  and  N2_19 
REMARK       I    between atoms: N2_19  and  C2_23 
REMARK       I    between atoms: C3_21  and  O3_24 
ROOT
ATOM      1  C8  NAG d 902       4.413 -11.269  28.876  0.00  0.00    -0.003 C 
ATOM      2  O6  NAG d 902      -2.078  -7.993  33.208  0.00  0.00    -0.398 OA
ATOM      3  O7  NAG d 902       2.672 -11.886  30.476  0.00  0.00    -0.274 OA
ATOM      4  C3  NAG d 902       0.534  -8.820  29.747  0.00  0.00     0.093 C 
ATOM      5  O1  NAG d 902       3.088  -8.299  32.449  0.00  0.00    -0.369 OA
ATOM      6  O5  NAG d 902       0.772  -7.630  32.362  0.00  0.00    -0.349 OA
ATOM      7  O4  NAG d 902      -1.848  -8.112  29.728  0.00  0.00    -0.390 OA
ATOM      8  C4  NAG d 902      -0.728  -8.461  30.575  0.00  0.00     0.089 C 
ATOM      9  C1  NAG d 902       1.999  -7.991  31.585  0.00  0.00     0.151 C 
ATOM     10  C5  NAG d 902      -0.408  -7.289  31.487  0.00  0.00     0.089 C 
ATOM     11  C7  NAG d 902       3.256 -10.984  29.814  0.00  0.00     0.214 C 
ATOM     12  N2  NAG d 902       2.884  -9.601  29.828  0.00  0.00    -0.349 N 
ATOM     13  C6  NAG d 902      -1.626  -6.923  32.334  0.00  0.00     0.043 C 
ATOM     14  O3  NAG d 902       0.278  -9.946  28.873  0.00  0.00    -0.348 OA
ATOM     15  C2  NAG d 902       1.695  -9.190  30.678  0.00  0.00     0.087 C 
ATOM     16  H   NAG d 902       4.647 -12.312  28.906  0.00  0.00     0.040 H 
ATOM     17  H   NAG d 902       5.267 -10.703  29.182  0.00  0.00     0.040 H 
ATOM     18  H   NAG d 902       4.140 -10.993  27.879  0.00  0.00     0.040 H 
ATOM     19  H   NAG d 902      -2.849  -7.693  33.714  0.00  0.00     0.209 HD
ATOM     20  H   NAG d 902       0.789  -7.962  29.161  0.00  0.00     0.091 H 
ATOM     21  H   NAG d 902       3.274  -7.536  33.018  0.00  0.00     0.212 HD
ATOM     22  H   NAG d 902      -2.056  -8.858  29.143  0.00  0.00     0.210 HD
ATOM     23  H   NAG d 902      -1.003  -9.322  31.148  0.00  0.00     0.091 H 
ATOM     24  H   NAG d 902       2.283  -7.149  30.990  0.00  0.00     0.132 H 
ATOM     25  H   NAG d 902      -0.155  -6.439  30.887  0.00  0.00     0.090 H 
ATOM     26  H   NAG d 902       3.385  -8.937  29.302  0.00  0.00     0.163 HD
ATOM     27  H   NAG d 902      -1.374  -6.078  32.939  0.00  0.00     0.078 H 
ATOM     28  H   NAG d 902      -2.427  -6.717  31.655  0.00  0.00     0.078 H 
ATOM     29  H   NAG d 902       1.447 -10.017  31.311  0.00  0.00     0.084 H 
ATOM     30  O6A GCD d 901      -0.475  -6.620  24.076  0.00  0.00    -0.642 OA
ATOM     31  O5  GCD d 901      -0.536  -8.779  27.028  0.00  0.00    -0.311 OA
ATOM     32  C1  GCD d 901       0.459  -9.822  27.477  0.00  0.00     0.165 C 
ATOM     33  C5  GCD d 901      -0.561  -8.489  25.550  0.00  0.00     0.147 C 
ATOM     34  C2  GCD d 901       0.142 -11.092  26.749  0.00  0.00     0.111 C 
ATOM     35  O6B GCD d 901      -2.046  -6.740  25.804  0.00  0.00    -0.642 OA
ATOM     36  C6  GCD d 901      -1.002  -7.104  25.148  0.00  0.00     0.233 C 
ATOM     37  C3  GCD d 901       0.382 -10.780  25.229  0.00  0.00     0.084 C 
ATOM     38  O3  GCD d 901       0.058 -11.950  24.502  0.00  0.00    -0.389 OA
ATOM     39  O2  GCD d 901       0.995 -12.197  27.190  0.00  0.00    -0.388 OA
ATOM     40  C4  GCD d 901      -0.028  -9.391  24.699  0.00  0.00    -0.034 C 
ATOM     41  H   GCD d 901       1.478  -9.573  27.269  0.00  0.00     0.134 H 
ATOM     42  H   GCD d 901      -0.863 -11.402  26.941  0.00  0.00     0.095 H 
ATOM     43  H   GCD d 901       1.418 -10.580  25.053  0.00  0.00     0.093 H 
ATOM     44  H   GCD d 901      -0.878 -12.166  24.636  0.00  0.00     0.210 HD
ATOM     45  H   GCD d 901       1.926 -11.968  27.038  0.00  0.00     0.210 HD
ATOM     46  H   GCD d 901       0.103  -9.154  23.704  0.00  0.00     0.085 H 
ENDROOT
TORSDOF 11
ENDMDL
MODEL 67
REMARK VINA RESULT:      -6.9      3.890      7.300
REMARK  0 active torsions:
REMARK  status: ('A' for Active; 'I' for Inactive)
REMARK       I    between atoms: C8_1  and  C7_18 
REMARK       I    between atoms: O6_4  and  C6_20 
REMARK       I    between atoms: C3_6  and  O3_22 
REMARK       I    between atoms: O1_7  and  C1_15 
REMARK       I    between atoms: O4_9  and  C4_11 
REMARK       I    between atoms: C1_10  and  O3_22 
REMARK       I    between atoms: C5_12  and  C6_17 
REMARK       I    between atoms: C2_13  and  O2_25 
REMARK       I    between atoms: C5_16  and  C6_20 
REMARK       I    between atoms: C7_18  and  N2_19 
REMARK       I    between atoms: N2_19  and  C2_23 
REMARK       I    between atoms: C3_21  and  O3_24 
ROOT
ATOM      1  C8  NAG d 902       0.702  -4.316  29.013  0.00  0.00    -0.003 C 
ATOM      2  O6  NAG d 902       6.629 -10.355  29.148  0.00  0.00    -0.398 OA
ATOM      3  O7  NAG d 902       3.114  -4.637  28.791  0.00  0.00    -0.274 OA
ATOM      4  C3  NAG d 902       2.828  -8.371  28.099  0.00  0.00     0.093 C 
ATOM      5  O1  NAG d 902       3.094  -7.505  31.742  0.00  0.00    -0.369 OA
ATOM      6  O5  NAG d 902       4.188  -9.248  30.485  0.00  0.00    -0.349 OA
ATOM      7  O4  NAG d 902       3.998 -10.180  26.861  0.00  0.00    -0.390 OA
ATOM      8  C4  NAG d 902       4.063  -9.305  28.012  0.00  0.00     0.089 C 
ATOM      9  C1  NAG d 902       3.012  -8.328  30.585  0.00  0.00     0.151 C 
ATOM     10  C5  NAG d 902       4.142 -10.146  29.274  0.00  0.00     0.089 C 
ATOM     11  C7  NAG d 902       1.980  -5.131  29.039  0.00  0.00     0.214 C 
ATOM     12  N2  NAG d 902       1.746  -6.513  29.332  0.00  0.00    -0.349 N 
ATOM     13  C6  NAG d 902       5.363 -11.064  29.230  0.00  0.00     0.043 C 
ATOM     14  O3  NAG d 902       2.724  -7.537  26.919  0.00  0.00    -0.348 OA
ATOM     15  C2  NAG d 902       2.937  -7.456  29.325  0.00  0.00     0.087 C 
ATOM     16  H   NAG d 902       0.934  -3.296  28.790  0.00  0.00     0.040 H 
ATOM     17  H   NAG d 902       0.223  -4.372  29.968  0.00  0.00     0.040 H 
ATOM     18  H   NAG d 902       0.046  -4.704  28.262  0.00  0.00     0.040 H 
ATOM     19  H   NAG d 902       7.357 -10.996  29.124  0.00  0.00     0.209 HD
ATOM     20  H   NAG d 902       1.960  -8.992  28.177  0.00  0.00     0.091 H 
ATOM     21  H   NAG d 902       3.140  -8.064  32.533  0.00  0.00     0.212 HD
ATOM     22  H   NAG d 902       3.948  -9.647  26.052  0.00  0.00     0.210 HD
ATOM     23  H   NAG d 902       4.935  -8.692  27.911  0.00  0.00     0.091 H 
ATOM     24  H   NAG d 902       2.126  -8.921  30.668  0.00  0.00     0.132 H 
ATOM     25  H   NAG d 902       3.268 -10.761  29.338  0.00  0.00     0.090 H 
ATOM     26  H   NAG d 902       0.840  -6.843  29.532  0.00  0.00     0.163 HD
ATOM     27  H   NAG d 902       5.368 -11.661  30.118  0.00  0.00     0.078 H 
ATOM     28  H   NAG d 902       5.278 -11.653  28.341  0.00  0.00     0.078 H 
ATOM     29  H   NAG d 902       3.823  -6.857  29.295  0.00  0.00     0.084 H 
ATOM     30  O6A GCD d 901      -1.438 -10.850  24.401  0.00  0.00    -0.642 OA
ATOM     31  O5  GCD d 901       1.474  -8.978  25.581  0.00  0.00    -0.311 OA
ATOM     32  C1  GCD d 901       1.557  -7.570  26.122  0.00  0.00     0.165 C 
ATOM     33  C5  GCD d 901       0.316  -9.259  24.661  0.00  0.00     0.147 C 
ATOM     34  C2  GCD d 901       1.644  -6.641  24.951  0.00  0.00     0.111 C 
ATOM     35  O6B GCD d 901       0.798 -11.514  24.559  0.00  0.00    -0.642 OA
ATOM     36  C6  GCD d 901      -0.180 -10.683  24.626  0.00  0.00     0.233 C 
ATOM     37  C3  GCD d 901       0.290  -6.809  24.176  0.00  0.00     0.084 C 
ATOM     38  O3  GCD d 901       0.348  -5.969  23.037  0.00  0.00    -0.389 OA
ATOM     39  O2  GCD d 901       1.828  -5.252  25.374  0.00  0.00    -0.388 OA
ATOM     40  C4  GCD d 901      -0.319  -8.223  24.074  0.00  0.00    -0.034 C 
ATOM     41  H   GCD d 901       0.713  -7.276  26.709  0.00  0.00     0.134 H 
ATOM     42  H   GCD d 901       2.489  -6.876  24.338  0.00  0.00     0.095 H 
ATOM     43  H   GCD d 901      -0.525  -6.464  24.777  0.00  0.00     0.093 H 
ATOM     44  H   GCD d 901       1.077  -6.252  22.464  0.00  0.00     0.210 HD
ATOM     45  H   GCD d 901       1.085  -4.984  25.937  0.00  0.00     0.210 HD
ATOM     46  H   GCD d 901      -1.202  -8.374  23.562  0.00  0.00     0.085 H 
ENDROOT
TORSDOF 11
ENDMDL
MODEL 68
REMARK VINA RESULT:      -6.8      2.406      5.030
REMARK  0 active torsions:
REMARK  status: ('A' for Active; 'I' for Inactive)
REMARK       I    between atoms: C8_1  and  C7_18 
REMARK       I    between atoms: O6_4  and  C6_20 
REMARK       I    between atoms: C3_6  and  O3_22 
REMARK       I    between atoms: O1_7  and  C1_15 
REMARK       I    between atoms: O4_9  and  C4_11 
REMARK       I    between atoms: C1_10  and  O3_22 
REMARK       I    between atoms: C5_12  and  C6_17 
REMARK       I    between atoms: C2_13  and  O2_25 
REMARK       I    between atoms: C5_16  and  C6_20 
REMARK       I    between atoms: C7_18  and  N2_19 
REMARK       I    between atoms: N2_19  and  C2_23 
REMARK       I    between atoms: C3_21  and  O3_24 
ROOT
ATOM      1  C8  NAG d 902       5.274  -4.619  29.906  0.00  0.00    -0.003 C 
ATOM      2  O6  NAG d 902       9.126 -12.150  30.140  0.00  0.00    -0.398 OA
ATOM      3  O7  NAG d 902       6.558  -6.157  28.508  0.00  0.00    -0.274 OA
ATOM      4  C3  NAG d 902       5.943  -9.158  30.770  0.00  0.00     0.093 C 
ATOM      5  O1  NAG d 902       8.985  -7.154  31.679  0.00  0.00    -0.369 OA
ATOM      6  O5  NAG d 902       8.691  -9.544  31.551  0.00  0.00    -0.349 OA
ATOM      7  O4  NAG d 902       5.713 -11.629  30.647  0.00  0.00    -0.390 OA
ATOM      8  C4  NAG d 902       6.645 -10.526  30.560  0.00  0.00     0.089 C 
ATOM      9  C1  NAG d 902       8.036  -8.212  31.740  0.00  0.00     0.151 C 
ATOM     10  C5  NAG d 902       7.723 -10.699  31.614  0.00  0.00     0.089 C 
ATOM     11  C7  NAG d 902       6.088  -5.871  29.643  0.00  0.00     0.214 C 
ATOM     12  N2  NAG d 902       6.221  -6.696  30.806  0.00  0.00    -0.349 N 
ATOM     13  C6  NAG d 902       8.451 -12.030  31.421  0.00  0.00     0.043 C 
ATOM     14  O3  NAG d 902       4.914  -8.943  29.773  0.00  0.00    -0.348 OA
ATOM     15  C2  NAG d 902       6.960  -8.015  30.664  0.00  0.00     0.087 C 
ATOM     16  H   NAG d 902       5.206  -4.042  29.008  0.00  0.00     0.040 H 
ATOM     17  H   NAG d 902       5.750  -4.038  30.668  0.00  0.00     0.040 H 
ATOM     18  H   NAG d 902       4.291  -4.893  30.228  0.00  0.00     0.040 H 
ATOM     19  H   NAG d 902       9.564 -13.014  30.086  0.00  0.00     0.209 HD
ATOM     20  H   NAG d 902       5.501  -9.170  31.745  0.00  0.00     0.091 H 
ATOM     21  H   NAG d 902       9.660  -7.286  32.361  0.00  0.00     0.212 HD
ATOM     22  H   NAG d 902       5.021 -11.522  29.974  0.00  0.00     0.210 HD
ATOM     23  H   NAG d 902       7.071 -10.530  29.578  0.00  0.00     0.091 H 
ATOM     24  H   NAG d 902       7.586  -8.192  32.710  0.00  0.00     0.132 H 
ATOM     25  H   NAG d 902       7.267 -10.710  32.582  0.00  0.00     0.090 H 
ATOM     26  H   NAG d 902       5.845  -6.416  31.672  0.00  0.00     0.163 HD
ATOM     27  H   NAG d 902       9.180 -12.131  32.197  0.00  0.00     0.078 H 
ATOM     28  H   NAG d 902       7.707 -12.798  31.454  0.00  0.00     0.078 H 
ATOM     29  H   NAG d 902       7.452  -8.010  29.714  0.00  0.00     0.084 H 
ATOM     30  O6A GCD d 901       0.497 -10.428  33.368  0.00  0.00    -0.642 OA
ATOM     31  O5  GCD d 901       3.137  -9.966  30.879  0.00  0.00    -0.311 OA
ATOM     32  C1  GCD d 901       3.577  -8.710  30.166  0.00  0.00     0.165 C 
ATOM     33  C5  GCD d 901       1.713  -9.976  31.370  0.00  0.00     0.147 C 
ATOM     34  C2  GCD d 901       2.668  -8.513  28.993  0.00  0.00     0.111 C 
ATOM     35  O6B GCD d 901       1.988 -11.988  32.469  0.00  0.00    -0.642 OA
ATOM     36  C6  GCD d 901       1.429 -10.836  32.576  0.00  0.00     0.233 C 
ATOM     37  C3  GCD d 901       1.239  -8.281  29.598  0.00  0.00     0.084 C 
ATOM     38  O3  GCD d 901       0.341  -8.126  28.515  0.00  0.00    -0.389 OA
ATOM     39  O2  GCD d 901       3.076  -7.368  28.176  0.00  0.00    -0.388 OA
ATOM     40  C4  GCD d 901       0.833  -9.103  30.839  0.00  0.00    -0.034 C 
ATOM     41  H   GCD d 901       3.529  -7.826  30.767  0.00  0.00     0.134 H 
ATOM     42  H   GCD d 901       2.694  -9.362  28.342  0.00  0.00     0.095 H 
ATOM     43  H   GCD d 901       1.218  -7.366  30.154  0.00  0.00     0.093 H 
ATOM     44  H   GCD d 901       0.331  -8.937  27.985  0.00  0.00     0.210 HD
ATOM     45  H   GCD d 901       3.069  -6.565  28.720  0.00  0.00     0.210 HD
ATOM     46  H   GCD d 901      -0.103  -8.986  31.258  0.00  0.00     0.085 H 
ENDROOT
TORSDOF 11
ENDMDL
MODEL 69
REMARK VINA RESULT:      -6.8      2.793      7.218
REMARK  0 active torsions:
REMARK  status: ('A' for Active; 'I' for Inactive)
REMARK       I    between atoms: C8_1  and  C7_18 
REMARK       I    between atoms: O6_4  and  C6_20 
REMARK       I    between atoms: C3_6  and  O3_22 
REMARK       I    between atoms: O1_7  and  C1_15 
REMARK       I    between atoms: O4_9  and  C4_11 
REMARK       I    between atoms: C1_10  and  O3_22 
REMARK       I    between atoms: C5_12  and  C6_17 
REMARK       I    between atoms: C2_13  and  O2_25 
REMARK       I    between atoms: C5_16  and  C6_20 
REMARK       I    between atoms: C7_18  and  N2_19 
REMARK       I    between atoms: N2_19  and  C2_23 
REMARK       I    between atoms: C3_21  and  O3_24 
ROOT
ATOM      1  C8  NAG d 902       5.240  -4.034  30.055  0.00  0.00    -0.003 C 
ATOM      2  O6  NAG d 902       1.687 -11.574  31.521  0.00  0.00    -0.398 OA
ATOM      3  O7  NAG d 902       3.560  -5.119  31.458  0.00  0.00    -0.274 OA
ATOM      4  C3  NAG d 902       4.899  -8.627  30.822  0.00  0.00     0.093 C 
ATOM      5  O1  NAG d 902       2.340  -7.488  28.323  0.00  0.00    -0.369 OA
ATOM      6  O5  NAG d 902       2.573  -9.615  29.436  0.00  0.00    -0.349 OA
ATOM      7  O4  NAG d 902       5.073 -10.838  31.943  0.00  0.00    -0.390 OA
ATOM      8  C4  NAG d 902       4.166  -9.906  31.309  0.00  0.00     0.089 C 
ATOM      9  C1  NAG d 902       3.254  -8.368  28.967  0.00  0.00     0.151 C 
ATOM     10  C5  NAG d 902       3.505 -10.582  30.121  0.00  0.00     0.089 C 
ATOM     11  C7  NAG d 902       4.385  -5.202  30.507  0.00  0.00     0.214 C 
ATOM     12  N2  NAG d 902       4.650  -6.399  29.767  0.00  0.00    -0.349 N 
ATOM     13  C6  NAG d 902       2.754 -11.836  30.570  0.00  0.00     0.043 C 
ATOM     14  O3  NAG d 902       5.532  -7.940  31.929  0.00  0.00    -0.348 OA
ATOM     15  C2  NAG d 902       3.905  -7.662  30.164  0.00  0.00     0.087 C 
ATOM     16  H   NAG d 902       5.002  -3.170  30.638  0.00  0.00     0.040 H 
ATOM     17  H   NAG d 902       5.048  -3.831  29.022  0.00  0.00     0.040 H 
ATOM     18  H   NAG d 902       6.274  -4.278  30.185  0.00  0.00     0.040 H 
ATOM     19  H   NAG d 902       1.256 -12.410  31.761  0.00  0.00     0.209 HD
ATOM     20  H   NAG d 902       5.643  -8.932  30.116  0.00  0.00     0.091 H 
ATOM     21  H   NAG d 902       1.933  -7.941  27.568  0.00  0.00     0.212 HD
ATOM     22  H   NAG d 902       5.498 -10.410  32.703  0.00  0.00     0.210 HD
ATOM     23  H   NAG d 902       3.435  -9.612  32.033  0.00  0.00     0.091 H 
ATOM     24  H   NAG d 902       4.003  -8.640  28.255  0.00  0.00     0.132 H 
ATOM     25  H   NAG d 902       4.260 -10.881  29.424  0.00  0.00     0.090 H 
ATOM     26  H   NAG d 902       5.295  -6.403  29.023  0.00  0.00     0.163 HD
ATOM     27  H   NAG d 902       2.329 -12.301  29.706  0.00  0.00     0.078 H 
ATOM     28  H   NAG d 902       3.466 -12.464  31.065  0.00  0.00     0.078 H 
ATOM     29  H   NAG d 902       3.122  -7.379  30.836  0.00  0.00     0.084 H 
ATOM     30  O6A GCD d 901      10.900 -10.038  30.738  0.00  0.00    -0.642 OA
ATOM     31  O5  GCD d 901       7.577  -9.055  31.909  0.00  0.00    -0.311 OA
ATOM     32  C1  GCD d 901       6.924  -7.694  31.914  0.00  0.00     0.165 C 
ATOM     33  C5  GCD d 901       9.083  -9.059  31.928  0.00  0.00     0.147 C 
ATOM     34  C2  GCD d 901       7.386  -6.975  33.144  0.00  0.00     0.111 C 
ATOM     35  O6B GCD d 901       9.193 -11.348  31.651  0.00  0.00    -0.642 OA
ATOM     36  C6  GCD d 901       9.756 -10.250  31.293  0.00  0.00     0.233 C 
ATOM     37  C3  GCD d 901       8.935  -6.795  32.972  0.00  0.00     0.084 C 
ATOM     38  O3  GCD d 901       9.416  -6.148  34.136  0.00  0.00    -0.389 OA
ATOM     39  O2  GCD d 901       6.728  -5.676  33.292  0.00  0.00    -0.388 OA
ATOM     40  C4  GCD d 901       9.734  -7.948  32.331  0.00  0.00    -0.034 C 
ATOM     41  H   GCD d 901       7.171  -7.086  31.069  0.00  0.00     0.134 H 
ATOM     42  H   GCD d 901       7.142  -7.530  34.025  0.00  0.00     0.095 H 
ATOM     43  H   GCD d 901       9.142  -6.146  32.146  0.00  0.00     0.093 H 
ATOM     44  H   GCD d 901       9.247  -6.707  34.910  0.00  0.00     0.210 HD
ATOM     45  H   GCD d 901       6.917  -5.127  32.514  0.00  0.00     0.210 HD
ATOM     46  H   GCD d 901      10.756  -7.871  32.213  0.00  0.00     0.085 H 
ENDROOT
TORSDOF 11
ENDMDL
MODEL 70
REMARK VINA RESULT:      -6.8      2.966      5.904
REMARK  0 active torsions:
REMARK  status: ('A' for Active; 'I' for Inactive)
REMARK       I    between atoms: C8_1  and  C7_18 
REMARK       I    between atoms: O6_4  and  C6_20 
REMARK       I    between atoms: C3_6  and  O3_22 
REMARK       I    between atoms: O1_7  and  C1_15 
REMARK       I    between atoms: O4_9  and  C4_11 
REMARK       I    between atoms: C1_10  and  O3_22 
REMARK       I    between atoms: C5_12  and  C6_17 
REMARK       I    between atoms: C2_13  and  O2_25 
REMARK       I    between atoms: C5_16  and  C6_20 
REMARK       I    between atoms: C7_18  and  N2_19 
REMARK       I    between atoms: N2_19  and  C2_23 
REMARK       I    between atoms: C3_21  and  O3_24 
ROOT
ATOM      1  C8  NAG d 902       2.369  -8.363  26.379  0.00  0.00    -0.003 C 
ATOM      2  O6  NAG d 902       6.689 -13.815  31.199  0.00  0.00    -0.398 OA
ATOM      3  O7  NAG d 902       2.074  -9.942  28.221  0.00  0.00    -0.274 OA
ATOM      4  C3  NAG d 902       5.781 -10.048  29.084  0.00  0.00     0.093 C 
ATOM      5  O1  NAG d 902       4.735 -12.573  26.510  0.00  0.00    -0.369 OA
ATOM      6  O5  NAG d 902       6.189 -12.823  28.417  0.00  0.00    -0.349 OA
ATOM      7  O4  NAG d 902       7.279 -10.379  31.038  0.00  0.00    -0.390 OA
ATOM      8  C4  NAG d 902       6.372 -11.037  30.123  0.00  0.00     0.089 C 
ATOM      9  C1  NAG d 902       5.596 -11.888  27.411  0.00  0.00     0.151 C 
ATOM     10  C5  NAG d 902       7.116 -12.142  29.392  0.00  0.00     0.089 C 
ATOM     11  C7  NAG d 902       2.830  -9.434  27.348  0.00  0.00     0.214 C 
ATOM     12  N2  NAG d 902       4.214  -9.766  27.185  0.00  0.00    -0.349 N 
ATOM     13  C6  NAG d 902       7.694 -13.147  30.388  0.00  0.00     0.043 C 
ATOM     14  O3  NAG d 902       5.048  -8.985  29.738  0.00  0.00    -0.348 OA
ATOM     15  C2  NAG d 902       4.822 -10.781  28.138  0.00  0.00     0.087 C 
ATOM     16  H   NAG d 902       1.333  -8.155  26.544  0.00  0.00     0.040 H 
ATOM     17  H   NAG d 902       2.508  -8.706  25.376  0.00  0.00     0.040 H 
ATOM     18  H   NAG d 902       2.940  -7.472  26.535  0.00  0.00     0.040 H 
ATOM     19  H   NAG d 902       7.124 -14.436  31.805  0.00  0.00     0.209 HD
ATOM     20  H   NAG d 902       6.599  -9.634  28.533  0.00  0.00     0.091 H 
ATOM     21  H   NAG d 902       5.232 -13.270  26.055  0.00  0.00     0.212 HD
ATOM     22  H   NAG d 902       6.808  -9.672  31.508  0.00  0.00     0.210 HD
ATOM     23  H   NAG d 902       5.562 -11.440  30.694  0.00  0.00     0.091 H 
ATOM     24  H   NAG d 902       6.392 -11.458  26.840  0.00  0.00     0.132 H 
ATOM     25  H   NAG d 902       7.930 -11.712  28.846  0.00  0.00     0.090 H 
ATOM     26  H   NAG d 902       4.756  -9.348  26.477  0.00  0.00     0.163 HD
ATOM     27  H   NAG d 902       8.234 -13.890  29.841  0.00  0.00     0.078 H 
ATOM     28  H   NAG d 902       8.319 -12.596  31.059  0.00  0.00     0.078 H 
ATOM     29  H   NAG d 902       4.018 -11.246  28.670  0.00  0.00     0.084 H 
ATOM     30  O6A GCD d 901       9.407  -5.064  29.229  0.00  0.00    -0.642 OA
ATOM     31  O5  GCD d 901       6.810  -7.498  30.071  0.00  0.00    -0.311 OA
ATOM     32  C1  GCD d 901       5.408  -7.634  29.528  0.00  0.00     0.165 C 
ATOM     33  C5  GCD d 901       7.413  -6.120  29.992  0.00  0.00     0.147 C 
ATOM     34  C2  GCD d 901       4.534  -6.688  30.291  0.00  0.00     0.111 C 
ATOM     35  O6B GCD d 901       9.473  -6.856  30.729  0.00  0.00    -0.642 OA
ATOM     36  C6  GCD d 901       8.916  -6.053  29.894  0.00  0.00     0.233 C 
ATOM     37  C3  GCD d 901       5.071  -5.252  29.958  0.00  0.00     0.084 C 
ATOM     38  O3  GCD d 901       4.289  -4.328  30.692  0.00  0.00    -0.389 OA
ATOM     39  O2  GCD d 901       3.128  -6.817  29.903  0.00  0.00    -0.388 OA
ATOM     40  C4  GCD d 901       6.596  -5.059  29.831  0.00  0.00    -0.034 C 
ATOM     41  H   GCD d 901       5.316  -7.397  28.489  0.00  0.00     0.134 H 
ATOM     42  H   GCD d 901       4.569  -6.897  31.340  0.00  0.00     0.095 H 
ATOM     43  H   GCD d 901       4.921  -5.034  28.921  0.00  0.00     0.093 H 
ATOM     44  H   GCD d 901       4.399  -4.494  31.641  0.00  0.00     0.210 HD
ATOM     45  H   GCD d 901       3.037  -6.638  28.954  0.00  0.00     0.210 HD
ATOM     46  H   GCD d 901       6.987  -4.126  29.624  0.00  0.00     0.085 H 
ENDROOT
TORSDOF 11
ENDMDL
MODEL 71
REMARK VINA RESULT:      -6.8      2.499      6.362
REMARK  0 active torsions:
REMARK  status: ('A' for Active; 'I' for Inactive)
REMARK       I    between atoms: C8_1  and  C7_18 
REMARK       I    between atoms: O6_4  and  C6_20 
REMARK       I    between atoms: C3_6  and  O3_22 
REMARK       I    between atoms: O1_7  and  C1_15 
REMARK       I    between atoms: O4_9  and  C4_11 
REMARK       I    between atoms: C1_10  and  O3_22 
REMARK       I    between atoms: C5_12  and  C6_17 
REMARK       I    between atoms: C2_13  and  O2_25 
REMARK       I    between atoms: C5_16  and  C6_20 
REMARK       I    between atoms: C7_18  and  N2_19 
REMARK       I    between atoms: N2_19  and  C2_23 
REMARK       I    between atoms: C3_21  and  O3_24 
ROOT
ATOM      1  C8  NAG d 902       7.861 -12.606  31.532  0.00  0.00    -0.003 C 
ATOM      2  O6  NAG d 902       0.186  -9.602  29.614  0.00  0.00    -0.398 OA
ATOM      3  O7  NAG d 902       6.342 -12.300  29.644  0.00  0.00    -0.274 OA
ATOM      4  C3  NAG d 902       4.208  -9.701  31.431  0.00  0.00     0.093 C 
ATOM      5  O1  NAG d 902       3.094 -13.242  31.988  0.00  0.00    -0.369 OA
ATOM      6  O5  NAG d 902       1.791 -11.269  31.515  0.00  0.00    -0.349 OA
ATOM      7  O4  NAG d 902       2.805  -7.711  30.934  0.00  0.00    -0.390 OA
ATOM      8  C4  NAG d 902       2.883  -9.152  30.839  0.00  0.00     0.089 C 
ATOM      9  C1  NAG d 902       3.066 -11.823  32.070  0.00  0.00     0.151 C 
ATOM     10  C5  NAG d 902       1.712  -9.765  31.587  0.00  0.00     0.089 C 
ATOM     11  C7  NAG d 902       6.546 -12.217  30.886  0.00  0.00     0.214 C 
ATOM     12  N2  NAG d 902       5.595 -11.716  31.831  0.00  0.00    -0.349 N 
ATOM     13  C6  NAG d 902       0.388  -9.261  31.012  0.00  0.00     0.043 C 
ATOM     14  O3  NAG d 902       5.354  -9.153  30.734  0.00  0.00    -0.348 OA
ATOM     15  C2  NAG d 902       4.255 -11.228  31.305  0.00  0.00     0.087 C 
ATOM     16  H   NAG d 902       8.532 -12.973  30.784  0.00  0.00     0.040 H 
ATOM     17  H   NAG d 902       7.688 -13.370  32.261  0.00  0.00     0.040 H 
ATOM     18  H   NAG d 902       8.292 -11.750  32.007  0.00  0.00     0.040 H 
ATOM     19  H   NAG d 902      -0.669  -9.253  29.317  0.00  0.00     0.209 HD
ATOM     20  H   NAG d 902       4.243  -9.413  32.460  0.00  0.00     0.091 H 
ATOM     21  H   NAG d 902       2.340 -13.609  32.474  0.00  0.00     0.212 HD
ATOM     22  H   NAG d 902       3.552  -7.315  30.457  0.00  0.00     0.210 HD
ATOM     23  H   NAG d 902       2.850  -9.417  29.802  0.00  0.00     0.091 H 
ATOM     24  H   NAG d 902       3.128 -11.554  33.103  0.00  0.00     0.132 H 
ATOM     25  H   NAG d 902       1.761  -9.469  32.614  0.00  0.00     0.090 H 
ATOM     26  H   NAG d 902       5.802 -11.687  32.793  0.00  0.00     0.163 HD
ATOM     27  H   NAG d 902      -0.411  -9.688  31.582  0.00  0.00     0.078 H 
ATOM     28  H   NAG d 902       0.409  -8.193  31.073  0.00  0.00     0.078 H 
ATOM     29  H   NAG d 902       4.173 -11.545  30.286  0.00  0.00     0.084 H 
ATOM     30  O6A GCD d 901       6.530  -5.156  34.891  0.00  0.00    -0.642 OA
ATOM     31  O5  GCD d 901       5.647  -7.223  32.005  0.00  0.00    -0.311 OA
ATOM     32  C1  GCD d 901       6.345  -8.438  31.442  0.00  0.00     0.165 C 
ATOM     33  C5  GCD d 901       6.514  -6.271  32.785  0.00  0.00     0.147 C 
ATOM     34  C2  GCD d 901       7.443  -7.953  30.547  0.00  0.00     0.111 C 
ATOM     35  O6B GCD d 901       4.711  -4.982  33.432  0.00  0.00    -0.642 OA
ATOM     36  C6  GCD d 901       5.824  -5.464  33.857  0.00  0.00     0.233 C 
ATOM     37  C3  GCD d 901       8.440  -7.179  31.480  0.00  0.00     0.084 C 
ATOM     38  O3  GCD d 901       9.478  -6.674  30.662  0.00  0.00    -0.389 OA
ATOM     39  O2  GCD d 901       8.122  -9.061  29.873  0.00  0.00    -0.388 OA
ATOM     40  C4  GCD d 901       7.852  -6.319  32.618  0.00  0.00    -0.034 C 
ATOM     41  H   GCD d 901       6.784  -9.072  32.183  0.00  0.00     0.134 H 
ATOM     42  H   GCD d 901       7.055  -7.329  29.770  0.00  0.00     0.095 H 
ATOM     43  H   GCD d 901       8.892  -7.854  32.177  0.00  0.00     0.093 H 
ATOM     44  H   GCD d 901       9.107  -6.055  30.014  0.00  0.00     0.210 HD
ATOM     45  H   GCD d 901       8.495  -9.663  30.536  0.00  0.00     0.210 HD
ATOM     46  H   GCD d 901       8.475  -5.787  33.244  0.00  0.00     0.085 H 
ENDROOT
TORSDOF 11
ENDMDL
MODEL 72
REMARK VINA RESULT:      -6.7      3.327      8.203
REMARK  0 active torsions:
REMARK  status: ('A' for Active; 'I' for Inactive)
REMARK       I    between atoms: C8_1  and  C7_18 
REMARK       I    between atoms: O6_4  and  C6_20 
REMARK       I    between atoms: C3_6  and  O3_22 
REMARK       I    between atoms: O1_7  and  C1_15 
REMARK       I    between atoms: O4_9  and  C4_11 
REMARK       I    between atoms: C1_10  and  O3_22 
REMARK       I    between atoms: C5_12  and  C6_17 
REMARK       I    between atoms: C2_13  and  O2_25 
REMARK       I    between atoms: C5_16  and  C6_20 
REMARK       I    between atoms: C7_18  and  N2_19 
REMARK       I    between atoms: N2_19  and  C2_23 
REMARK       I    between atoms: C3_21  and  O3_24 
ROOT
ATOM      1  C8  NAG d 902       2.013  -7.747  25.698  0.00  0.00    -0.003 C 
ATOM      2  O6  NAG d 902      -2.125  -7.927  33.078  0.00  0.00    -0.398 OA
ATOM      3  O7  NAG d 902       1.029  -6.271  27.378  0.00  0.00    -0.274 OA
ATOM      4  C3  NAG d 902       0.951  -8.951  30.082  0.00  0.00     0.093 C 
ATOM      5  O1  NAG d 902      -2.125  -8.856  27.932  0.00  0.00    -0.369 OA
ATOM      6  O5  NAG d 902      -1.919  -9.084  30.323  0.00  0.00    -0.349 OA
ATOM      7  O4  NAG d 902       1.090  -9.178  32.552  0.00  0.00    -0.390 OA
ATOM      8  C4  NAG d 902       0.257  -8.739  31.454  0.00  0.00     0.089 C 
ATOM      9  C1  NAG d 902      -1.267  -9.268  28.989  0.00  0.00     0.151 C 
ATOM     10  C5  NAG d 902      -1.048  -9.515  31.477  0.00  0.00     0.089 C 
ATOM     11  C7  NAG d 902       1.228  -7.445  26.959  0.00  0.00     0.214 C 
ATOM     12  N2  NAG d 902       0.785  -8.629  27.630  0.00  0.00    -0.349 N 
ATOM     13  C6  NAG d 902      -1.768  -9.309  32.809  0.00  0.00     0.043 C 
ATOM     14  O3  NAG d 902       2.196  -8.214  30.010  0.00  0.00    -0.348 OA
ATOM     15  C2  NAG d 902       0.041  -8.469  28.945  0.00  0.00     0.087 C 
ATOM     16  H   NAG d 902       2.318  -6.831  25.239  0.00  0.00     0.040 H 
ATOM     17  H   NAG d 902       1.396  -8.298  25.018  0.00  0.00     0.040 H 
ATOM     18  H   NAG d 902       2.877  -8.327  25.945  0.00  0.00     0.040 H 
ATOM     19  H   NAG d 902      -2.576  -7.870  33.935  0.00  0.00     0.209 HD
ATOM     20  H   NAG d 902       1.147  -9.998  29.980  0.00  0.00     0.091 H 
ATOM     21  H   NAG d 902      -2.949  -9.365  27.966  0.00  0.00     0.212 HD
ATOM     22  H   NAG d 902       1.926  -8.685  32.542  0.00  0.00     0.210 HD
ATOM     23  H   NAG d 902       0.077  -7.691  31.574  0.00  0.00     0.091 H 
ATOM     24  H   NAG d 902      -1.061 -10.309  28.855  0.00  0.00     0.132 H 
ATOM     25  H   NAG d 902      -0.835 -10.559  31.373  0.00  0.00     0.090 H 
ATOM     26  H   NAG d 902       0.956  -9.522  27.251  0.00  0.00     0.163 HD
ATOM     27  H   NAG d 902      -2.665  -9.893  32.801  0.00  0.00     0.078 H 
ATOM     28  H   NAG d 902      -1.090  -9.611  33.580  0.00  0.00     0.078 H 
ATOM     29  H   NAG d 902      -0.210  -7.434  29.051  0.00  0.00     0.084 H 
ATOM     30  O6A GCD d 901       5.559 -12.918  31.104  0.00  0.00    -0.642 OA
ATOM     31  O5  GCD d 901       3.611  -9.828  30.915  0.00  0.00    -0.311 OA
ATOM     32  C1  GCD d 901       3.411  -8.888  29.751  0.00  0.00     0.165 C 
ATOM     33  C5  GCD d 901       4.875 -10.647  30.887  0.00  0.00     0.147 C 
ATOM     34  C2  GCD d 901       4.581  -7.955  29.717  0.00  0.00     0.111 C 
ATOM     35  O6B GCD d 901       4.254 -11.875  32.740  0.00  0.00    -0.642 OA
ATOM     36  C6  GCD d 901       4.824 -11.978  31.593  0.00  0.00     0.233 C 
ATOM     37  C3  GCD d 901       5.834  -8.856  29.434  0.00  0.00     0.084 C 
ATOM     38  O3  GCD d 901       6.969  -8.011  29.430  0.00  0.00    -0.389 OA
ATOM     39  O2  GCD d 901       4.431  -6.935  28.677  0.00  0.00    -0.388 OA
ATOM     40  C4  GCD d 901       5.895 -10.245  30.101  0.00  0.00    -0.034 C 
ATOM     41  H   GCD d 901       3.354  -9.374  28.800  0.00  0.00     0.134 H 
ATOM     42  H   GCD d 901       4.671  -7.421  30.640  0.00  0.00     0.095 H 
ATOM     43  H   GCD d 901       5.763  -9.289  28.458  0.00  0.00     0.093 H 
ATOM     44  H   GCD d 901       7.068  -7.598  30.301  0.00  0.00     0.210 HD
ATOM     45  H   GCD d 901       4.345  -7.366  27.812  0.00  0.00     0.210 HD
ATOM     46  H   GCD d 901       6.709 -10.861  29.947  0.00  0.00     0.085 H 
ENDROOT
TORSDOF 11
ENDMDL
MODEL 73
REMARK VINA RESULT:      -6.7      3.934      6.085
REMARK  0 active torsions:
REMARK  status: ('A' for Active; 'I' for Inactive)
REMARK       I    between atoms: C8_1  and  C7_18 
REMARK       I    between atoms: O6_4  and  C6_20 
REMARK       I    between atoms: C3_6  and  O3_22 
REMARK       I    between atoms: O1_7  and  C1_15 
REMARK       I    between atoms: O4_9  and  C4_11 
REMARK       I    between atoms: C1_10  and  O3_22 
REMARK       I    between atoms: C5_12  and  C6_17 
REMARK       I    between atoms: C2_13  and  O2_25 
REMARK       I    between atoms: C5_16  and  C6_20 
REMARK       I    between atoms: C7_18  and  N2_19 
REMARK       I    between atoms: N2_19  and  C2_23 
REMARK       I    between atoms: C3_21  and  O3_24 
ROOT
ATOM      1  C8  NAG d 902      -1.811  -8.285  31.632  0.00  0.00    -0.003 C 
ATOM      2  O6  NAG d 902       6.382  -6.328  30.824  0.00  0.00    -0.398 OA
ATOM      3  O7  NAG d 902      -0.324  -6.382  31.263  0.00  0.00    -0.274 OA
ATOM      4  C3  NAG d 902       2.618  -8.542  30.179  0.00  0.00     0.093 C 
ATOM      5  O1  NAG d 902       2.451  -7.927  33.879  0.00  0.00    -0.369 OA
ATOM      6  O5  NAG d 902       4.345  -7.868  32.387  0.00  0.00    -0.349 OA
ATOM      7  O4  NAG d 902       4.610  -8.453  28.696  0.00  0.00    -0.390 OA
ATOM      8  C4  NAG d 902       4.037  -7.964  29.932  0.00  0.00     0.089 C 
ATOM      9  C1  NAG d 902       2.971  -8.403  32.643  0.00  0.00     0.151 C 
ATOM     10  C5  NAG d 902       4.941  -8.352  31.089  0.00  0.00     0.089 C 
ATOM     11  C7  NAG d 902      -0.458  -7.612  31.508  0.00  0.00     0.214 C 
ATOM     12  N2  NAG d 902       0.630  -8.530  31.659  0.00  0.00    -0.349 N 
ATOM     13  C6  NAG d 902       6.344  -7.779  30.887  0.00  0.00     0.043 C 
ATOM     14  O3  NAG d 902       1.717  -8.182  29.104  0.00  0.00    -0.348 OA
ATOM     15  C2  NAG d 902       2.042  -7.996  31.491  0.00  0.00     0.087 C 
ATOM     16  H   NAG d 902      -2.585  -7.557  31.513  0.00  0.00     0.040 H 
ATOM     17  H   NAG d 902      -1.896  -8.740  32.597  0.00  0.00     0.040 H 
ATOM     18  H   NAG d 902      -1.908  -9.035  30.875  0.00  0.00     0.040 H 
ATOM     19  H   NAG d 902       7.298  -6.034  30.695  0.00  0.00     0.209 HD
ATOM     20  H   NAG d 902       2.709  -9.607  30.229  0.00  0.00     0.091 H 
ATOM     21  H   NAG d 902       3.043  -8.189  34.600  0.00  0.00     0.212 HD
ATOM     22  H   NAG d 902       4.036  -8.207  27.954  0.00  0.00     0.210 HD
ATOM     23  H   NAG d 902       3.952  -6.900  29.858  0.00  0.00     0.091 H 
ATOM     24  H   NAG d 902       3.029  -9.470  32.702  0.00  0.00     0.132 H 
ATOM     25  H   NAG d 902       5.022  -9.418  31.126  0.00  0.00     0.090 H 
ATOM     26  H   NAG d 902       0.468  -9.480  31.864  0.00  0.00     0.163 HD
ATOM     27  H   NAG d 902       6.958  -8.097  31.703  0.00  0.00     0.078 H 
ATOM     28  H   NAG d 902       6.695  -8.141  29.943  0.00  0.00     0.078 H 
ATOM     29  H   NAG d 902       1.986  -6.928  31.486  0.00  0.00     0.084 H 
ATOM     30  O6A GCD d 901       2.094 -13.414  26.437  0.00  0.00    -0.642 OA
ATOM     31  O5  GCD d 901       2.140  -9.973  27.677  0.00  0.00    -0.311 OA
ATOM     32  C1  GCD d 901       1.051  -9.184  28.364  0.00  0.00     0.165 C 
ATOM     33  C5  GCD d 901       1.674 -11.095  26.787  0.00  0.00     0.147 C 
ATOM     34  C2  GCD d 901       0.167  -8.612  27.300  0.00  0.00     0.111 C 
ATOM     35  O6B GCD d 901       3.826 -11.844  26.415  0.00  0.00    -0.642 OA
ATOM     36  C6  GCD d 901       2.625 -12.254  26.619  0.00  0.00     0.233 C 
ATOM     37  C3  GCD d 901      -0.478  -9.845  26.575  0.00  0.00     0.084 C 
ATOM     38  O3  GCD d 901      -1.296  -9.343  25.535  0.00  0.00    -0.389 OA
ATOM     39  O2  GCD d 901      -0.868  -7.744  27.864  0.00  0.00    -0.388 OA
ATOM     40  C4  GCD d 901       0.398 -11.094  26.348  0.00  0.00    -0.034 C 
ATOM     41  H   GCD d 901       0.437  -9.765  29.019  0.00  0.00     0.134 H 
ATOM     42  H   GCD d 901       0.729  -7.999  26.626  0.00  0.00     0.095 H 
ATOM     43  H   GCD d 901      -1.119 -10.375  27.249  0.00  0.00     0.093 H 
ATOM     44  H   GCD d 901      -0.749  -8.855  24.900  0.00  0.00     0.210 HD
ATOM     45  H   GCD d 901      -1.411  -8.252  28.487  0.00  0.00     0.210 HD
ATOM     46  H   GCD d 901       0.012 -11.920  25.864  0.00  0.00     0.085 H 
ENDROOT
TORSDOF 11
ENDMDL
MODEL 74
REMARK VINA RESULT:      -6.7      2.602      6.684
REMARK  0 active torsions:
REMARK  status: ('A' for Active; 'I' for Inactive)
REMARK       I    between atoms: C8_1  and  C7_18 
REMARK       I    between atoms: O6_4  and  C6_20 
REMARK       I    between atoms: C3_6  and  O3_22 
REMARK       I    between atoms: O1_7  and  C1_15 
REMARK       I    between atoms: O4_9  and  C4_11 
REMARK       I    between atoms: C1_10  and  O3_22 
REMARK       I    between atoms: C5_12  and  C6_17 
REMARK       I    between atoms: C2_13  and  O2_25 
REMARK       I    between atoms: C5_16  and  C6_20 
REMARK       I    between atoms: C7_18  and  N2_19 
REMARK       I    between atoms: N2_19  and  C2_23 
REMARK       I    between atoms: C3_21  and  O3_24 
ROOT
ATOM      1  C8  NAG d 902       2.155 -10.527  33.637  0.00  0.00    -0.003 C 
ATOM      2  O6  NAG d 902       1.100  -9.861  25.266  0.00  0.00    -0.398 OA
ATOM      3  O7  NAG d 902       1.959 -11.888  31.617  0.00  0.00    -0.274 OA
ATOM      4  C3  NAG d 902       2.759  -9.001  29.266  0.00  0.00     0.093 C 
ATOM      5  O1  NAG d 902      -0.890  -9.350  30.075  0.00  0.00    -0.369 OA
ATOM      6  O5  NAG d 902       0.189  -8.924  27.961  0.00  0.00    -0.349 OA
ATOM      7  O4  NAG d 902       3.807  -8.572  27.054  0.00  0.00    -0.390 OA
ATOM      8  C4  NAG d 902       2.646  -9.120  27.723  0.00  0.00     0.089 C 
ATOM      9  C1  NAG d 902       0.279  -8.832  29.452  0.00  0.00     0.151 C 
ATOM     10  C5  NAG d 902       1.406  -8.379  27.256  0.00  0.00     0.089 C 
ATOM     11  C7  NAG d 902       1.922 -10.747  32.155  0.00  0.00     0.214 C 
ATOM     12  N2  NAG d 902       1.699  -9.524  31.444  0.00  0.00    -0.349 N 
ATOM     13  C6  NAG d 902       1.253  -8.495  25.739  0.00  0.00     0.043 C 
ATOM     14  O3  NAG d 902       3.923  -9.709  29.757  0.00  0.00    -0.348 OA
ATOM     15  C2  NAG d 902       1.516  -9.597  29.938  0.00  0.00     0.087 C 
ATOM     16  H   NAG d 902       2.315 -11.469  34.117  0.00  0.00     0.040 H 
ATOM     17  H   NAG d 902       1.299 -10.049  34.065  0.00  0.00     0.040 H 
ATOM     18  H   NAG d 902       3.016  -9.907  33.774  0.00  0.00     0.040 H 
ATOM     19  H   NAG d 902       1.009  -9.860  24.301  0.00  0.00     0.209 HD
ATOM     20  H   NAG d 902       2.845  -7.961  29.503  0.00  0.00     0.091 H 
ATOM     21  H   NAG d 902      -1.667  -8.861  29.763  0.00  0.00     0.212 HD
ATOM     22  H   NAG d 902       4.602  -9.043  27.349  0.00  0.00     0.210 HD
ATOM     23  H   NAG d 902       2.583 -10.159  27.475  0.00  0.00     0.091 H 
ATOM     24  H   NAG d 902       0.362  -7.800  29.722  0.00  0.00     0.132 H 
ATOM     25  H   NAG d 902       1.506  -7.342  27.500  0.00  0.00     0.090 H 
ATOM     26  H   NAG d 902       1.666  -8.661  31.917  0.00  0.00     0.163 HD
ATOM     27  H   NAG d 902       0.389  -7.938  25.444  0.00  0.00     0.078 H 
ATOM     28  H   NAG d 902       2.154  -8.115  25.306  0.00  0.00     0.078 H 
ATOM     29  H   NAG d 902       1.380 -10.626  29.678  0.00  0.00     0.084 H 
ATOM     30  O6A GCD d 901       7.188  -4.846  30.330  0.00  0.00    -0.642 OA
ATOM     31  O5  GCD d 901       5.485  -7.990  29.564  0.00  0.00    -0.311 OA
ATOM     32  C1  GCD d 901       4.912  -9.027  30.501  0.00  0.00     0.165 C 
ATOM     33  C5  GCD d 901       6.598  -7.144  30.123  0.00  0.00     0.147 C 
ATOM     34  C2  GCD d 901       6.033  -9.929  30.917  0.00  0.00     0.111 C 
ATOM     35  O6B GCD d 901       6.656  -5.787  28.257  0.00  0.00    -0.642 OA
ATOM     36  C6  GCD d 901       6.744  -5.762  29.539  0.00  0.00     0.233 C 
ATOM     37  C3  GCD d 901       7.035  -9.021  31.712  0.00  0.00     0.084 C 
ATOM     38  O3  GCD d 901       8.130  -9.834  32.093  0.00  0.00    -0.389 OA
ATOM     39  O2  GCD d 901       5.558 -11.032  31.754  0.00  0.00    -0.388 OA
ATOM     40  C4  GCD d 901       7.267  -7.581  31.210  0.00  0.00    -0.034 C 
ATOM     41  H   GCD d 901       4.475  -8.620  31.389  0.00  0.00     0.134 H 
ATOM     42  H   GCD d 901       6.493 -10.383  30.065  0.00  0.00     0.095 H 
ATOM     43  H   GCD d 901       6.579  -8.670  32.615  0.00  0.00     0.093 H 
ATOM     44  H   GCD d 901       8.573 -10.172  31.299  0.00  0.00     0.210 HD
ATOM     45  H   GCD d 901       5.129 -10.675  32.547  0.00  0.00     0.210 HD
ATOM     46  H   GCD d 901       7.928  -6.958  31.701  0.00  0.00     0.085 H 
ENDROOT
TORSDOF 11
ENDMDL
MODEL 75
REMARK VINA RESULT:      -6.7      4.002      7.791
REMARK  0 active torsions:
REMARK  status: ('A' for Active; 'I' for Inactive)
REMARK       I    between atoms: C8_1  and  C7_18 
REMARK       I    between atoms: O6_4  and  C6_20 
REMARK       I    between atoms: C3_6  and  O3_22 
REMARK       I    between atoms: O1_7  and  C1_15 
REMARK       I    between atoms: O4_9  and  C4_11 
REMARK       I    between atoms: C1_10  and  O3_22 
REMARK       I    between atoms: C5_12  and  C6_17 
REMARK       I    between atoms: C2_13  and  O2_25 
REMARK       I    between atoms: C5_16  and  C6_20 
REMARK       I    between atoms: C7_18  and  N2_19 
REMARK       I    between atoms: N2_19  and  C2_23 
REMARK       I    between atoms: C3_21  and  O3_24 
ROOT
ATOM      1  C8  NAG d 902       1.285 -13.086  27.594  0.00  0.00    -0.003 C 
ATOM      2  O6  NAG d 902       1.335  -5.472  23.900  0.00  0.00    -0.398 OA
ATOM      3  O7  NAG d 902       2.367 -11.838  25.794  0.00  0.00    -0.274 OA
ATOM      4  C3  NAG d 902       1.349  -8.437  27.171  0.00  0.00     0.093 C 
ATOM      5  O1  NAG d 902      -1.171  -9.964  24.845  0.00  0.00    -0.369 OA
ATOM      6  O5  NAG d 902      -0.361  -7.696  24.971  0.00  0.00    -0.349 OA
ATOM      7  O4  NAG d 902       2.148  -6.085  27.238  0.00  0.00    -0.390 OA
ATOM      8  C4  NAG d 902       1.580  -7.114  26.394  0.00  0.00     0.089 C 
ATOM      9  C1  NAG d 902      -0.584  -8.987  25.695  0.00  0.00     0.151 C 
ATOM     10  C5  NAG d 902       0.255  -6.626  25.837  0.00  0.00     0.089 C 
ATOM     11  C7  NAG d 902       1.488 -11.880  26.699  0.00  0.00     0.214 C 
ATOM     12  N2  NAG d 902       0.609 -10.797  27.023  0.00  0.00    -0.349 N 
ATOM     13  C6  NAG d 902       0.451  -5.332  25.045  0.00  0.00     0.043 C 
ATOM     14  O3  NAG d 902       2.593  -8.948  27.708  0.00  0.00    -0.348 OA
ATOM     15  C2  NAG d 902       0.753  -9.502  26.242  0.00  0.00     0.087 C 
ATOM     16  H   NAG d 902       1.964 -13.861  27.309  0.00  0.00     0.040 H 
ATOM     17  H   NAG d 902       0.280 -13.438  27.494  0.00  0.00     0.040 H 
ATOM     18  H   NAG d 902       1.466 -12.810  28.612  0.00  0.00     0.040 H 
ATOM     19  H   NAG d 902       1.414  -4.618  23.447  0.00  0.00     0.209 HD
ATOM     20  H   NAG d 902       0.672  -8.225  27.973  0.00  0.00     0.091 H 
ATOM     21  H   NAG d 902      -2.015  -9.630  24.504  0.00  0.00     0.212 HD
ATOM     22  H   NAG d 902       2.996  -6.393  27.597  0.00  0.00     0.210 HD
ATOM     23  H   NAG d 902       2.274  -7.312  25.603  0.00  0.00     0.091 H 
ATOM     24  H   NAG d 902      -1.262  -8.808  26.503  0.00  0.00     0.132 H 
ATOM     25  H   NAG d 902      -0.410  -6.418  26.649  0.00  0.00     0.090 H 
ATOM     26  H   NAG d 902      -0.070 -10.889  27.731  0.00  0.00     0.163 HD
ATOM     27  H   NAG d 902      -0.504  -5.003  24.695  0.00  0.00     0.078 H 
ATOM     28  H   NAG d 902       0.910  -4.629  25.708  0.00  0.00     0.078 H 
ATOM     29  H   NAG d 902       1.389  -9.698  25.405  0.00  0.00     0.084 H 
ATOM     30  O6A GCD d 901       1.578  -6.956  33.152  0.00  0.00    -0.642 OA
ATOM     31  O5  GCD d 901       2.588  -7.815  29.743  0.00  0.00    -0.311 OA
ATOM     32  C1  GCD d 901       2.734  -9.171  29.096  0.00  0.00     0.165 C 
ATOM     33  C5  GCD d 901       2.735  -7.783  31.241  0.00  0.00     0.147 C 
ATOM     34  C2  GCD d 901       4.089  -9.698  29.452  0.00  0.00     0.111 C 
ATOM     35  O6B GCD d 901       2.142  -5.556  31.366  0.00  0.00    -0.642 OA
ATOM     36  C6  GCD d 901       1.995  -6.685  31.963  0.00  0.00     0.233 C 
ATOM     37  C3  GCD d 901       4.079  -9.876  31.011  0.00  0.00     0.084 C 
ATOM     38  O3  GCD d 901       5.361 -10.341  31.391  0.00  0.00    -0.389 OA
ATOM     39  O2  GCD d 901       4.366 -10.973  28.788  0.00  0.00    -0.388 OA
ATOM     40  C4  GCD d 901       3.350  -8.814  31.859  0.00  0.00    -0.034 C 
ATOM     41  H   GCD d 901       2.010  -9.889  29.419  0.00  0.00     0.134 H 
ATOM     42  H   GCD d 901       4.857  -9.026  29.129  0.00  0.00     0.095 H 
ATOM     43  H   GCD d 901       3.377 -10.633  31.291  0.00  0.00     0.093 H 
ATOM     44  H   GCD d 901       6.029  -9.679  31.153  0.00  0.00     0.210 HD
ATOM     45  H   GCD d 901       3.695 -11.624  29.046  0.00  0.00     0.210 HD
ATOM     46  H   GCD d 901       3.332  -8.891  32.887  0.00  0.00     0.085 H 
ENDROOT
TORSDOF 11
ENDMDL
MODEL 76
REMARK VINA RESULT:      -6.7      4.140      7.434
REMARK  0 active torsions:
REMARK  status: ('A' for Active; 'I' for Inactive)
REMARK       I    between atoms: C8_1  and  C7_18 
REMARK       I    between atoms: O6_4  and  C6_20 
REMARK       I    between atoms: C3_6  and  O3_22 
REMARK       I    between atoms: O1_7  and  C1_15 
REMARK       I    between atoms: O4_9  and  C4_11 
REMARK       I    between atoms: C1_10  and  O3_22 
REMARK       I    between atoms: C5_12  and  C6_17 
REMARK       I    between atoms: C2_13  and  O2_25 
REMARK       I    between atoms: C5_16  and  C6_20 
REMARK       I    between atoms: C7_18  and  N2_19 
REMARK       I    between atoms: N2_19  and  C2_23 
REMARK       I    between atoms: C3_21  and  O3_24 
ROOT
ATOM      1  C8  NAG d 902       5.081 -11.496  29.989  0.00  0.00    -0.003 C 
ATOM      2  O6  NAG d 902       0.483 -10.213  23.001  0.00  0.00    -0.398 OA
ATOM      3  O7  NAG d 902       5.314 -11.008  27.606  0.00  0.00    -0.274 OA
ATOM      4  C3  NAG d 902       1.718  -9.816  27.221  0.00  0.00     0.093 C 
ATOM      5  O1  NAG d 902       2.173 -13.506  26.696  0.00  0.00    -0.369 OA
ATOM      6  O5  NAG d 902       0.871 -11.915  25.435  0.00  0.00    -0.349 OA
ATOM      7  O4  NAG d 902       0.365  -8.229  25.870  0.00  0.00    -0.390 OA
ATOM      8  C4  NAG d 902       1.088  -9.482  25.842  0.00  0.00     0.089 C 
ATOM      9  C1  NAG d 902       1.498 -12.255  26.750  0.00  0.00     0.151 C 
ATOM     10  C5  NAG d 902       0.137 -10.598  25.446  0.00  0.00     0.089 C 
ATOM     11  C7  NAG d 902       4.561 -11.286  28.580  0.00  0.00     0.214 C 
ATOM     12  N2  NAG d 902       3.136 -11.398  28.496  0.00  0.00    -0.349 N 
ATOM     13  C6  NAG d 902      -0.486 -10.310  24.080  0.00  0.00     0.043 C 
ATOM     14  O3  NAG d 902       2.646  -8.783  27.631  0.00  0.00    -0.348 OA
ATOM     15  C2  NAG d 902       2.479 -11.145  27.150  0.00  0.00     0.087 C 
ATOM     16  H   NAG d 902       6.146 -11.402  29.995  0.00  0.00     0.040 H 
ATOM     17  H   NAG d 902       4.808 -12.473  30.328  0.00  0.00     0.040 H 
ATOM     18  H   NAG d 902       4.655 -10.761  30.640  0.00  0.00     0.040 H 
ATOM     19  H   NAG d 902       0.021 -10.030  22.168  0.00  0.00     0.209 HD
ATOM     20  H   NAG d 902       0.920  -9.884  27.930  0.00  0.00     0.091 H 
ATOM     21  H   NAG d 902       1.546 -14.200  26.443  0.00  0.00     0.212 HD
ATOM     22  H   NAG d 902       0.969  -7.513  26.123  0.00  0.00     0.210 HD
ATOM     23  H   NAG d 902       1.881  -9.390  25.130  0.00  0.00     0.091 H 
ATOM     24  H   NAG d 902       0.722 -12.334  27.483  0.00  0.00     0.132 H 
ATOM     25  H   NAG d 902      -0.654 -10.654  26.164  0.00  0.00     0.090 H 
ATOM     26  H   NAG d 902       2.598 -11.632  29.286  0.00  0.00     0.163 HD
ATOM     27  H   NAG d 902      -1.170 -11.098  23.848  0.00  0.00     0.078 H 
ATOM     28  H   NAG d 902      -0.967  -9.357  24.152  0.00  0.00     0.078 H 
ATOM     29  H   NAG d 902       3.253 -11.120  26.411  0.00  0.00     0.084 H 
ATOM     30  O6A GCD d 901      -1.154  -6.213  31.318  0.00  0.00    -0.642 OA
ATOM     31  O5  GCD d 901       1.143  -7.374  28.719  0.00  0.00    -0.311 OA
ATOM     32  C1  GCD d 901       2.460  -8.101  28.854  0.00  0.00     0.165 C 
ATOM     33  C5  GCD d 901       0.733  -6.534  29.900  0.00  0.00     0.147 C 
ATOM     34  C2  GCD d 901       3.521  -7.073  29.098  0.00  0.00     0.111 C 
ATOM     35  O6B GCD d 901      -1.336  -6.066  28.992  0.00  0.00    -0.642 OA
ATOM     36  C6  GCD d 901      -0.749  -6.342  30.101  0.00  0.00     0.233 C 
ATOM     37  C3  GCD d 901       3.161  -6.410  30.474  0.00  0.00     0.084 C 
ATOM     38  O3  GCD d 901       4.125  -5.404  30.723  0.00  0.00    -0.389 OA
ATOM     39  O2  GCD d 901       4.856  -7.672  29.146  0.00  0.00    -0.388 OA
ATOM     40  C4  GCD d 901       1.673  -6.163  30.795  0.00  0.00    -0.034 C 
ATOM     41  H   GCD d 901       2.493  -8.800  29.663  0.00  0.00     0.134 H 
ATOM     42  H   GCD d 901       3.549  -6.357  28.303  0.00  0.00     0.095 H 
ATOM     43  H   GCD d 901       3.248  -7.128  31.263  0.00  0.00     0.093 H 
ATOM     44  H   GCD d 901       4.077  -4.731  30.026  0.00  0.00     0.210 HD
ATOM     45  H   GCD d 901       4.888  -8.334  29.854  0.00  0.00     0.210 HD
ATOM     46  H   GCD d 901       1.398  -5.719  31.685  0.00  0.00     0.085 H 
ENDROOT
TORSDOF 11
ENDMDL
MODEL 77
REMARK VINA RESULT:      -6.7      2.915      4.093
REMARK  0 active torsions:
REMARK  status: ('A' for Active; 'I' for Inactive)
REMARK       I    between atoms: C8_1  and  C7_18 
REMARK       I    between atoms: O6_4  and  C6_20 
REMARK       I    between atoms: C3_6  and  O3_22 
REMARK       I    between atoms: O1_7  and  C1_15 
REMARK       I    between atoms: O4_9  and  C4_11 
REMARK       I    between atoms: C1_10  and  O3_22 
REMARK       I    between atoms: C5_12  and  C6_17 
REMARK       I    between atoms: C2_13  and  O2_25 
REMARK       I    between atoms: C5_16  and  C6_20 
REMARK       I    between atoms: C7_18  and  N2_19 
REMARK       I    between atoms: N2_19  and  C2_23 
REMARK       I    between atoms: C3_21  and  O3_24 
ROOT
ATOM      1  C8  NAG d 902       2.377 -12.412  31.682  0.00  0.00    -0.003 C 
ATOM      2  O6  NAG d 902       6.155  -4.840  31.557  0.00  0.00    -0.398 OA
ATOM      3  O7  NAG d 902       2.636 -10.379  33.012  0.00  0.00    -0.274 OA
ATOM      4  C3  NAG d 902       3.818  -8.276  30.066  0.00  0.00     0.093 C 
ATOM      5  O1  NAG d 902       6.582 -10.042  31.893  0.00  0.00    -0.369 OA
ATOM      6  O5  NAG d 902       6.475  -7.778  31.069  0.00  0.00    -0.349 OA
ATOM      7  O4  NAG d 902       3.770  -5.928  29.253  0.00  0.00    -0.390 OA
ATOM      8  C4  NAG d 902       4.348  -6.826  30.229  0.00  0.00     0.089 C 
ATOM      9  C1  NAG d 902       5.970  -9.181  30.939  0.00  0.00     0.151 C 
ATOM     10  C5  NAG d 902       5.859  -6.828  30.072  0.00  0.00     0.089 C 
ATOM     11  C7  NAG d 902       2.953 -11.043  31.987  0.00  0.00     0.214 C 
ATOM     12  N2  NAG d 902       3.850 -10.583  30.970  0.00  0.00    -0.349 N 
ATOM     13  C6  NAG d 902       6.416  -5.416  30.249  0.00  0.00     0.043 C 
ATOM     14  O3  NAG d 902       2.379  -8.323  30.224  0.00  0.00    -0.348 OA
ATOM     15  C2  NAG d 902       4.447  -9.194  31.120  0.00  0.00     0.087 C 
ATOM     16  H   NAG d 902       1.717 -12.706  32.470  0.00  0.00     0.040 H 
ATOM     17  H   NAG d 902       3.173 -13.123  31.600  0.00  0.00     0.040 H 
ATOM     18  H   NAG d 902       1.836 -12.375  30.760  0.00  0.00     0.040 H 
ATOM     19  H   NAG d 902       6.534  -3.948  31.600  0.00  0.00     0.209 HD
ATOM     20  H   NAG d 902       4.082  -8.605  29.083  0.00  0.00     0.091 H 
ATOM     21  H   NAG d 902       7.543 -10.027  31.771  0.00  0.00     0.212 HD
ATOM     22  H   NAG d 902       2.805  -5.924  29.350  0.00  0.00     0.210 HD
ATOM     23  H   NAG d 902       4.069  -6.480  31.202  0.00  0.00     0.091 H 
ATOM     24  H   NAG d 902       6.223  -9.541  29.965  0.00  0.00     0.132 H 
ATOM     25  H   NAG d 902       6.107  -7.160  29.085  0.00  0.00     0.090 H 
ATOM     26  H   NAG d 902       4.073 -11.149  30.196  0.00  0.00     0.163 HD
ATOM     27  H   NAG d 902       7.475  -5.451  30.102  0.00  0.00     0.078 H 
ATOM     28  H   NAG d 902       5.923  -4.794  29.531  0.00  0.00     0.078 H 
ATOM     29  H   NAG d 902       4.238  -8.858  32.115  0.00  0.00     0.084 H 
ATOM     30  O6A GCD d 901       1.304  -8.541  24.442  0.00  0.00    -0.642 OA
ATOM     31  O5  GCD d 901       1.770  -7.908  28.014  0.00  0.00    -0.311 OA
ATOM     32  C1  GCD d 901       1.563  -8.833  29.190  0.00  0.00     0.165 C 
ATOM     33  C5  GCD d 901       0.969  -8.227  26.780  0.00  0.00     0.147 C 
ATOM     34  C2  GCD d 901       0.109  -8.796  29.544  0.00  0.00     0.111 C 
ATOM     35  O6B GCD d 901       2.036  -6.606  25.531  0.00  0.00    -0.642 OA
ATOM     36  C6  GCD d 901       1.571  -7.802  25.464  0.00  0.00     0.233 C 
ATOM     37  C3  GCD d 901      -0.645  -9.380  28.297  0.00  0.00     0.084 C 
ATOM     38  O3  GCD d 901      -2.032  -9.328  28.581  0.00  0.00    -0.389 OA
ATOM     39  O2  GCD d 901      -0.178  -9.590  30.740  0.00  0.00    -0.388 OA
ATOM     40  C4  GCD d 901      -0.120  -9.015  26.894  0.00  0.00    -0.034 C 
ATOM     41  H   GCD d 901       1.826  -9.852  28.996  0.00  0.00     0.134 H 
ATOM     42  H   GCD d 901      -0.204  -7.799  29.771  0.00  0.00     0.095 H 
ATOM     43  H   GCD d 901      -0.393 -10.411  28.163  0.00  0.00     0.093 H 
ATOM     44  H   GCD d 901      -2.301  -8.406  28.710  0.00  0.00     0.210 HD
ATOM     45  H   GCD d 901       0.088 -10.510  30.589  0.00  0.00     0.210 HD
ATOM     46  H   GCD d 901      -0.597  -9.371  26.051  0.00  0.00     0.085 H 
ENDROOT
TORSDOF 11
ENDMDL
MODEL 78
REMARK VINA RESULT:      -6.6      4.624      8.233
REMARK  0 active torsions:
REMARK  status: ('A' for Active; 'I' for Inactive)
REMARK       I    between atoms: C8_1  and  C7_18 
REMARK       I    between atoms: O6_4  and  C6_20 
REMARK       I    between atoms: C3_6  and  O3_22 
REMARK       I    between atoms: O1_7  and  C1_15 
REMARK       I    between atoms: O4_9  and  C4_11 
REMARK       I    between atoms: C1_10  and  O3_22 
REMARK       I    between atoms: C5_12  and  C6_17 
REMARK       I    between atoms: C2_13  and  O2_25 
REMARK       I    between atoms: C5_16  and  C6_20 
REMARK       I    between atoms: C7_18  and  N2_19 
REMARK       I    between atoms: N2_19  and  C2_23 
REMARK       I    between atoms: C3_21  and  O3_24 
ROOT
ATOM      1  C8  NAG d 902      -1.605  -5.423  27.895  0.00  0.00    -0.003 C 
ATOM      2  O6  NAG d 902       0.889 -13.510  27.950  0.00  0.00    -0.398 OA
ATOM      3  O7  NAG d 902      -2.125  -7.580  28.917  0.00  0.00    -0.274 OA
ATOM      4  C3  NAG d 902       1.253  -9.112  28.052  0.00  0.00     0.093 C 
ATOM      5  O1  NAG d 902      -1.352  -9.542  25.383  0.00  0.00    -0.369 OA
ATOM      6  O5  NAG d 902       0.244 -11.127  26.254  0.00  0.00    -0.349 OA
ATOM      7  O4  NAG d 902       2.863 -10.798  28.912  0.00  0.00    -0.390 OA
ATOM      8  C4  NAG d 902       1.576 -10.613  28.277  0.00  0.00     0.089 C 
ATOM      9  C1  NAG d 902      -0.096  -9.686  26.036  0.00  0.00     0.151 C 
ATOM     10  C5  NAG d 902       1.572 -11.329  26.939  0.00  0.00     0.089 C 
ATOM     11  C7  NAG d 902      -1.447  -6.919  28.083  0.00  0.00     0.214 C 
ATOM     12  N2  NAG d 902      -0.426  -7.475  27.248  0.00  0.00    -0.349 N 
ATOM     13  C6  NAG d 902       1.866 -12.817  27.128  0.00  0.00     0.043 C 
ATOM     14  O3  NAG d 902       1.230  -8.391  29.309  0.00  0.00    -0.348 OA
ATOM     15  C2  NAG d 902      -0.120  -8.957  27.386  0.00  0.00     0.087 C 
ATOM     16  H   NAG d 902      -2.378  -5.061  28.540  0.00  0.00     0.040 H 
ATOM     17  H   NAG d 902      -1.865  -5.218  26.877  0.00  0.00     0.040 H 
ATOM     18  H   NAG d 902      -0.684  -4.934  28.133  0.00  0.00     0.040 H 
ATOM     19  H   NAG d 902       1.136 -14.445  28.027  0.00  0.00     0.209 HD
ATOM     20  H   NAG d 902       2.018  -8.709  27.422  0.00  0.00     0.091 H 
ATOM     21  H   NAG d 902      -1.329 -10.006  24.532  0.00  0.00     0.212 HD
ATOM     22  H   NAG d 902       2.870 -10.341  29.768  0.00  0.00     0.210 HD
ATOM     23  H   NAG d 902       0.827 -11.018  28.926  0.00  0.00     0.091 H 
ATOM     24  H   NAG d 902       0.651  -9.255  25.404  0.00  0.00     0.132 H 
ATOM     25  H   NAG d 902       2.342 -10.916  26.320  0.00  0.00     0.090 H 
ATOM     26  H   NAG d 902       0.064  -6.914  26.603  0.00  0.00     0.163 HD
ATOM     27  H   NAG d 902       1.886 -13.282  26.164  0.00  0.00     0.078 H 
ATOM     28  H   NAG d 902       2.805 -12.886  27.636  0.00  0.00     0.078 H 
ATOM     29  H   NAG d 902      -0.898  -9.395  27.974  0.00  0.00     0.084 H 
ATOM     30  O6A GCD d 901       6.614  -6.118  28.613  0.00  0.00    -0.642 OA
ATOM     31  O5  GCD d 901       3.488  -7.832  29.432  0.00  0.00    -0.311 OA
ATOM     32  C1  GCD d 901       2.083  -7.284  29.512  0.00  0.00     0.165 C 
ATOM     33  C5  GCD d 901       4.594  -6.835  29.654  0.00  0.00     0.147 C 
ATOM     34  C2  GCD d 901       1.911  -6.677  30.870  0.00  0.00     0.111 C 
ATOM     35  O6B GCD d 901       6.236  -8.368  29.123  0.00  0.00    -0.642 OA
ATOM     36  C6  GCD d 901       5.909  -7.134  28.978  0.00  0.00     0.233 C 
ATOM     37  C3  GCD d 901       2.928  -5.484  30.933  0.00  0.00     0.084 C 
ATOM     38  O3  GCD d 901       2.820  -4.905  32.221  0.00  0.00    -0.389 OA
ATOM     39  O2  GCD d 901       0.543  -6.202  31.083  0.00  0.00    -0.388 OA
ATOM     40  C4  GCD d 901       4.309  -5.670  30.273  0.00  0.00    -0.034 C 
ATOM     41  H   GCD d 901       1.867  -6.527  28.788  0.00  0.00     0.134 H 
ATOM     42  H   GCD d 901       2.094  -7.400  31.638  0.00  0.00     0.095 H 
ATOM     43  H   GCD d 901       2.654  -4.728  30.227  0.00  0.00     0.093 H 
ATOM     44  H   GCD d 901       3.062  -5.561  32.892  0.00  0.00     0.210 HD
ATOM     45  H   GCD d 901       0.323  -5.539  30.409  0.00  0.00     0.210 HD
ATOM     46  H   GCD d 901       5.008  -4.912  30.304  0.00  0.00     0.085 H 
ENDROOT
TORSDOF 11
ENDMDL
