REMARK  0 active torsions:
REMARK  status: ('A' for Active; 'I' for Inactive)
REMARK       I    between atoms: C8_1  and  C7_18 
REMARK       I    between atoms: O6_4  and  C6_20 
REMARK       I    between atoms: C3_6  and  O3_22 
REMARK       I    between atoms: O1_7  and  C1_15 
REMARK       I    between atoms: O4_9  and  C4_11 
REMARK       I    between atoms: C1_10  and  O3_22 
REMARK       I    between atoms: C5_12  and  C6_17 
REMARK       I    between atoms: C2_13  and  O2_25 
REMARK       I    between atoms: C5_16  and  C6_20 
REMARK       I    between atoms: C7_18  and  N2_19 
REMARK       I    between atoms: N2_19  and  C2_23 
REMARK       I    between atoms: C3_21  and  O3_24 
ROOT
ATOM      1  C8  NAG d 902       6.237 -14.448  32.360  0.00  0.00    -0.003 C 
ATOM      2  O6  NAG d 902      10.291  -7.058  31.603  0.00  0.00    -0.398 OA
ATOM      3  O7  NAG d 902       7.026 -12.552  33.684  0.00  0.00    -0.274 OA
ATOM      4  C3  NAG d 902       7.386 -10.249  30.673  0.00  0.00     0.093 C 
ATOM      5  O1  NAG d 902      10.452 -12.282  31.421  0.00  0.00    -0.369 OA
ATOM      6  O5  NAG d 902      10.249  -9.952  30.833  0.00  0.00    -0.349 OA
ATOM      7  O4  NAG d 902       7.248  -7.839  30.083  0.00  0.00    -0.390 OA
ATOM      8  C4  NAG d 902       8.036  -8.843  30.765  0.00  0.00     0.089 C 
ATOM      9  C1  NAG d 902       9.637 -11.316  30.768  0.00  0.00     0.151 C 
ATOM     10  C5  NAG d 902       9.422  -8.894  30.147  0.00  0.00     0.089 C 
ATOM     11  C7  NAG d 902       6.968 -13.136  32.567  0.00  0.00     0.214 C 
ATOM     12  N2  NAG d 902       7.539 -12.626  31.357  0.00  0.00    -0.349 N 
ATOM     13  C6  NAG d 902      10.100  -7.527  30.241  0.00  0.00     0.043 C 
ATOM     14  O3  NAG d 902       6.065 -10.250  31.267  0.00  0.00    -0.348 OA
ATOM     15  C2  NAG d 902       8.245 -11.282  31.412  0.00  0.00     0.087 C 
ATOM     16  H   NAG d 902       5.832 -14.782  33.292  0.00  0.00     0.040 H 
ATOM     17  H   NAG d 902       6.920 -15.181  31.985  0.00  0.00     0.040 H 
ATOM     18  H   NAG d 902       5.443 -14.307  31.657  0.00  0.00     0.040 H 
ATOM     19  H   NAG d 902      10.724  -6.190  31.588  0.00  0.00     0.209 HD
ATOM     20  H   NAG d 902       7.313 -10.502  29.636  0.00  0.00     0.091 H 
ATOM     21  H   NAG d 902      11.329 -12.297  31.008  0.00  0.00     0.212 HD
ATOM     22  H   NAG d 902       6.361  -7.803  30.475  0.00  0.00     0.210 HD
ATOM     23  H   NAG d 902       8.092  -8.572  31.799  0.00  0.00     0.091 H 
ATOM     24  H   NAG d 902       9.554 -11.600  29.740  0.00  0.00     0.132 H 
ATOM     25  H   NAG d 902       9.333  -9.148  29.111  0.00  0.00     0.090 H 
ATOM     26  H   NAG d 902       7.476 -13.131  30.514  0.00  0.00     0.163 HD
ATOM     27  H   NAG d 902      11.058  -7.593  29.770  0.00  0.00     0.078 H 
ATOM     28  H   NAG d 902       9.453  -6.825  29.758  0.00  0.00     0.078 H 
ATOM     29  H   NAG d 902       8.374 -11.026  32.443  0.00  0.00     0.084 H 
ATOM     30  O6A GCD d 901       3.258  -9.915  26.105  0.00  0.00    -0.642 OA
ATOM     31  O5  GCD d 901       4.837  -9.618  29.391  0.00  0.00    -0.311 OA
ATOM     32  C1  GCD d 901       4.939 -10.633  30.504  0.00  0.00     0.165 C 
ATOM     33  C5  GCD d 901       3.677  -9.794  28.447  0.00  0.00     0.147 C 
ATOM     34  C2  GCD d 901       3.669 -10.567  31.294  0.00  0.00     0.111 C 
ATOM     35  O6B GCD d 901       4.416  -8.115  27.046  0.00  0.00    -0.642 OA
ATOM     36  C6  GCD d 901       3.874  -9.280  27.043  0.00  0.00     0.233 C 
ATOM     37  C3  GCD d 901       2.532 -11.007  30.306  0.00  0.00     0.084 C 
ATOM     38  O3  GCD d 901       1.306 -10.923  31.009  0.00  0.00    -0.389 OA
ATOM     39  O2  GCD d 901       3.710 -11.450  32.461  0.00  0.00    -0.388 OA
ATOM     40  C4  GCD d 901       2.625 -10.543  28.838  0.00  0.00    -0.034 C 
ATOM     41  H   GCD d 901       5.061 -11.641  30.167  0.00  0.00     0.134 H 
ATOM     42  H   GCD d 901       3.508  -9.581  31.677  0.00  0.00     0.095 H 
ATOM     43  H   GCD d 901       2.662 -12.032  30.027  0.00  0.00     0.093 H 
ATOM     44  H   GCD d 901       1.151 -10.005  31.280  0.00  0.00     0.210 HD
ATOM     45  H   GCD d 901       3.855 -12.364  32.170  0.00  0.00     0.210 HD
ATOM     46  H   GCD d 901       1.890 -10.803  28.162  0.00  0.00     0.085 H 
ENDROOT
TORSDOF 11
