MODEL 1
REMARK VINA RESULT:     -23.4      0.000      0.000
REMARK  0 active torsions:
REMARK  status: ('A' for Active; 'I' for Inactive)
REMARK       I    between atoms: C4_1  and  O4_83 
REMARK       I    between atoms: C6_2  and  C5_22 
REMARK       I    between atoms: C6_2  and  O6_14 
REMARK       I    between atoms: O4_3  and  C1_95 
REMARK       I    between atoms: O4_3  and  C4_54 
REMARK       I    between atoms: S1_4  and  N_89 
REMARK       I    between atoms: S1_4  and  O1S_71 
REMARK       I    between atoms: S1_4  and  O2S_90 
REMARK       I    between atoms: S1_4  and  O3S_60 
REMARK       I    between atoms: C5_8  and  C6_82 
REMARK       I    between atoms: C5_12  and  C6_85 
REMARK       I    between atoms: O2S_13  and  S1_32 
REMARK       I    between atoms: O6_14  and  S2_86 
REMARK       I    between atoms: O3_15  and  C3_49 
REMARK       I    between atoms: S_16  and  O2_57 
REMARK       I    between atoms: C2_17  and  N_89 
REMARK       I    between atoms: CH3_19  and  C_65 
REMARK       I    between atoms: O4_20  and  C1_92 
REMARK       I    between atoms: O4_20  and  C4_50 
REMARK       I    between atoms: O3S_21  and  S1_32 
REMARK       I    between atoms: O1S_23  and  S1_32 
REMARK       I    between atoms: C5_24  and  C6_41 
REMARK       I    between atoms: O4_26  and  C4_70 
REMARK       I    between atoms: C1_27  and  O4_83 
REMARK       I    between atoms: C6_30  and  C5_81 
REMARK       I    between atoms: S1_32  and  N_56 
REMARK       I    between atoms: C2_33  and  O2_57 
REMARK       I    between atoms: C2_34  and  N_64 
REMARK       I    between atoms: C3_35  and  O3_58 
REMARK       I    between atoms: C3_38  and  O3_87 
REMARK       I    between atoms: S2_39  and  O6_40 
REMARK       I    between atoms: O6_40  and  C6_82 
REMARK       I    between atoms: O3_42  and  C3_63 
REMARK       I    between atoms: C4_43  and  O4_84 
REMARK       I    between atoms: C5_44  and  C6_72 
REMARK       I    between atoms: O3_45  and  C3_47 
REMARK       I    between atoms: C2_46  and  O2_80 
REMARK       I    between atoms: O4_48  and  C1_73 
REMARK       I    between atoms: O4_48  and  C4_67 
REMARK       I    between atoms: O2_51  and  C2_68 
REMARK       I    between atoms: O6_52  and  C6_85 
REMARK       I    between atoms: O6_52  and  S_76 
REMARK       I    between atoms: C2_53  and  N_56 
REMARK       I    between atoms: C1_59  and  O4_84 
REMARK       I    between atoms: N_64  and  C_65 
REMARK       I    between atoms: C3_69  and  O3_78 
ROOT
ATOM      1  C4  BDP d   2      18.411  10.781  47.036  0.00  0.00     0.103 C 
ATOM      2  C5  BDP d   2      17.570  10.476  45.817  0.00  0.00     0.152 C 
ATOM      3  C2  BDP d   2      16.257  11.011  48.214  0.00  0.00     0.110 C 
ATOM      4  O5  BDP d   2      16.337   9.918  46.163  0.00  0.00    -0.340 OA
ATOM      5  C3  BDP d   2      17.620  11.577  48.019  0.00  0.00     0.092 C 
ATOM      6  C6  BDP d   2      18.271   9.594  44.829  0.00  0.00     0.206 C 
ATOM      7  O6A BDP d   2      18.544  10.035  43.685  0.00  0.00    -0.646 OA
ATOM      8  O3  BDP d   2      18.255  11.579  49.247  0.00  0.00    -0.390 OA
ATOM      9  O2  BDP d   2      15.535  11.881  49.017  0.00  0.00    -0.388 OA
ATOM     10  O4  BDP d   2      19.516  11.522  46.616  0.00  0.00    -0.348 OA
ATOM     11  O6B BDP d   2      18.572   8.409  45.128  0.00  0.00    -0.646 OA
ATOM     12  C1  BDP d   2      15.571  10.809  46.898  0.00  0.00     0.160 C 
ATOM     13  H   BDP d   2      18.722   9.872  47.508  0.00  0.00     0.092 H 
ATOM     14  H   BDP d   2      17.399  11.420  45.344  0.00  0.00     0.104 H 
ATOM     15  H   BDP d   2      16.327  10.053  48.686  0.00  0.00     0.094 H 
ATOM     16  H   BDP d   2      17.540  12.569  47.627  0.00  0.00     0.091 H 
ATOM     17  H   BDP d   2      18.316  10.669  49.582  0.00  0.00     0.210 HD
ATOM     18  H   BDP d   2      15.476  12.747  48.584  0.00  0.00     0.210 HD
ATOM     19  H   BDP d   2      15.490  11.723  46.347  0.00  0.00     0.133 H 
ATOM     20  C6  SGN d   3      13.247  13.133  46.582  0.00  0.00     0.067 C 
ATOM     21  S1  SGN d   3       9.567   8.553  43.364  0.00  0.00     0.156 S 
ATOM     22  O4S SGN d   3      15.365  14.902  44.040  0.00  0.00    -0.572 OA
ATOM     23  O6S SGN d   3      15.912  14.496  46.361  0.00  0.00    -0.572 OA
ATOM     24  O6  SGN d   3      13.933  13.456  45.393  0.00  0.00    -0.254 OA
ATOM     25  O3  SGN d   3      13.200   8.373  45.300  0.00  0.00    -0.391 OA
ATOM     26  C2  SGN d   3      11.309   9.788  44.855  0.00  0.00     0.081 C 
ATOM     27  O5  SGN d   3      11.455  12.090  45.423  0.00  0.00    -0.349 OA
ATOM     28  O4  SGN d   3      14.215  10.359  47.108  0.00  0.00    -0.348 OA
ATOM     29  C5  SGN d   3      12.445  11.850  46.405  0.00  0.00     0.091 C 
ATOM     30  C3  SGN d   3      12.442   9.449  45.819  0.00  0.00     0.083 C 
ATOM     31  C4  SGN d   3      13.334  10.661  46.036  0.00  0.00     0.095 C 
ATOM     32  O3S SGN d   3       8.872   7.270  43.439  0.00  0.00    -0.296 OA
ATOM     33  O1S SGN d   3       8.654   9.682  43.343  0.00  0.00    -0.296 OA
ATOM     34  C1  SGN d   3      10.530  11.026  45.308  0.00  0.00     0.150 C 
ATOM     35  O5S SGN d   3      13.998  15.831  45.821  0.00  0.00    -0.572 OA
ATOM     36  S2  SGN d   3      14.849  14.731  45.392  0.00  0.00     0.251 S 
ATOM     37  N   SGN d   3      10.437   8.638  44.701  0.00  0.00    -0.210 NA
ATOM     38  O2S SGN d   3      10.483   8.617  42.230  0.00  0.00    -0.296 OA
ATOM     39  H   SGN d   3      13.957  12.999  47.371  0.00  0.00     0.080 H 
ATOM     40  H   SGN d   3      12.576  13.931  46.822  0.00  0.00     0.080 H 
ATOM     41  H   SGN d   3      12.622   7.606  45.165  0.00  0.00     0.210 HD
ATOM     42  H   SGN d   3      11.735  10.027  43.903  0.00  0.00     0.076 H 
ATOM     43  H   SGN d   3      11.983  11.585  47.332  0.00  0.00     0.090 H 
ATOM     44  H   SGN d   3      12.024   9.163  46.762  0.00  0.00     0.089 H 
ATOM     45  H   SGN d   3      13.897  10.900  45.158  0.00  0.00     0.091 H 
ATOM     46  H   SGN d   3       8.276   7.270  44.204  0.00  0.00     0.231 HD
ATOM     47  H   SGN d   3       9.160  10.507  43.294  0.00  0.00     0.231 HD
ATOM     48  H   SGN d   3       9.781  11.279  44.587  0.00  0.00     0.131 H 
ATOM     49  H   SGN d   3      11.021   7.802  44.739  0.00  0.00     0.140 HD
ATOM     50  H   SGN d   3      10.922   9.482  42.217  0.00  0.00     0.231 HD
ATOM     51  O4  SGN d   5       6.194  12.784  48.711  0.00  0.00    -0.348 OA
ATOM     52  C5  SGN d   5       4.266  13.020  50.187  0.00  0.00     0.091 C 
ATOM     53  O2S SGN d   5       5.320  16.491  54.442  0.00  0.00    -0.296 OA
ATOM     54  O3S SGN d   5       7.458  15.327  54.448  0.00  0.00    -0.296 OA
ATOM     55  O1S SGN d   5       7.309  17.642  53.739  0.00  0.00    -0.296 OA
ATOM     56  O4S SGN d   5       1.416  10.173  51.055  0.00  0.00    -0.572 OA
ATOM     57  S1  SGN d   5       6.632  16.351  53.816  0.00  0.00     0.156 S 
ATOM     58  C3  SGN d   5       6.449  14.108  50.668  0.00  0.00     0.083 C 
ATOM     59  S2  SGN d   5       2.660   9.555  50.599  0.00  0.00     0.251 S 
ATOM     60  O6  SGN d   5       3.731  10.692  50.510  0.00  0.00    -0.254 OA
ATOM     61  C2  SGN d   5       5.878  14.516  52.028  0.00  0.00     0.081 C 
ATOM     62  C4  SGN d   5       5.782  12.873  50.070  0.00  0.00     0.095 C 
ATOM     63  N   SGN d   5       6.384  15.844  52.321  0.00  0.00    -0.210 NA
ATOM     64  C1  SGN d   5       4.349  14.511  52.020  0.00  0.00     0.150 C 
ATOM     65  O6S SGN d   5       3.160   8.569  51.548  0.00  0.00    -0.572 OA
ATOM     66  O5  SGN d   5       3.884  13.266  51.537  0.00  0.00    -0.349 OA
ATOM     67  C6  SGN d   5       3.522  11.797  49.658  0.00  0.00     0.067 C 
ATOM     68  O3  SGN d   5       7.834  13.891  50.791  0.00  0.00    -0.391 OA
ATOM     69  O5S SGN d   5       2.515   8.961  49.275  0.00  0.00    -0.572 OA
ATOM     70  H   SGN d   5       3.991  13.857  49.580  0.00  0.00     0.090 H 
ATOM     71  H   SGN d   5       5.429  16.799  55.356  0.00  0.00     0.231 HD
ATOM     72  H   SGN d   5       7.642  15.582  55.366  0.00  0.00     0.231 HD
ATOM     73  H   SGN d   5       7.474  17.975  54.634  0.00  0.00     0.231 HD
ATOM     74  H   SGN d   5       6.247  14.914  49.993  0.00  0.00     0.089 H 
ATOM     75  H   SGN d   5       6.179  13.816  52.779  0.00  0.00     0.076 H 
ATOM     76  H   SGN d   5       6.065  11.980  50.585  0.00  0.00     0.091 H 
ATOM     77  H   SGN d   5       7.282  15.917  51.842  0.00  0.00     0.140 HD
ATOM     78  H   SGN d   5       3.957  14.626  53.009  0.00  0.00     0.131 H 
ATOM     79  H   SGN d   5       3.883  11.561  48.679  0.00  0.00     0.080 H 
ATOM     80  H   SGN d   5       2.476  12.015  49.622  0.00  0.00     0.080 H 
ATOM     81  H   SGN d   5       7.993  13.158  51.405  0.00  0.00     0.210 HD
ATOM     82  O8  NGY d   1      23.867   7.044  47.165  0.00  0.00    -0.572 OA
ATOM     83  C5  NGY d   1      22.079  10.476  45.932  0.00  0.00     0.090 C 
ATOM     84  CH3 NGY d   1      19.925  16.019  48.748  0.00  0.00    -0.003 C 
ATOM     85  O5  NGY d   1      21.529  10.404  47.195  0.00  0.00    -0.349 OA
ATOM     86  O4  NGY d   1      23.427  11.834  44.562  0.00  0.00    -0.390 OA
ATOM     87  C1  NGY d   1      20.658  11.432  47.500  0.00  0.00     0.154 C 
ATOM     88  C2  NGY d   1      21.403  12.724  47.443  0.00  0.00     0.087 C 
ATOM     89  C3  NGY d   1      21.983  12.874  46.081  0.00  0.00     0.086 C 
ATOM     90  O9  NGY d   1      25.953   8.207  47.410  0.00  0.00    -0.572 OA
ATOM     91  O6  NGY d   1      24.072   9.241  46.378  0.00  0.00    -0.254 OA
ATOM     92  O7  NGY d   1      25.266   7.476  45.279  0.00  0.00    -0.572 OA
ATOM     93  O3  NGY d   1      22.675  14.062  45.983  0.00  0.00    -0.391 OA
ATOM     94  O   NGY d   1      21.998  14.924  49.024  0.00  0.00    -0.274 OA
ATOM     95  N   NGY d   1      20.498  13.807  47.685  0.00  0.00    -0.349 N 
ATOM     96  C   NGY d   1      20.887  14.903  48.513  0.00  0.00     0.214 C 
ATOM     97  C4  NGY d   1      22.893  11.724  45.826  0.00  0.00     0.089 C 
ATOM     98  S   NGY d   1      24.816   7.973  46.553  0.00  0.00     0.251 S 
ATOM     99  C6  NGY d   1      22.903   9.259  45.642  0.00  0.00     0.067 C 
ATOM    100  H   NGY d   1      21.299  10.508  45.200  0.00  0.00     0.090 H 
ATOM    101  H   NGY d   1      20.375  16.750  49.387  0.00  0.00     0.040 H 
ATOM    102  H   NGY d   1      19.041  15.636  49.213  0.00  0.00     0.040 H 
ATOM    103  H   NGY d   1      19.668  16.471  47.813  0.00  0.00     0.040 H 
ATOM    104  H   NGY d   1      24.021  11.085  44.396  0.00  0.00     0.210 HD
ATOM    105  H   NGY d   1      20.274  11.226  48.478  0.00  0.00     0.132 H 
ATOM    106  H   NGY d   1      22.176  12.733  48.183  0.00  0.00     0.084 H 
ATOM    107  H   NGY d   1      21.200  12.887  45.351  0.00  0.00     0.090 H 
ATOM    108  H   NGY d   1      23.392  14.074  46.636  0.00  0.00     0.210 HD
ATOM    109  H   NGY d   1      19.602  13.795  47.277  0.00  0.00     0.163 HD
ATOM    110  H   NGY d   1      23.696  11.707  46.534  0.00  0.00     0.091 H 
ATOM    111  H   NGY d   1      23.149   9.248  44.601  0.00  0.00     0.080 H 
ATOM    112  H   NGY d   1      22.328   8.398  45.912  0.00  0.00     0.080 H 
ATOM    113  O1S IDS d   4       4.816  10.037  44.787  0.00  0.00    -0.572 OA
ATOM    114  O62 IDS d   4      10.258  10.425  49.533  0.00  0.00    -0.646 OA
ATOM    115  S   IDS d   4       5.220   9.433  46.032  0.00  0.00     0.252 S 
ATOM    116  O2S IDS d   4       5.424   7.987  45.876  0.00  0.00    -0.572 OA
ATOM    117  C6  IDS d   4      10.081  11.601  49.116  0.00  0.00     0.206 C 
ATOM    118  C2  IDS d   4       6.579  11.320  46.831  0.00  0.00     0.134 C 
ATOM    119  O3  IDS d   4       7.427  13.346  46.034  0.00  0.00    -0.390 OA
ATOM    120  C3  IDS d   4       7.751  12.009  46.167  0.00  0.00     0.094 C 
ATOM    121  O4  IDS d   4       9.796  10.787  46.537  0.00  0.00    -0.348 OA
ATOM    122  O2  IDS d   4       6.517   9.988  46.464  0.00  0.00    -0.244 OA
ATOM    123  C4  IDS d   4       9.054  11.911  46.910  0.00  0.00     0.103 C 
ATOM    124  C5  IDS d   4       8.817  11.952  48.396  0.00  0.00     0.152 C 
ATOM    125  O5  IDS d   4       7.843  11.061  48.785  0.00  0.00    -0.340 OA
ATOM    126  O3S IDS d   4       4.204   9.677  47.026  0.00  0.00    -0.572 OA
ATOM    127  C1  IDS d   4       6.608  11.450  48.323  0.00  0.00     0.161 C 
ATOM    128  O61 IDS d   4      10.972  12.470  49.297  0.00  0.00    -0.646 OA
ATOM    129  H   IDS d   4       5.696  11.817  46.487  0.00  0.00     0.097 H 
ATOM    130  H   IDS d   4       6.587  13.429  45.556  0.00  0.00     0.210 HD
ATOM    131  H   IDS d   4       7.911  11.512  45.233  0.00  0.00     0.091 H 
ATOM    132  H   IDS d   4       9.644  12.762  46.640  0.00  0.00     0.092 H 
ATOM    133  H   IDS d   4       8.497  12.944  48.639  0.00  0.00     0.104 H 
ATOM    134  H   IDS d   4       5.902  10.796  48.789  0.00  0.00     0.133 H 
ATOM    135  C1  BDP d   6       0.559  17.909  51.120  0.00  0.00     0.047 C 
ATOM    136  C5  BDP d   6       1.941  16.348  50.124  0.00  0.00     0.149 C 
ATOM    137  O6A BDP d   6       2.823  15.228  48.206  0.00  0.00    -0.646 OA
ATOM    138  O6B BDP d   6       1.033  14.375  49.117  0.00  0.00    -0.646 OA
ATOM    139  C6  BDP d   6       1.933  15.257  49.096  0.00  0.00     0.205 C 
ATOM    140  O3  BDP d   6       2.658  16.444  53.714  0.00  0.00    -0.390 OA
ATOM    141  C4  BDP d   6       2.536  15.899  51.433  0.00  0.00     0.103 C 
ATOM    142  O2  BDP d   6       1.016  18.682  53.269  0.00  0.00    -0.391 OA
ATOM    143  C3  BDP d   6       2.395  16.969  52.464  0.00  0.00     0.090 C 
ATOM    144  C2  BDP d   6       1.020  17.542  52.488  0.00  0.00     0.083 C 
ATOM    145  O5  BDP d   6       0.639  16.792  50.315  0.00  0.00    -0.370 OA
ATOM    146  O4  BDP d   6       3.882  15.633  51.236  0.00  0.00    -0.348 OA
ATOM    147  H   BDP d   6       1.181  18.684  50.725  0.00  0.00     0.078 H 
ATOM    148  H   BDP d   6      -0.451  18.261  51.157  0.00  0.00     0.078 H 
ATOM    149  H   BDP d   6       2.558  17.143  49.761  0.00  0.00     0.104 H 
ATOM    150  H   BDP d   6       3.550  16.064  53.723  0.00  0.00     0.210 HD
ATOM    151  H   BDP d   6       2.024  15.023  51.775  0.00  0.00     0.092 H 
ATOM    152  H   BDP d   6       0.122  19.058  53.287  0.00  0.00     0.210 HD
ATOM    153  H   BDP d   6       3.088  17.745  52.213  0.00  0.00     0.091 H 
ATOM    154  H   BDP d   6       0.360  16.800  52.887  0.00  0.00     0.090 H 
ENDROOT
TORSDOF 45
ENDMDL
MODEL 2
REMARK VINA RESULT:     -13.3      1.771      2.008
REMARK  0 active torsions:
REMARK  status: ('A' for Active; 'I' for Inactive)
REMARK       I    between atoms: C4_1  and  O4_83 
REMARK       I    between atoms: C6_2  and  C5_22 
REMARK       I    between atoms: C6_2  and  O6_14 
REMARK       I    between atoms: O4_3  and  C1_95 
REMARK       I    between atoms: O4_3  and  C4_54 
REMARK       I    between atoms: S1_4  and  N_89 
REMARK       I    between atoms: S1_4  and  O1S_71 
REMARK       I    between atoms: S1_4  and  O2S_90 
REMARK       I    between atoms: S1_4  and  O3S_60 
REMARK       I    between atoms: C5_8  and  C6_82 
REMARK       I    between atoms: C5_12  and  C6_85 
REMARK       I    between atoms: O2S_13  and  S1_32 
REMARK       I    between atoms: O6_14  and  S2_86 
REMARK       I    between atoms: O3_15  and  C3_49 
REMARK       I    between atoms: S_16  and  O2_57 
REMARK       I    between atoms: C2_17  and  N_89 
REMARK       I    between atoms: CH3_19  and  C_65 
REMARK       I    between atoms: O4_20  and  C1_92 
REMARK       I    between atoms: O4_20  and  C4_50 
REMARK       I    between atoms: O3S_21  and  S1_32 
REMARK       I    between atoms: O1S_23  and  S1_32 
REMARK       I    between atoms: C5_24  and  C6_41 
REMARK       I    between atoms: O4_26  and  C4_70 
REMARK       I    between atoms: C1_27  and  O4_83 
REMARK       I    between atoms: C6_30  and  C5_81 
REMARK       I    between atoms: S1_32  and  N_56 
REMARK       I    between atoms: C2_33  and  O2_57 
REMARK       I    between atoms: C2_34  and  N_64 
REMARK       I    between atoms: C3_35  and  O3_58 
REMARK       I    between atoms: C3_38  and  O3_87 
REMARK       I    between atoms: S2_39  and  O6_40 
REMARK       I    between atoms: O6_40  and  C6_82 
REMARK       I    between atoms: O3_42  and  C3_63 
REMARK       I    between atoms: C4_43  and  O4_84 
REMARK       I    between atoms: C5_44  and  C6_72 
REMARK       I    between atoms: O3_45  and  C3_47 
REMARK       I    between atoms: C2_46  and  O2_80 
REMARK       I    between atoms: O4_48  and  C1_73 
REMARK       I    between atoms: O4_48  and  C4_67 
REMARK       I    between atoms: O2_51  and  C2_68 
REMARK       I    between atoms: O6_52  and  C6_85 
REMARK       I    between atoms: O6_52  and  S_76 
REMARK       I    between atoms: C2_53  and  N_56 
REMARK       I    between atoms: C1_59  and  O4_84 
REMARK       I    between atoms: N_64  and  C_65 
REMARK       I    between atoms: C3_69  and  O3_78 
ROOT
ATOM      1  C4  BDP d   2      17.747  12.729  46.231  0.00  0.00     0.103 C 
ATOM      2  C5  BDP d   2      16.953  12.096  45.110  0.00  0.00     0.152 C 
ATOM      3  C2  BDP d   2      15.577  12.923  47.385  0.00  0.00     0.110 C 
ATOM      4  O5  BDP d   2      15.795  11.472  45.581  0.00  0.00    -0.340 OA
ATOM      5  C3  BDP d   2      16.862  13.600  47.058  0.00  0.00     0.092 C 
ATOM      6  C6  BDP d   2      17.759  11.130  44.296  0.00  0.00     0.206 C 
ATOM      7  O6A BDP d   2      17.981  11.371  43.083  0.00  0.00    -0.646 OA
ATOM      8  O3  BDP d   2      17.487  13.914  48.251  0.00  0.00    -0.390 OA
ATOM      9  O2  BDP d   2      14.752  13.840  48.021  0.00  0.00    -0.388 OA
ATOM     10  O4  BDP d   2      18.755  13.501  45.655  0.00  0.00    -0.348 OA
ATOM     11  O6B BDP d   2      18.200  10.070  44.812  0.00  0.00    -0.646 OA
ATOM     12  C1  BDP d   2      14.924  12.391  46.146  0.00  0.00     0.160 C 
ATOM     13  H   BDP d   2      18.163  11.972  46.862  0.00  0.00     0.092 H 
ATOM     14  H   BDP d   2      16.671  12.903  44.468  0.00  0.00     0.104 H 
ATOM     15  H   BDP d   2      15.760  12.091  48.031  0.00  0.00     0.094 H 
ATOM     16  H   BDP d   2      16.664  14.481  46.485  0.00  0.00     0.091 H 
ATOM     17  H   BDP d   2      17.656  13.100  48.752  0.00  0.00     0.210 HD
ATOM     18  H   BDP d   2      14.589  14.593  47.430  0.00  0.00     0.210 HD
ATOM     19  H   BDP d   2      14.736  13.165  45.432  0.00  0.00     0.133 H 
ATOM     20  C6  SGN d   3      12.338  14.317  45.436  0.00  0.00     0.067 C 
ATOM     21  S1  SGN d   3       9.249   8.797  43.231  0.00  0.00     0.156 S 
ATOM     22  O4S SGN d   3      14.236  15.801  42.560  0.00  0.00    -0.572 OA
ATOM     23  O6S SGN d   3      14.819  15.919  44.905  0.00  0.00    -0.572 OA
ATOM     24  O6  SGN d   3      12.984  14.484  44.193  0.00  0.00    -0.254 OA
ATOM     25  O3  SGN d   3      12.870   9.428  45.093  0.00  0.00    -0.391 OA
ATOM     26  C2  SGN d   3      10.825  10.495  44.421  0.00  0.00     0.081 C 
ATOM     27  O5  SGN d   3      10.689  12.863  44.534  0.00  0.00    -0.349 OA
ATOM     28  O4  SGN d   3      13.632  11.831  46.465  0.00  0.00    -0.348 OA
ATOM     29  C5  SGN d   3      11.698  12.937  45.524  0.00  0.00     0.091 C 
ATOM     30  C3  SGN d   3      11.986  10.485  45.411  0.00  0.00     0.083 C 
ATOM     31  C4  SGN d   3      12.724  11.814  45.373  0.00  0.00     0.095 C 
ATOM     32  O3S SGN d   3       8.715   7.479  43.564  0.00  0.00    -0.296 OA
ATOM     33  O1S SGN d   3       8.207   9.783  43.011  0.00  0.00    -0.296 OA
ATOM     34  C1  SGN d   3       9.900  11.695  44.644  0.00  0.00     0.150 C 
ATOM     35  O5S SGN d   3      12.760  16.887  44.156  0.00  0.00    -0.572 OA
ATOM     36  S2  SGN d   3      13.740  15.834  43.929  0.00  0.00     0.251 S 
ATOM     37  N   SGN d   3      10.098   9.241  44.509  0.00  0.00    -0.210 NA
ATOM     38  O2S SGN d   3      10.155   8.749  42.087  0.00  0.00    -0.296 OA
ATOM     39  H   SGN d   3      13.056  14.423  46.222  0.00  0.00     0.080 H 
ATOM     40  H   SGN d   3      11.574  15.060  45.531  0.00  0.00     0.080 H 
ATOM     41  H   SGN d   3      12.390   8.585  45.120  0.00  0.00     0.210 HD
ATOM     42  H   SGN d   3      11.221  10.594  43.433  0.00  0.00     0.076 H 
ATOM     43  H   SGN d   3      11.268  12.803  46.494  0.00  0.00     0.090 H 
ATOM     44  H   SGN d   3      11.602  10.340  46.399  0.00  0.00     0.089 H 
ATOM     45  H   SGN d   3      13.258  11.945  44.455  0.00  0.00     0.091 H 
ATOM     46  H   SGN d   3       8.120   7.555  44.326  0.00  0.00     0.231 HD
ATOM     47  H   SGN d   3       8.610  10.637  42.795  0.00  0.00     0.231 HD
ATOM     48  H   SGN d   3       9.128  11.713  43.903  0.00  0.00     0.131 H 
ATOM     49  H   SGN d   3      10.779   8.504  44.695  0.00  0.00     0.140 HD
ATOM     50  H   SGN d   3      10.487   9.641  41.899  0.00  0.00     0.231 HD
ATOM     51  O4  SGN d   5       5.371  13.547  47.731  0.00  0.00    -0.348 OA
ATOM     52  C5  SGN d   5       3.423  13.832  49.171  0.00  0.00     0.091 C 
ATOM     53  O2S SGN d   5       4.035  18.160  52.659  0.00  0.00    -0.296 OA
ATOM     54  O3S SGN d   5       6.297  17.283  52.846  0.00  0.00    -0.296 OA
ATOM     55  O1S SGN d   5       5.873  19.382  51.709  0.00  0.00    -0.296 OA
ATOM     56  O4S SGN d   5       0.935  10.888  50.626  0.00  0.00    -0.572 OA
ATOM     57  S1  SGN d   5       5.356  18.060  52.046  0.00  0.00     0.156 S 
ATOM     58  C3  SGN d   5       5.457  15.245  49.391  0.00  0.00     0.083 C 
ATOM     59  S2  SGN d   5       2.246  10.346  50.273  0.00  0.00     0.251 S 
ATOM     60  O6  SGN d   5       3.172  11.564  49.946  0.00  0.00    -0.254 OA
ATOM     61  C2  SGN d   5       4.836  15.837  50.659  0.00  0.00     0.081 C 
ATOM     62  C4  SGN d   5       4.946  13.848  49.055  0.00  0.00     0.095 C 
ATOM     63  N   SGN d   5       5.177  17.247  50.680  0.00  0.00    -0.210 NA
ATOM     64  C1  SGN d   5       3.318  15.649  50.682  0.00  0.00     0.150 C 
ATOM     65  O6S SGN d   5       2.857   9.629  51.384  0.00  0.00    -0.572 OA
ATOM     66  O5  SGN d   5       3.009  14.288  50.457  0.00  0.00    -0.349 OA
ATOM     67  C6  SGN d   5       2.834  12.451  48.902  0.00  0.00     0.067 C 
ATOM     68  O3  SGN d   5       6.858  15.222  49.526  0.00  0.00    -0.391 OA
ATOM     69  O5S SGN d   5       2.178   9.495  49.091  0.00  0.00    -0.572 OA
ATOM     70  H   SGN d   5       3.052  14.498  48.421  0.00  0.00     0.090 H 
ATOM     71  H   SGN d   5       4.102  18.649  53.494  0.00  0.00     0.231 HD
ATOM     72  H   SGN d   5       6.446  17.730  53.694  0.00  0.00     0.231 HD
ATOM     73  H   SGN d   5       5.993  19.900  52.520  0.00  0.00     0.231 HD
ATOM     74  H   SGN d   5       5.161  15.876  48.579  0.00  0.00     0.089 H 
ATOM     75  H   SGN d   5       5.217  15.336  51.524  0.00  0.00     0.076 H 
ATOM     76  H   SGN d   5       5.333  13.111  49.727  0.00  0.00     0.091 H 
ATOM     77  H   SGN d   5       6.061  17.333  50.179  0.00  0.00     0.140 HD
ATOM     78  H   SGN d   5       2.912  15.905  51.638  0.00  0.00     0.131 H 
ATOM     79  H   SGN d   5       3.224  12.075  47.980  0.00  0.00     0.080 H 
ATOM     80  H   SGN d   5       1.769  12.531  48.845  0.00  0.00     0.080 H 
ATOM     81  H   SGN d   5       7.102  14.646  50.267  0.00  0.00     0.210 HD
ATOM     82  O8  NGY d   1      23.613   9.764  46.968  0.00  0.00    -0.572 OA
ATOM     83  C5  NGY d   1      21.429  12.655  45.134  0.00  0.00     0.090 C 
ATOM     84  CH3 NGY d   1      18.610  18.341  46.875  0.00  0.00    -0.003 C 
ATOM     85  O5  NGY d   1      20.887  12.764  46.398  0.00  0.00    -0.349 OA
ATOM     86  O4  NGY d   1      22.608  13.874  43.503  0.00  0.00    -0.390 OA
ATOM     87  C1  NGY d   1      19.896  13.720  46.517  0.00  0.00     0.154 C 
ATOM     88  C2  NGY d   1      20.480  15.057  46.198  0.00  0.00     0.087 C 
ATOM     89  C3  NGY d   1      21.043  15.009  44.821  0.00  0.00     0.086 C 
ATOM     90  O9  NGY d   1      25.543  11.193  46.944  0.00  0.00    -0.572 OA
ATOM     91  O6  NGY d   1      23.554  11.777  45.770  0.00  0.00    -0.254 OA
ATOM     92  O7  NGY d   1      24.957   9.987  45.007  0.00  0.00    -0.572 OA
ATOM     93  O3  NGY d   1      21.587  16.229  44.483  0.00  0.00    -0.391 OA
ATOM     94  O   NGY d   1      20.800  17.575  47.316  0.00  0.00    -0.274 OA
ATOM     95  N   NGY d   1      19.451  16.050  46.245  0.00  0.00    -0.349 N 
ATOM     96  C   NGY d   1      19.702  17.324  46.840  0.00  0.00     0.214 C 
ATOM     97  C4  NGY d   1      22.086  13.948  44.775  0.00  0.00     0.089 C 
ATOM     98  S   NGY d   1      24.445  10.664  46.170  0.00  0.00     0.251 S 
ATOM     99  C6  NGY d   1      22.394  11.513  45.067  0.00  0.00     0.067 C 
ATOM    100  H   NGY d   1      20.653  12.453  44.425  0.00  0.00     0.090 H 
ATOM    101  H   NGY d   1      18.967  19.230  47.352  0.00  0.00     0.040 H 
ATOM    102  H   NGY d   1      17.778  17.953  47.422  0.00  0.00     0.040 H 
ATOM    103  H   NGY d   1      18.305  18.570  45.876  0.00  0.00     0.040 H 
ATOM    104  H   NGY d   1      23.288  13.183  43.472  0.00  0.00     0.210 HD
ATOM    105  H   NGY d   1      19.537  13.663  47.524  0.00  0.00     0.132 H 
ATOM    106  H   NGY d   1      21.244  15.300  46.907  0.00  0.00     0.084 H 
ATOM    107  H   NGY d   1      20.267  14.787  44.118  0.00  0.00     0.090 H 
ATOM    108  H   NGY d   1      22.294  16.452  45.108  0.00  0.00     0.210 HD
ATOM    109  H   NGY d   1      18.564  15.853  45.865  0.00  0.00     0.163 HD
ATOM    110  H   NGY d   1      22.882  14.163  45.456  0.00  0.00     0.091 H 
ATOM    111  H   NGY d   1      22.643  11.330  44.043  0.00  0.00     0.080 H 
ATOM    112  H   NGY d   1      21.926  10.658  45.509  0.00  0.00     0.080 H 
ATOM    113  O1S IDS d   4       4.349   9.950  44.436  0.00  0.00    -0.572 OA
ATOM    114  O62 IDS d   4       9.686  11.893  48.910  0.00  0.00    -0.646 OA
ATOM    115  S   IDS d   4       4.818   9.651  45.764  0.00  0.00     0.252 S 
ATOM    116  O2S IDS d   4       5.196   8.236  45.885  0.00  0.00    -0.572 OA
ATOM    117  C6  IDS d   4       9.371  12.936  48.278  0.00  0.00     0.206 C 
ATOM    118  C2  IDS d   4       5.937  11.805  46.159  0.00  0.00     0.134 C 
ATOM    119  O3  IDS d   4       6.537  13.725  44.972  0.00  0.00    -0.390 OA
ATOM    120  C3  IDS d   4       7.020  12.487  45.352  0.00  0.00     0.094 C 
ATOM    121  O4  IDS d   4       9.196  11.612  45.910  0.00  0.00    -0.348 OA
ATOM    122  O2  IDS d   4       6.037  10.429  46.056  0.00  0.00    -0.244 OA
ATOM    123  C4  IDS d   4       8.322  12.690  46.075  0.00  0.00     0.103 C 
ATOM    124  C5  IDS d   4       8.077  12.989  47.529  0.00  0.00     0.152 C 
ATOM    125  O5  IDS d   4       7.216  12.081  48.102  0.00  0.00    -0.340 OA
ATOM    126  O3S IDS d   4       3.776   9.959  46.713  0.00  0.00    -0.572 OA
ATOM    127  C1  IDS d   4       5.944  12.223  47.598  0.00  0.00     0.161 C 
ATOM    128  O61 IDS d   4      10.150  13.924  48.272  0.00  0.00    -0.646 OA
ATOM    129  H   IDS d   4       5.002  12.117  45.744  0.00  0.00     0.097 H 
ATOM    130  H   IDS d   4       5.695  13.613  44.503  0.00  0.00     0.210 HD
ATOM    131  H   IDS d   4       7.241  11.841  44.528  0.00  0.00     0.091 H 
ATOM    132  H   IDS d   4       8.806  13.537  45.635  0.00  0.00     0.092 H 
ATOM    133  H   IDS d   4       7.638  13.963  47.584  0.00  0.00     0.104 H 
ATOM    134  H   IDS d   4       5.321  11.591  48.195  0.00  0.00     0.133 H 
ATOM    135  C1  BDP d   6      -0.851  18.333  49.221  0.00  0.00     0.047 C 
ATOM    136  C5  BDP d   6       0.714  16.785  48.516  0.00  0.00     0.149 C 
ATOM    137  O6A BDP d   6       1.731  15.429  46.832  0.00  0.00    -0.646 OA
ATOM    138  O6B BDP d   6       0.054  14.561  47.925  0.00  0.00    -0.646 OA
ATOM    139  C6  BDP d   6       0.841  15.522  47.717  0.00  0.00     0.205 C 
ATOM    140  O3  BDP d   6       1.400  17.657  52.006  0.00  0.00    -0.390 OA
ATOM    141  C4  BDP d   6       1.353  16.671  49.875  0.00  0.00     0.103 C 
ATOM    142  O2  BDP d   6      -0.498  19.554  51.172  0.00  0.00    -0.391 OA
ATOM    143  C3  BDP d   6       1.080  17.896  50.684  0.00  0.00     0.090 C 
ATOM    144  C2  BDP d   6      -0.354  18.294  50.624  0.00  0.00     0.083 C 
ATOM    145  O5  BDP d   6      -0.633  17.099  48.644  0.00  0.00    -0.370 OA
ATOM    146  O4  BDP d   6       2.723  16.534  49.706  0.00  0.00    -0.348 OA
ATOM    147  H   BDP d   6      -0.325  19.085  48.672  0.00  0.00     0.078 H 
ATOM    148  H   BDP d   6      -1.895  18.562  49.209  0.00  0.00     0.078 H 
ATOM    149  H   BDP d   6       1.232  17.563  47.995  0.00  0.00     0.104 H 
ATOM    150  H   BDP d   6       2.332  17.394  52.071  0.00  0.00     0.210 HD
ATOM    151  H   BDP d   6       0.950  15.823  50.388  0.00  0.00     0.092 H 
ATOM    152  H   BDP d   6      -1.431  19.818  51.135  0.00  0.00     0.210 HD
ATOM    153  H   BDP d   6       1.676  18.685  50.275  0.00  0.00     0.091 H 
ATOM    154  H   BDP d   6      -0.920  17.570  51.171  0.00  0.00     0.090 H 
ENDROOT
TORSDOF 45
ENDMDL
