MODEL 1
REMARK VINA RESULT:     -10.2      0.000      0.000
REMARK  0 active torsions:
REMARK  status: ('A' for Active; 'I' for Inactive)
REMARK       I    between atoms: C5_1  and  C6_18 
REMARK       I    between atoms: C5_2  and  C6_30 
REMARK       I    between atoms: O4_3  and  C4_14 
REMARK       I    between atoms: C2_4  and  O2_23 
REMARK       I    between atoms: C7_5  and  C8_27 
REMARK       I    between atoms: C7_5  and  N_24 
REMARK       I    between atoms: S_9  and  O6_13 
REMARK       I    between atoms: O1_12  and  C1_29 
REMARK       I    between atoms: O6_13  and  C6_18 
REMARK       I    between atoms: C3_15  and  O3_28 
REMARK       I    between atoms: C3_16  and  O3_20 
REMARK       I    between atoms: C2_19  and  N_24 
REMARK       I    between atoms: C1_26  and  O3_28 
ROOT
ATOM      1  C5  NG6 d 399      15.134  -2.998  30.307  0.00  0.00     0.090 C 
ATOM      2  O4  NG6 d 399      12.837  -2.266  30.346  0.00  0.00    -0.390 OA
ATOM      3  C7  NG6 d 399      14.349  -7.179  28.750  0.00  0.00     0.214 C 
ATOM      4  O3S NG6 d 399      17.523  -1.938  34.021  0.00  0.00    -0.572 OA
ATOM      5  O7  NG6 d 399      14.314  -8.251  28.148  0.00  0.00    -0.274 OA
ATOM      6  O1S NG6 d 399      15.737  -0.408  33.344  0.00  0.00    -0.572 OA
ATOM      7  S   NG6 d 399      16.996  -1.101  32.897  0.00  0.00     0.251 S 
ATOM      8  O5  NG6 d 399      14.872  -3.938  31.344  0.00  0.00    -0.349 OA
ATOM      9  O1  NG6 d 399      14.390  -6.114  31.924  0.00  0.00    -0.369 OA
ATOM     10  O6  NG6 d 399      16.713  -1.947  31.776  0.00  0.00    -0.254 OA
ATOM     11  C4  NG6 d 399      13.868  -2.783  29.495  0.00  0.00     0.089 C 
ATOM     12  C3  NG6 d 399      13.419  -4.105  28.870  0.00  0.00     0.093 C 
ATOM     13  C6  NG6 d 399      15.555  -1.709  30.986  0.00  0.00     0.067 C 
ATOM     14  C2  NG6 d 399      13.377  -5.246  29.900  0.00  0.00     0.087 C 
ATOM     15  O2S NG6 d 399      18.013  -0.057  32.508  0.00  0.00    -0.572 OA
ATOM     16  N   NG6 d 399      13.270  -6.537  29.192  0.00  0.00    -0.349 N 
ATOM     17  C8  NG6 d 399      15.687  -6.475  29.040  0.00  0.00    -0.003 C 
ATOM     18  O3  NG6 d 399      12.103  -3.936  28.355  0.00  0.00    -0.348 OA
ATOM     19  C1  NG6 d 399      14.619  -5.243  30.809  0.00  0.00     0.151 C 
ATOM     20  H   NG6 d 399      15.900  -3.341  29.644  0.00  0.00     0.090 H 
ATOM     21  H   NG6 d 399      13.131  -1.429  30.738  0.00  0.00     0.210 HD
ATOM     22  H   NG6 d 399      15.170  -6.115  32.499  0.00  0.00     0.212 HD
ATOM     23  H   NG6 d 399      14.063  -2.080  28.712  0.00  0.00     0.091 H 
ATOM     24  H   NG6 d 399      14.121  -4.362  28.105  0.00  0.00     0.091 H 
ATOM     25  H   NG6 d 399      14.760  -1.360  31.612  0.00  0.00     0.080 H 
ATOM     26  H   NG6 d 399      15.774  -0.969  30.243  0.00  0.00     0.080 H 
ATOM     27  H   NG6 d 399      12.522  -5.098  30.527  0.00  0.00     0.084 H 
ATOM     28  H   NG6 d 399      12.381  -6.932  29.044  0.00  0.00     0.163 HD
ATOM     29  H   NG6 d 399      15.502  -5.564  29.569  0.00  0.00     0.040 H 
ATOM     30  H   NG6 d 399      16.183  -6.258  28.117  0.00  0.00     0.040 H 
ATOM     31  H   NG6 d 399      16.304  -7.115  29.636  0.00  0.00     0.040 H 
ATOM     32  H   NG6 d 399      15.452  -5.561  30.218  0.00  0.00     0.132 H 
ATOM     33  C5  GCD d 400      11.476  -1.725  25.726  0.00  0.00     0.147 C 
ATOM     34  C2  GCD d 400      10.935  -4.342  26.343  0.00  0.00     0.111 C 
ATOM     35  O6A GCD d 400      11.987   0.460  26.460  0.00  0.00    -0.642 OA
ATOM     36  C3  GCD d 400      10.889  -4.020  24.854  0.00  0.00     0.084 C 
ATOM     37  O5  GCD d 400      12.138  -2.247  26.804  0.00  0.00    -0.311 OA
ATOM     38  O3  GCD d 400       9.677  -4.532  24.287  0.00  0.00    -0.389 OA
ATOM     39  O6B GCD d 400      10.832   0.259  24.592  0.00  0.00    -0.642 OA
ATOM     40  O2  GCD d 400      11.031  -5.749  26.533  0.00  0.00    -0.388 OA
ATOM     41  C4  GCD d 400      10.887  -2.506  24.740  0.00  0.00    -0.034 C 
ATOM     42  C1  GCD d 400      12.151  -3.675  26.960  0.00  0.00     0.165 C 
ATOM     43  C6  GCD d 400      11.416  -0.217  25.586  0.00  0.00     0.233 C 
ATOM     44  H   GCD d 400      10.042  -3.981  26.808  0.00  0.00     0.095 H 
ATOM     45  H   GCD d 400      11.719  -4.457  24.338  0.00  0.00     0.093 H 
ATOM     46  H   GCD d 400       8.916  -4.144  24.746  0.00  0.00     0.210 HD
ATOM     47  H   GCD d 400      11.840  -6.078  26.112  0.00  0.00     0.210 HD
ATOM     48  H   GCD d 400      10.445  -2.054  23.924  0.00  0.00     0.085 H 
ATOM     49  H   GCD d 400      13.025  -4.059  26.477  0.00  0.00     0.134 H 
ENDROOT
TORSDOF 12
ENDMDL
MODEL 2
REMARK VINA RESULT:      -9.7      3.292      6.192
REMARK  0 active torsions:
REMARK  status: ('A' for Active; 'I' for Inactive)
REMARK       I    between atoms: C5_1  and  C6_18 
REMARK       I    between atoms: C5_2  and  C6_30 
REMARK       I    between atoms: O4_3  and  C4_14 
REMARK       I    between atoms: C2_4  and  O2_23 
REMARK       I    between atoms: C7_5  and  C8_27 
REMARK       I    between atoms: C7_5  and  N_24 
REMARK       I    between atoms: S_9  and  O6_13 
REMARK       I    between atoms: O1_12  and  C1_29 
REMARK       I    between atoms: O6_13  and  C6_18 
REMARK       I    between atoms: C3_15  and  O3_28 
REMARK       I    between atoms: C3_16  and  O3_20 
REMARK       I    between atoms: C2_19  and  N_24 
REMARK       I    between atoms: C1_26  and  O3_28 
ROOT
ATOM      1  C5  NG6 d 399      11.646  -1.980  29.749  0.00  0.00     0.090 C 
ATOM      2  O4  NG6 d 399      13.116  -2.603  27.942  0.00  0.00    -0.390 OA
ATOM      3  C7  NG6 d 399       9.046  -5.688  29.641  0.00  0.00     0.214 C 
ATOM      4  O3S NG6 d 399      10.178   2.314  29.603  0.00  0.00    -0.572 OA
ATOM      5  O7  NG6 d 399       8.395  -6.708  29.865  0.00  0.00    -0.274 OA
ATOM      6  O1S NG6 d 399      12.403   1.844  28.699  0.00  0.00    -0.572 OA
ATOM      7  S   NG6 d 399      11.520   1.725  29.911  0.00  0.00     0.251 S 
ATOM      8  O5  NG6 d 399      10.553  -1.867  28.845  0.00  0.00    -0.349 OA
ATOM      9  O1  NG6 d 399       8.683  -2.841  27.917  0.00  0.00    -0.369 OA
ATOM     10  O6  NG6 d 399      11.356   0.345  30.261  0.00  0.00    -0.254 OA
ATOM     11  C4  NG6 d 399      12.625  -3.018  29.222  0.00  0.00     0.089 C 
ATOM     12  C3  NG6 d 399      11.930  -4.376  29.104  0.00  0.00     0.093 C 
ATOM     13  C6  NG6 d 399      12.303  -0.615  29.810  0.00  0.00     0.067 C 
ATOM     14  C2  NG6 d 399      10.587  -4.274  28.363  0.00  0.00     0.087 C 
ATOM     15  O2S NG6 d 399      12.162   2.471  31.055  0.00  0.00    -0.572 OA
ATOM     16  N   NG6 d 399       9.821  -5.519  28.572  0.00  0.00    -0.349 N 
ATOM     17  C8  NG6 d 399       9.016  -4.497  30.615  0.00  0.00    -0.003 C 
ATOM     18  O3  NG6 d 399      12.772  -5.249  28.360  0.00  0.00    -0.348 OA
ATOM     19  C1  NG6 d 399       9.762  -3.062  28.834  0.00  0.00     0.151 C 
ATOM     20  H   NG6 d 399      11.327  -2.288  30.723  0.00  0.00     0.090 H 
ATOM     21  H   NG6 d 399      13.554  -1.741  28.027  0.00  0.00     0.210 HD
ATOM     22  H   NG6 d 399       8.161  -2.078  28.210  0.00  0.00     0.212 HD
ATOM     23  H   NG6 d 399      13.446  -3.109  29.902  0.00  0.00     0.091 H 
ATOM     24  H   NG6 d 399      11.747  -4.739  30.094  0.00  0.00     0.091 H 
ATOM     25  H   NG6 d 399      12.652  -0.343  28.836  0.00  0.00     0.080 H 
ATOM     26  H   NG6 d 399      13.131  -0.647  30.488  0.00  0.00     0.080 H 
ATOM     27  H   NG6 d 399      10.789  -4.137  27.321  0.00  0.00     0.084 H 
ATOM     28  H   NG6 d 399       9.884  -6.241  27.905  0.00  0.00     0.163 HD
ATOM     29  H   NG6 d 399       9.644  -3.715  30.241  0.00  0.00     0.040 H 
ATOM     30  H   NG6 d 399       9.371  -4.811  31.574  0.00  0.00     0.040 H 
ATOM     31  H   NG6 d 399       8.013  -4.136  30.705  0.00  0.00     0.040 H 
ATOM     32  H   NG6 d 399       9.411  -3.275  29.821  0.00  0.00     0.132 H 
ATOM     33  C5  GCD d 400      15.892  -6.216  29.594  0.00  0.00     0.147 C 
ATOM     34  C2  GCD d 400      13.661  -7.428  28.557  0.00  0.00     0.111 C 
ATOM     35  O6A GCD d 400      17.244  -4.290  29.779  0.00  0.00    -0.642 OA
ATOM     36  C3  GCD d 400      14.530  -8.335  29.419  0.00  0.00     0.084 C 
ATOM     37  O5  GCD d 400      14.782  -5.429  29.449  0.00  0.00    -0.311 OA
ATOM     38  O3  GCD d 400      14.782  -9.562  28.726  0.00  0.00    -0.389 OA
ATOM     39  O6B GCD d 400      18.244  -6.250  29.920  0.00  0.00    -0.642 OA
ATOM     40  O2  GCD d 400      12.370  -8.004  28.393  0.00  0.00    -0.388 OA
ATOM     41  C4  GCD d 400      15.845  -7.604  29.623  0.00  0.00    -0.034 C 
ATOM     42  C1  GCD d 400      13.518  -6.079  29.237  0.00  0.00     0.165 C 
ATOM     43  C6  GCD d 400      17.234  -5.534  29.766  0.00  0.00     0.233 C 
ATOM     44  H   GCD d 400      14.120  -7.309  27.598  0.00  0.00     0.095 H 
ATOM     45  H   GCD d 400      14.051  -8.559  30.349  0.00  0.00     0.093 H 
ATOM     46  H   GCD d 400      15.217  -9.373  27.880  0.00  0.00     0.210 HD
ATOM     47  H   GCD d 400      11.952  -8.112  29.261  0.00  0.00     0.210 HD
ATOM     48  H   GCD d 400      16.711  -8.143  29.785  0.00  0.00     0.085 H 
ATOM     49  H   GCD d 400      13.054  -6.231  30.188  0.00  0.00     0.134 H 
ENDROOT
TORSDOF 12
ENDMDL
MODEL 3
REMARK VINA RESULT:      -9.5      2.986      6.331
REMARK  0 active torsions:
REMARK  status: ('A' for Active; 'I' for Inactive)
REMARK       I    between atoms: C5_1  and  C6_18 
REMARK       I    between atoms: C5_2  and  C6_30 
REMARK       I    between atoms: O4_3  and  C4_14 
REMARK       I    between atoms: C2_4  and  O2_23 
REMARK       I    between atoms: C7_5  and  C8_27 
REMARK       I    between atoms: C7_5  and  N_24 
REMARK       I    between atoms: S_9  and  O6_13 
REMARK       I    between atoms: O1_12  and  C1_29 
REMARK       I    between atoms: O6_13  and  C6_18 
REMARK       I    between atoms: C3_15  and  O3_28 
REMARK       I    between atoms: C3_16  and  O3_20 
REMARK       I    between atoms: C2_19  and  N_24 
REMARK       I    between atoms: C1_26  and  O3_28 
ROOT
ATOM      1  C5  NG6 d 399      12.446  -2.578  29.387  0.00  0.00     0.090 C 
ATOM      2  O4  NG6 d 399      14.307  -2.865  27.880  0.00  0.00    -0.390 OA
ATOM      3  C7  NG6 d 399      10.499  -6.596  28.621  0.00  0.00     0.214 C 
ATOM      4  O3S NG6 d 399      10.406   1.470  29.126  0.00  0.00    -0.572 OA
ATOM      5  O7  NG6 d 399       9.977  -7.709  28.672  0.00  0.00    -0.274 OA
ATOM      6  O1S NG6 d 399      12.806   1.377  28.660  0.00  0.00    -0.572 OA
ATOM      7  S   NG6 d 399      11.738   1.054  29.668  0.00  0.00     0.251 S 
ATOM      8  O5  NG6 d 399      11.539  -2.556  28.290  0.00  0.00    -0.349 OA
ATOM      9  O1  NG6 d 399      10.045  -3.716  26.974  0.00  0.00    -0.369 OA
ATOM     10  O6  NG6 d 399      11.719  -0.356  29.924  0.00  0.00    -0.254 OA
ATOM     11  C4  NG6 d 399      13.651  -3.431  29.022  0.00  0.00     0.089 C 
ATOM     12  C3  NG6 d 399      13.202  -4.861  28.715  0.00  0.00     0.093 C 
ATOM     13  C6  NG6 d 399      12.868  -1.142  29.630  0.00  0.00     0.067 C 
ATOM     14  C2  NG6 d 399      12.023  -4.897  27.729  0.00  0.00     0.087 C 
ATOM     15  O2S NG6 d 399      12.034   1.802  30.945  0.00  0.00    -0.572 OA
ATOM     16  N   NG6 d 399      11.427  -6.248  27.733  0.00  0.00    -0.349 N 
ATOM     17  C8  NG6 d 399      10.107  -5.489  29.616  0.00  0.00    -0.003 C 
ATOM     18  O3  NG6 d 399      14.291  -5.555  28.116  0.00  0.00    -0.348 OA
ATOM     19  C1  NG6 d 399      10.953  -3.847  28.076  0.00  0.00     0.151 C 
ATOM     20  H   NG6 d 399      11.999  -2.993  30.265  0.00  0.00     0.090 H 
ATOM     21  H   NG6 d 399      14.587  -1.959  28.084  0.00  0.00     0.210 HD
ATOM     22  H   NG6 d 399       9.369  -3.055  27.189  0.00  0.00     0.212 HD
ATOM     23  H   NG6 d 399      14.333  -3.453  29.845  0.00  0.00     0.091 H 
ATOM     24  H   NG6 d 399      12.892  -5.313  29.634  0.00  0.00     0.091 H 
ATOM     25  H   NG6 d 399      13.350  -0.758  28.755  0.00  0.00     0.080 H 
ATOM     26  H   NG6 d 399      13.547  -1.104  30.456  0.00  0.00     0.080 H 
ATOM     27  H   NG6 d 399      12.396  -4.663  26.753  0.00  0.00     0.084 H 
ATOM     28  H   NG6 d 399      11.723  -6.906  27.064  0.00  0.00     0.163 HD
ATOM     29  H   NG6 d 399      10.670  -4.604  29.405  0.00  0.00     0.040 H 
ATOM     30  H   NG6 d 399      10.317  -5.816  30.614  0.00  0.00     0.040 H 
ATOM     31  H   NG6 d 399       9.062  -5.279  29.522  0.00  0.00     0.040 H 
ATOM     32  H   NG6 d 399      10.457  -4.173  28.966  0.00  0.00     0.132 H 
ATOM     33  C5  GCD d 400      17.231  -6.161  29.901  0.00  0.00     0.147 C 
ATOM     34  C2  GCD d 400      15.443  -7.598  28.398  0.00  0.00     0.111 C 
ATOM     35  O6A GCD d 400      18.219  -4.083  30.425  0.00  0.00    -0.642 OA
ATOM     36  C3  GCD d 400      16.260  -8.432  29.377  0.00  0.00     0.084 C 
ATOM     37  O5  GCD d 400      16.063  -5.528  29.572  0.00  0.00    -0.311 OA
ATOM     38  O3  GCD d 400      16.818  -9.562  28.699  0.00  0.00    -0.389 OA
ATOM     39  O6B GCD d 400      19.456  -5.889  30.682  0.00  0.00    -0.642 OA
ATOM     40  O2  GCD d 400      14.307  -8.336  27.960  0.00  0.00    -0.388 OA
ATOM     41  C4  GCD d 400      17.388  -7.541  29.865  0.00  0.00    -0.034 C 
ATOM     42  C1  GCD d 400      14.973  -6.332  29.090  0.00  0.00     0.165 C 
ATOM     43  C6  GCD d 400      18.398  -5.312  30.361  0.00  0.00     0.233 C 
ATOM     44  H   GCD d 400      16.051  -7.351  27.554  0.00  0.00     0.095 H 
ATOM     45  H   GCD d 400      15.652  -8.783  30.185  0.00  0.00     0.093 H 
ATOM     46  H   GCD d 400      17.372  -9.257  27.963  0.00  0.00     0.210 HD
ATOM     47  H   GCD d 400      13.753  -8.560  28.724  0.00  0.00     0.210 HD
ATOM     48  H   GCD d 400      18.278  -7.964  30.173  0.00  0.00     0.085 H 
ATOM     49  H   GCD d 400      14.366  -6.612  29.924  0.00  0.00     0.134 H 
ENDROOT
TORSDOF 12
ENDMDL
MODEL 4
REMARK VINA RESULT:      -8.6      2.247      2.755
REMARK  0 active torsions:
REMARK  status: ('A' for Active; 'I' for Inactive)
REMARK       I    between atoms: C5_1  and  C6_18 
REMARK       I    between atoms: C5_2  and  C6_30 
REMARK       I    between atoms: O4_3  and  C4_14 
REMARK       I    between atoms: C2_4  and  O2_23 
REMARK       I    between atoms: C7_5  and  C8_27 
REMARK       I    between atoms: C7_5  and  N_24 
REMARK       I    between atoms: S_9  and  O6_13 
REMARK       I    between atoms: O1_12  and  C1_29 
REMARK       I    between atoms: O6_13  and  C6_18 
REMARK       I    between atoms: C3_15  and  O3_28 
REMARK       I    between atoms: C3_16  and  O3_20 
REMARK       I    between atoms: C2_19  and  N_24 
REMARK       I    between atoms: C1_26  and  O3_28 
ROOT
ATOM      1  C5  NG6 d 399      16.292  -5.004  31.594  0.00  0.00     0.090 C 
ATOM      2  O4  NG6 d 399      14.023  -4.265  31.943  0.00  0.00    -0.390 OA
ATOM      3  C7  NG6 d 399      15.394  -7.999  28.316  0.00  0.00     0.214 C 
ATOM      4  O3S NG6 d 399      18.620  -5.834  35.403  0.00  0.00    -0.572 OA
ATOM      5  O7  NG6 d 399      15.335  -8.684  27.296  0.00  0.00    -0.274 OA
ATOM      6  O1S NG6 d 399      16.911  -4.085  35.476  0.00  0.00    -0.572 OA
ATOM      7  S   NG6 d 399      18.153  -4.559  34.774  0.00  0.00     0.251 S 
ATOM      8  O5  NG6 d 399      15.968  -6.296  32.095  0.00  0.00    -0.349 OA
ATOM      9  O1  NG6 d 399      15.390  -8.478  31.630  0.00  0.00    -0.369 OA
ATOM     10  O6  NG6 d 399      17.870  -4.797  33.389  0.00  0.00    -0.254 OA
ATOM     11  C4  NG6 d 399      15.056  -4.390  30.957  0.00  0.00     0.089 C 
ATOM     12  C3  NG6 d 399      14.576  -5.269  29.800  0.00  0.00     0.093 C 
ATOM     13  C6  NG6 d 399      16.742  -4.177  32.783  0.00  0.00     0.067 C 
ATOM     14  C2  NG6 d 399      14.464  -6.747  30.207  0.00  0.00     0.087 C 
ATOM     15  O2S NG6 d 399      19.218  -3.498  34.903  0.00  0.00    -0.572 OA
ATOM     16  N   NG6 d 399      14.329  -7.577  28.992  0.00  0.00    -0.349 N 
ATOM     17  C8  NG6 d 399      16.749  -7.561  28.901  0.00  0.00    -0.003 C 
ATOM     18  O3  NG6 d 399      13.281  -4.828  29.408  0.00  0.00    -0.348 OA
ATOM     19  C1  NG6 d 399      15.681  -7.210  31.028  0.00  0.00     0.151 C 
ATOM     20  H   NG6 d 399      17.062  -5.046  30.853  0.00  0.00     0.090 H 
ATOM     21  H   NG6 d 399      14.338  -3.707  32.671  0.00  0.00     0.210 HD
ATOM     22  H   NG6 d 399      16.155  -8.772  32.149  0.00  0.00     0.212 HD
ATOM     23  H   NG6 d 399      15.298  -3.420  30.575  0.00  0.00     0.091 H 
ATOM     24  H   NG6 d 399      15.287  -5.186  29.006  0.00  0.00     0.091 H 
ATOM     25  H   NG6 d 399      15.945  -4.112  33.494  0.00  0.00     0.080 H 
ATOM     26  H   NG6 d 399      17.007  -3.194  32.455  0.00  0.00     0.080 H 
ATOM     27  H   NG6 d 399      13.600  -6.860  30.827  0.00  0.00     0.084 H 
ATOM     28  H   NG6 d 399      13.430  -7.823  28.676  0.00  0.00     0.163 HD
ATOM     29  H   NG6 d 399      16.584  -6.978  29.783  0.00  0.00     0.040 H 
ATOM     30  H   NG6 d 399      17.277  -6.975  28.178  0.00  0.00     0.040 H 
ATOM     31  H   NG6 d 399      17.326  -8.427  29.149  0.00  0.00     0.040 H 
ATOM     32  H   NG6 d 399      16.517  -7.265  30.363  0.00  0.00     0.132 H 
ATOM     33  C5  GCD d 400      12.805  -1.645  28.052  0.00  0.00     0.147 C 
ATOM     34  C2  GCD d 400      12.152  -4.233  27.420  0.00  0.00     0.111 C 
ATOM     35  O6A GCD d 400      13.377  -0.048  29.693  0.00  0.00    -0.642 OA
ATOM     36  C3  GCD d 400      12.156  -3.275  26.235  0.00  0.00     0.084 C 
ATOM     37  O5  GCD d 400      13.418  -2.625  28.784  0.00  0.00    -0.311 OA
ATOM     38  O3  GCD d 400      10.943  -3.422  25.491  0.00  0.00    -0.389 OA
ATOM     39  O6B GCD d 400      12.265   0.664  27.928  0.00  0.00    -0.642 OA
ATOM     40  O2  GCD d 400      12.190  -5.578  26.958  0.00  0.00    -0.388 OA
ATOM     41  C4  GCD d 400      12.214  -1.873  26.815  0.00  0.00    -0.034 C 
ATOM     42  C1  GCD d 400      13.375  -3.970  28.280  0.00  0.00     0.165 C 
ATOM     43  C6  GCD d 400      12.804  -0.234  28.605  0.00  0.00     0.233 C 
ATOM     44  H   GCD d 400      11.261  -4.080  27.992  0.00  0.00     0.095 H 
ATOM     45  H   GCD d 400      12.983  -3.469  25.584  0.00  0.00     0.093 H 
ATOM     46  H   GCD d 400      10.184  -3.248  26.070  0.00  0.00     0.210 HD
ATOM     47  H   GCD d 400      12.998  -5.719  26.439  0.00  0.00     0.210 HD
ATOM     48  H   GCD d 400      11.811  -1.083  26.287  0.00  0.00     0.085 H 
ATOM     49  H   GCD d 400      14.246  -4.134  27.682  0.00  0.00     0.134 H 
ENDROOT
TORSDOF 12
ENDMDL
MODEL 5
REMARK VINA RESULT:      -8.1      3.736      6.846
REMARK  0 active torsions:
REMARK  status: ('A' for Active; 'I' for Inactive)
REMARK       I    between atoms: C5_1  and  C6_18 
REMARK       I    between atoms: C5_2  and  C6_30 
REMARK       I    between atoms: O4_3  and  C4_14 
REMARK       I    between atoms: C2_4  and  O2_23 
REMARK       I    between atoms: C7_5  and  C8_27 
REMARK       I    between atoms: C7_5  and  N_24 
REMARK       I    between atoms: S_9  and  O6_13 
REMARK       I    between atoms: O1_12  and  C1_29 
REMARK       I    between atoms: O6_13  and  C6_18 
REMARK       I    between atoms: C3_15  and  O3_28 
REMARK       I    between atoms: C3_16  and  O3_20 
REMARK       I    between atoms: C2_19  and  N_24 
REMARK       I    between atoms: C1_26  and  O3_28 
ROOT
ATOM      1  C5  NG6 d 399      11.373  -5.186  30.462  0.00  0.00     0.090 C 
ATOM      2  O4  NG6 d 399      12.460  -3.594  29.014  0.00  0.00    -0.390 OA
ATOM      3  C7  NG6 d 399      14.237  -8.621  29.745  0.00  0.00     0.214 C 
ATOM      4  O3S NG6 d 399       6.854  -5.348  30.045  0.00  0.00    -0.572 OA
ATOM      5  O7  NG6 d 399      15.029  -9.561  29.810  0.00  0.00    -0.274 OA
ATOM      6  O1S NG6 d 399       7.955  -3.198  29.646  0.00  0.00    -0.572 OA
ATOM      7  S   NG6 d 399       7.768  -4.318  30.633  0.00  0.00     0.251 S 
ATOM      8  O5  NG6 d 399      11.012  -5.986  29.341  0.00  0.00    -0.349 OA
ATOM      9  O1  NG6 d 399      11.488  -7.809  28.015  0.00  0.00    -0.369 OA
ATOM     10  O6  NG6 d 399       9.033  -4.927  30.923  0.00  0.00    -0.254 OA
ATOM     11  C4  NG6 d 399      12.661  -4.443  30.152  0.00  0.00     0.089 C 
ATOM     12  C3  NG6 d 399      13.784  -5.442  29.869  0.00  0.00     0.093 C 
ATOM     13  C6  NG6 d 399      10.235  -4.208  30.681  0.00  0.00     0.067 C 
ATOM     14  C2  NG6 d 399      13.359  -6.515  28.852  0.00  0.00     0.087 C 
ATOM     15  O2S NG6 d 399       7.169  -3.756  31.898  0.00  0.00    -0.572 OA
ATOM     16  N   NG6 d 399      14.338  -7.621  28.874  0.00  0.00    -0.349 N 
ATOM     17  C8  NG6 d 399      13.035  -8.530  30.702  0.00  0.00    -0.003 C 
ATOM     18  O3  NG6 d 399      14.889  -4.735  29.317  0.00  0.00    -0.348 OA
ATOM     19  C1  NG6 d 399      11.948  -7.054  29.144  0.00  0.00     0.151 C 
ATOM     20  H   NG6 d 399      11.533  -5.778  31.339  0.00  0.00     0.090 H 
ATOM     21  H   NG6 d 399      11.747  -2.964  29.203  0.00  0.00     0.210 HD
ATOM     22  H   NG6 d 399      10.599  -8.150  28.195  0.00  0.00     0.212 HD
ATOM     23  H   NG6 d 399      12.938  -3.843  30.994  0.00  0.00     0.091 H 
ATOM     24  H   NG6 d 399      14.035  -5.926  30.790  0.00  0.00     0.091 H 
ATOM     25  H   NG6 d 399      10.117  -3.597  29.810  0.00  0.00     0.080 H 
ATOM     26  H   NG6 d 399      10.456  -3.586  31.524  0.00  0.00     0.080 H 
ATOM     27  H   NG6 d 399      13.335  -6.065  27.882  0.00  0.00     0.084 H 
ATOM     28  H   NG6 d 399      15.082  -7.617  28.230  0.00  0.00     0.163 HD
ATOM     29  H   NG6 d 399      12.472  -7.646  30.483  0.00  0.00     0.040 H 
ATOM     30  H   NG6 d 399      13.385  -8.489  31.712  0.00  0.00     0.040 H 
ATOM     31  H   NG6 d 399      12.412  -9.390  30.574  0.00  0.00     0.040 H 
ATOM     32  H   NG6 d 399      12.007  -7.654  30.028  0.00  0.00     0.132 H 
ATOM     33  C5  GCD d 400      16.603  -2.341  31.195  0.00  0.00     0.147 C 
ATOM     34  C2  GCD d 400      17.215  -4.544  29.681  0.00  0.00     0.111 C 
ATOM     35  O6A GCD d 400      15.109  -0.583  31.694  0.00  0.00    -0.642 OA
ATOM     36  C3  GCD d 400      18.280  -4.164  30.702  0.00  0.00     0.084 C 
ATOM     37  O5  GCD d 400      15.553  -3.134  30.820  0.00  0.00    -0.311 OA
ATOM     38  O3  GCD d 400      19.562  -4.118  30.068  0.00  0.00    -0.389 OA
ATOM     39  O6B GCD d 400      17.257  -0.217  32.030  0.00  0.00    -0.642 OA
ATOM     40  O2  GCD d 400      17.427  -5.878  29.231  0.00  0.00    -0.388 OA
ATOM     41  C4  GCD d 400      17.924  -2.774  31.198  0.00  0.00    -0.034 C 
ATOM     42  C1  GCD d 400      15.845  -4.452  30.328  0.00  0.00     0.165 C 
ATOM     43  C6  GCD d 400      16.303  -0.932  31.665  0.00  0.00     0.233 C 
ATOM     44  H   GCD d 400      17.273  -3.876  28.848  0.00  0.00     0.095 H 
ATOM     45  H   GCD d 400      18.318  -4.873  31.502  0.00  0.00     0.093 H 
ATOM     46  H   GCD d 400      19.541  -3.477  29.340  0.00  0.00     0.210 HD
ATOM     47  H   GCD d 400      17.374  -6.485  29.985  0.00  0.00     0.210 HD
ATOM     48  H   GCD d 400      18.668  -2.146  31.541  0.00  0.00     0.085 H 
ATOM     49  H   GCD d 400      15.819  -5.133  31.153  0.00  0.00     0.134 H 
ENDROOT
TORSDOF 12
ENDMDL
MODEL 6
REMARK VINA RESULT:      -7.9      3.620      6.125
REMARK  0 active torsions:
REMARK  status: ('A' for Active; 'I' for Inactive)
REMARK       I    between atoms: C5_1  and  C6_18 
REMARK       I    between atoms: C5_2  and  C6_30 
REMARK       I    between atoms: O4_3  and  C4_14 
REMARK       I    between atoms: C2_4  and  O2_23 
REMARK       I    between atoms: C7_5  and  C8_27 
REMARK       I    between atoms: C7_5  and  N_24 
REMARK       I    between atoms: S_9  and  O6_13 
REMARK       I    between atoms: O1_12  and  C1_29 
REMARK       I    between atoms: O6_13  and  C6_18 
REMARK       I    between atoms: C3_15  and  O3_28 
REMARK       I    between atoms: C3_16  and  O3_20 
REMARK       I    between atoms: C2_19  and  N_24 
REMARK       I    between atoms: C1_26  and  O3_28 
ROOT
ATOM      1  C5  NG6 d 399      14.352  -4.108  30.144  0.00  0.00     0.090 C 
ATOM      2  O4  NG6 d 399      13.576  -6.088  29.008  0.00  0.00    -0.390 OA
ATOM      3  C7  NG6 d 399      11.032  -1.351  28.767  0.00  0.00     0.214 C 
ATOM      4  O3S NG6 d 399      18.808  -3.324  29.751  0.00  0.00    -0.572 OA
ATOM      5  O7  NG6 d 399      10.105  -0.551  28.647  0.00  0.00    -0.274 OA
ATOM      6  O1S NG6 d 399      18.061  -5.654  29.750  0.00  0.00    -0.572 OA
ATOM      7  S   NG6 d 399      18.037  -4.358  30.512  0.00  0.00     0.251 S 
ATOM      8  O5  NG6 d 399      14.631  -3.481  28.897  0.00  0.00    -0.349 OA
ATOM      9  O1  NG6 d 399      13.938  -2.029  27.248  0.00  0.00    -0.369 OA
ATOM     10  O6  NG6 d 399      16.684  -3.910  30.670  0.00  0.00    -0.254 OA
ATOM     11  C4  NG6 d 399      13.204  -5.088  29.964  0.00  0.00     0.089 C 
ATOM     12  C3  NG6 d 399      11.955  -4.344  29.487  0.00  0.00     0.093 C 
ATOM     13  C6  NG6 d 399      15.615  -4.841  30.554  0.00  0.00     0.067 C 
ATOM     14  C2  NG6 d 399      12.252  -3.423  28.293  0.00  0.00     0.087 C 
ATOM     15  O2S NG6 d 399      18.664  -4.579  31.866  0.00  0.00    -0.572 OA
ATOM     16  N   NG6 d 399      11.118  -2.498  28.097  0.00  0.00    -0.349 N 
ATOM     17  C8  NG6 d 399      12.196  -1.078  29.736  0.00  0.00    -0.003 C 
ATOM     18  O3  NG6 d 399      10.992  -5.304  29.066  0.00  0.00    -0.348 OA
ATOM     19  C1  NG6 d 399      13.554  -2.626  28.493  0.00  0.00     0.151 C 
ATOM     20  H   NG6 d 399      14.069  -3.398  30.892  0.00  0.00     0.090 H 
ATOM     21  H   NG6 d 399      14.368  -6.554  29.318  0.00  0.00     0.210 HD
ATOM     22  H   NG6 d 399      14.758  -1.526  27.371  0.00  0.00     0.212 HD
ATOM     23  H   NG6 d 399      12.988  -5.559  30.900  0.00  0.00     0.091 H 
ATOM     24  H   NG6 d 399      11.598  -3.745  30.299  0.00  0.00     0.091 H 
ATOM     25  H   NG6 d 399      15.858  -5.575  29.813  0.00  0.00     0.080 H 
ATOM     26  H   NG6 d 399      15.457  -5.324  31.496  0.00  0.00     0.080 H 
ATOM     27  H   NG6 d 399      12.383  -4.034  27.424  0.00  0.00     0.084 H 
ATOM     28  H   NG6 d 399      10.409  -2.735  27.457  0.00  0.00     0.163 HD
ATOM     29  H   NG6 d 399      12.893  -1.888  29.693  0.00  0.00     0.040 H 
ATOM     30  H   NG6 d 399      11.816  -0.987  30.733  0.00  0.00     0.040 H 
ATOM     31  H   NG6 d 399      12.686  -0.169  29.457  0.00  0.00     0.040 H 
ATOM     32  H   NG6 d 399      13.370  -1.892  29.249  0.00  0.00     0.132 H 
ATOM     33  C5  GCD d 400       9.587  -7.551  31.340  0.00  0.00     0.147 C 
ATOM     34  C2  GCD d 400       8.709  -5.785  29.434  0.00  0.00     0.111 C 
ATOM     35  O6A GCD d 400      11.309  -8.933  32.174  0.00  0.00    -0.642 OA
ATOM     36  C3  GCD d 400       7.675  -6.133  30.497  0.00  0.00     0.084 C 
ATOM     37  O5  GCD d 400      10.519  -6.687  30.834  0.00  0.00    -0.311 OA
ATOM     38  O3  GCD d 400       6.440  -6.494  29.870  0.00  0.00    -0.389 OA
ATOM     39  O6B GCD d 400       9.229  -9.562  32.550  0.00  0.00    -0.642 OA
ATOM     40  O2  GCD d 400       8.316  -4.606  28.741  0.00  0.00    -0.388 OA
ATOM     41  C4  GCD d 400       8.217  -7.336  31.248  0.00  0.00    -0.034 C 
ATOM     42  C1  GCD d 400      10.051  -5.543  30.102  0.00  0.00     0.165 C 
ATOM     43  C6  GCD d 400      10.078  -8.786  32.068  0.00  0.00     0.233 C 
ATOM     44  H   GCD d 400       8.786  -6.595  28.740  0.00  0.00     0.095 H 
ATOM     45  H   GCD d 400       7.498  -5.304  31.150  0.00  0.00     0.093 H 
ATOM     46  H   GCD d 400       6.586  -7.246  29.274  0.00  0.00     0.210 HD
ATOM     47  H   GCD d 400       8.246  -3.870  29.369  0.00  0.00     0.210 HD
ATOM     48  H   GCD d 400       7.564  -7.999  31.694  0.00  0.00     0.085 H 
ATOM     49  H   GCD d 400       9.942  -4.727  30.785  0.00  0.00     0.134 H 
ENDROOT
TORSDOF 12
ENDMDL
MODEL 7
REMARK VINA RESULT:      -7.8      3.380      5.821
REMARK  0 active torsions:
REMARK  status: ('A' for Active; 'I' for Inactive)
REMARK       I    between atoms: C5_1  and  C6_18 
REMARK       I    between atoms: C5_2  and  C6_30 
REMARK       I    between atoms: O4_3  and  C4_14 
REMARK       I    between atoms: C2_4  and  O2_23 
REMARK       I    between atoms: C7_5  and  C8_27 
REMARK       I    between atoms: C7_5  and  N_24 
REMARK       I    between atoms: S_9  and  O6_13 
REMARK       I    between atoms: O1_12  and  C1_29 
REMARK       I    between atoms: O6_13  and  C6_18 
REMARK       I    between atoms: C3_15  and  O3_28 
REMARK       I    between atoms: C3_16  and  O3_20 
REMARK       I    between atoms: C2_19  and  N_24 
REMARK       I    between atoms: C1_26  and  O3_28 
ROOT
ATOM      1  C5  NG6 d 399      15.607  -6.107  31.734  0.00  0.00     0.090 C 
ATOM      2  O4  NG6 d 399      14.673  -6.865  29.645  0.00  0.00    -0.390 OA
ATOM      3  C7  NG6 d 399      15.283  -1.667  30.899  0.00  0.00     0.214 C 
ATOM      4  O3S NG6 d 399      19.355  -8.310  33.044  0.00  0.00    -0.572 OA
ATOM      5  O7  NG6 d 399      15.073  -0.454  30.901  0.00  0.00    -0.274 OA
ATOM      6  O1S NG6 d 399      17.695  -9.562  31.753  0.00  0.00    -0.572 OA
ATOM      7  S   NG6 d 399      17.918  -8.727  32.984  0.00  0.00     0.251 S 
ATOM      8  O5  NG6 d 399      16.744  -5.584  31.057  0.00  0.00    -0.349 OA
ATOM      9  O1  NG6 d 399      17.795  -3.749  30.144  0.00  0.00    -0.369 OA
ATOM     10  O6  NG6 d 399      17.093  -7.557  32.936  0.00  0.00    -0.254 OA
ATOM     11  C4  NG6 d 399      14.407  -6.064  30.802  0.00  0.00     0.089 C 
ATOM     12  C3  NG6 d 399      14.121  -4.619  30.387  0.00  0.00     0.093 C 
ATOM     13  C6  NG6 d 399      15.940  -7.539  32.103  0.00  0.00     0.067 C 
ATOM     14  C2  NG6 d 399      15.388  -3.900  29.895  0.00  0.00     0.087 C 
ATOM     15  O2S NG6 d 399      17.568  -9.551  34.199  0.00  0.00    -0.572 OA
ATOM     16  N   NG6 d 399      15.129  -2.447  29.832  0.00  0.00    -0.349 N 
ATOM     17  C8  NG6 d 399      15.750  -2.394  32.172  0.00  0.00    -0.003 C 
ATOM     18  O3  NG6 d 399      13.186  -4.635  29.315  0.00  0.00    -0.348 OA
ATOM     19  C1  NG6 d 399      16.598  -4.181  30.803  0.00  0.00     0.151 C 
ATOM     20  H   NG6 d 399      15.369  -5.539  32.609  0.00  0.00     0.090 H 
ATOM     21  H   NG6 d 399      14.852  -7.778  29.918  0.00  0.00     0.210 HD
ATOM     22  H   NG6 d 399      18.559  -3.924  30.713  0.00  0.00     0.212 HD
ATOM     23  H   NG6 d 399      13.548  -6.452  31.310  0.00  0.00     0.091 H 
ATOM     24  H   NG6 d 399      13.745  -4.099  31.243  0.00  0.00     0.091 H 
ATOM     25  H   NG6 d 399      16.135  -8.101  31.212  0.00  0.00     0.080 H 
ATOM     26  H   NG6 d 399      15.115  -7.976  32.625  0.00  0.00     0.080 H 
ATOM     27  H   NG6 d 399      15.627  -4.273  28.920  0.00  0.00     0.084 H 
ATOM     28  H   NG6 d 399      14.835  -2.047  28.981  0.00  0.00     0.163 HD
ATOM     29  H   NG6 d 399      15.875  -3.435  31.962  0.00  0.00     0.040 H 
ATOM     30  H   NG6 d 399      15.017  -2.271  32.942  0.00  0.00     0.040 H 
ATOM     31  H   NG6 d 399      16.681  -1.981  32.497  0.00  0.00     0.040 H 
ATOM     32  H   NG6 d 399      16.438  -3.660  31.724  0.00  0.00     0.132 H 
ATOM     33  C5  GCD d 400       9.939  -5.832  29.786  0.00  0.00     0.147 C 
ATOM     34  C2  GCD d 400      11.142  -3.596  28.748  0.00  0.00     0.111 C 
ATOM     35  O6A GCD d 400      10.069  -8.122  30.342  0.00  0.00    -0.642 OA
ATOM     36  C3  GCD d 400       9.696  -3.392  29.184  0.00  0.00     0.084 C 
ATOM     37  O5  GCD d 400      11.279  -5.693  30.026  0.00  0.00    -0.311 OA
ATOM     38  O3  GCD d 400       8.963  -2.748  28.136  0.00  0.00    -0.389 OA
ATOM     39  O6B GCD d 400       8.094  -7.326  29.771  0.00  0.00    -0.642 OA
ATOM     40  O2  GCD d 400      11.787  -2.337  28.597  0.00  0.00    -0.388 OA
ATOM     41  C4  GCD d 400       9.116  -4.776  29.415  0.00  0.00    -0.034 C 
ATOM     42  C1  GCD d 400      11.873  -4.403  29.805  0.00  0.00     0.165 C 
ATOM     43  C6  GCD d 400       9.319  -7.203  29.968  0.00  0.00     0.233 C 
ATOM     44  H   GCD d 400      11.157  -4.116  27.814  0.00  0.00     0.095 H 
ATOM     45  H   GCD d 400       9.640  -2.786  30.064  0.00  0.00     0.093 H 
ATOM     46  H   GCD d 400       9.005  -3.288  27.332  0.00  0.00     0.210 HD
ATOM     47  H   GCD d 400      11.775  -1.864  29.444  0.00  0.00     0.210 HD
ATOM     48  H   GCD d 400       8.103  -4.933  29.296  0.00  0.00     0.085 H 
ATOM     49  H   GCD d 400      11.844  -3.856  30.723  0.00  0.00     0.134 H 
ENDROOT
TORSDOF 12
ENDMDL
MODEL 8
REMARK VINA RESULT:      -7.7      2.758      7.211
REMARK  0 active torsions:
REMARK  status: ('A' for Active; 'I' for Inactive)
REMARK       I    between atoms: C5_1  and  C6_18 
REMARK       I    between atoms: C5_2  and  C6_30 
REMARK       I    between atoms: O4_3  and  C4_14 
REMARK       I    between atoms: C2_4  and  O2_23 
REMARK       I    between atoms: C7_5  and  C8_27 
REMARK       I    between atoms: C7_5  and  N_24 
REMARK       I    between atoms: S_9  and  O6_13 
REMARK       I    between atoms: O1_12  and  C1_29 
REMARK       I    between atoms: O6_13  and  C6_18 
REMARK       I    between atoms: C3_15  and  O3_28 
REMARK       I    between atoms: C3_16  and  O3_20 
REMARK       I    between atoms: C2_19  and  N_24 
REMARK       I    between atoms: C1_26  and  O3_28 
ROOT
ATOM      1  C5  NG6 d 399      12.700  -3.249  29.120  0.00  0.00     0.090 C 
ATOM      2  O4  NG6 d 399      14.973  -3.893  28.638  0.00  0.00    -0.390 OA
ATOM      3  C7  NG6 d 399      11.153  -7.394  30.093  0.00  0.00     0.214 C 
ATOM      4  O3S NG6 d 399      10.878  -0.352  26.135  0.00  0.00    -0.572 OA
ATOM      5  O7  NG6 d 399      10.649  -8.407  30.575  0.00  0.00    -0.274 OA
ATOM      6  O1S NG6 d 399      13.289  -0.208  26.531  0.00  0.00    -0.572 OA
ATOM      7  S   NG6 d 399      11.933  -0.178  27.183  0.00  0.00     0.251 S 
ATOM      8  O5  NG6 d 399      12.238  -3.953  27.973  0.00  0.00    -0.349 OA
ATOM      9  O1  NG6 d 399      11.306  -5.876  27.112  0.00  0.00    -0.369 OA
ATOM     10  O6  NG6 d 399      11.827  -1.243  28.136  0.00  0.00    -0.254 OA
ATOM     11  C4  NG6 d 399      13.957  -3.922  29.647  0.00  0.00     0.089 C 
ATOM     12  C3  NG6 d 399      13.647  -5.368  30.040  0.00  0.00     0.093 C 
ATOM     13  C6  NG6 d 399      13.006  -1.835  28.667  0.00  0.00     0.067 C 
ATOM     14  C2  NG6 d 399      12.892  -6.118  28.930  0.00  0.00     0.087 C 
ATOM     15  O2S NG6 d 399      11.758   1.150  27.878  0.00  0.00    -0.572 OA
ATOM     16  N   NG6 d 399      12.334  -7.369  29.481  0.00  0.00    -0.349 N 
ATOM     17  C8  NG6 d 399      10.434  -6.035  30.169  0.00  0.00    -0.003 C 
ATOM     18  O3  NG6 d 399      14.878  -6.047  30.263  0.00  0.00    -0.348 OA
ATOM     19  C1  NG6 d 399      11.767  -5.261  28.322  0.00  0.00     0.151 C 
ATOM     20  H   NG6 d 399      11.972  -3.243  29.904  0.00  0.00     0.090 H 
ATOM     21  H   NG6 d 399      15.162  -2.972  28.396  0.00  0.00     0.210 HD
ATOM     22  H   NG6 d 399      10.597  -5.339  26.726  0.00  0.00     0.212 HD
ATOM     23  H   NG6 d 399      14.305  -3.397  30.513  0.00  0.00     0.091 H 
ATOM     24  H   NG6 d 399      13.034  -5.348  30.916  0.00  0.00     0.091 H 
ATOM     25  H   NG6 d 399      13.766  -1.858  27.913  0.00  0.00     0.080 H 
ATOM     26  H   NG6 d 399      13.351  -1.259  29.501  0.00  0.00     0.080 H 
ATOM     27  H   NG6 d 399      13.585  -6.339  28.144  0.00  0.00     0.084 H 
ATOM     28  H   NG6 d 399      12.848  -8.204  29.393  0.00  0.00     0.163 HD
ATOM     29  H   NG6 d 399      11.034  -5.287  29.694  0.00  0.00     0.040 H 
ATOM     30  H   NG6 d 399      10.279  -5.770  31.194  0.00  0.00     0.040 H 
ATOM     31  H   NG6 d 399       9.489  -6.104  29.671  0.00  0.00     0.040 H 
ATOM     32  H   NG6 d 399      10.989  -5.185  29.052  0.00  0.00     0.132 H 
ATOM     33  C5  GCD d 400      17.000  -5.103  32.871  0.00  0.00     0.147 C 
ATOM     34  C2  GCD d 400      15.859  -7.410  31.923  0.00  0.00     0.111 C 
ATOM     35  O6A GCD d 400      17.737  -2.898  32.463  0.00  0.00    -0.642 OA
ATOM     36  C3  GCD d 400      16.279  -7.467  33.387  0.00  0.00     0.084 C 
ATOM     37  O5  GCD d 400      16.022  -4.957  31.925  0.00  0.00    -0.311 OA
ATOM     38  O3  GCD d 400      17.042  -8.655  33.624  0.00  0.00    -0.389 OA
ATOM     39  O6B GCD d 400      18.806  -4.058  34.004  0.00  0.00    -0.642 OA
ATOM     40  O2  GCD d 400      14.952  -8.469  31.636  0.00  0.00    -0.388 OA
ATOM     41  C4  GCD d 400      17.161  -6.256  33.630  0.00  0.00    -0.034 C 
ATOM     42  C1  GCD d 400      15.174  -6.084  31.651  0.00  0.00     0.165 C 
ATOM     43  C6  GCD d 400      17.929  -3.934  33.125  0.00  0.00     0.233 C 
ATOM     44  H   GCD d 400      16.726  -7.510  31.305  0.00  0.00     0.095 H 
ATOM     45  H   GCD d 400      15.426  -7.474  34.033  0.00  0.00     0.093 H 
ATOM     46  H   GCD d 400      17.820  -8.661  33.044  0.00  0.00     0.210 HD
ATOM     47  H   GCD d 400      14.164  -8.380  32.196  0.00  0.00     0.210 HD
ATOM     48  H   GCD d 400      17.885  -6.288  34.364  0.00  0.00     0.085 H 
ATOM     49  H   GCD d 400      14.311  -6.017  32.280  0.00  0.00     0.134 H 
ENDROOT
TORSDOF 12
ENDMDL
MODEL 9
REMARK VINA RESULT:      -7.6      2.850      7.118
REMARK  0 active torsions:
REMARK  status: ('A' for Active; 'I' for Inactive)
REMARK       I    between atoms: C5_1  and  C6_18 
REMARK       I    between atoms: C5_2  and  C6_30 
REMARK       I    between atoms: O4_3  and  C4_14 
REMARK       I    between atoms: C2_4  and  O2_23 
REMARK       I    between atoms: C7_5  and  C8_27 
REMARK       I    between atoms: C7_5  and  N_24 
REMARK       I    between atoms: S_9  and  O6_13 
REMARK       I    between atoms: O1_12  and  C1_29 
REMARK       I    between atoms: O6_13  and  C6_18 
REMARK       I    between atoms: C3_15  and  O3_28 
REMARK       I    between atoms: C3_16  and  O3_20 
REMARK       I    between atoms: C2_19  and  N_24 
REMARK       I    between atoms: C1_26  and  O3_28 
ROOT
ATOM      1  C5  NG6 d 399      12.129  -3.366  28.636  0.00  0.00     0.090 C 
ATOM      2  O4  NG6 d 399      14.265  -4.307  28.030  0.00  0.00    -0.390 OA
ATOM      3  C7  NG6 d 399      10.026  -7.287  29.488  0.00  0.00     0.214 C 
ATOM      4  O3S NG6 d 399      10.647  -0.091  25.861  0.00  0.00    -0.572 OA
ATOM      5  O7  NG6 d 399       9.396  -8.239  29.946  0.00  0.00    -0.274 OA
ATOM      6  O1S NG6 d 399      13.066  -0.317  26.161  0.00  0.00    -0.572 OA
ATOM      7  S   NG6 d 399      11.753  -0.123  26.870  0.00  0.00     0.251 S 
ATOM      8  O5  NG6 d 399      11.529  -3.938  27.479  0.00  0.00    -0.349 OA
ATOM      9  O1  NG6 d 399      10.296  -5.661  26.573  0.00  0.00    -0.369 OA
ATOM     10  O6  NG6 d 399      11.526  -1.208  27.779  0.00  0.00    -0.254 OA
ATOM     11  C4  NG6 d 399      13.291  -4.240  29.080  0.00  0.00     0.089 C 
ATOM     12  C3  NG6 d 399      12.787  -5.644  29.420  0.00  0.00     0.093 C 
ATOM     13  C6  NG6 d 399      12.623  -1.990  28.234  0.00  0.00     0.067 C 
ATOM     14  C2  NG6 d 399      11.892  -6.220  28.311  0.00  0.00     0.087 C 
ATOM     15  O2S NG6 d 399      11.799   1.179  27.630  0.00  0.00    -0.572 OA
ATOM     16  N   NG6 d 399      11.176  -7.403  28.829  0.00  0.00    -0.349 N 
ATOM     17  C8  NG6 d 399       9.517  -5.844  29.654  0.00  0.00    -0.003 C 
ATOM     18  O3  NG6 d 399      13.912  -6.504  29.561  0.00  0.00    -0.348 OA
ATOM     19  C1  NG6 d 399      10.883  -5.180  27.789  0.00  0.00     0.151 C 
ATOM     20  H   NG6 d 399      11.437  -3.295  29.449  0.00  0.00     0.090 H 
ATOM     21  H   NG6 d 399      14.578  -3.413  27.822  0.00  0.00     0.210 HD
ATOM     22  H   NG6 d 399       9.660  -5.008  26.242  0.00  0.00     0.212 HD
ATOM     23  H   NG6 d 399      13.742  -3.815  29.952  0.00  0.00     0.091 H 
ATOM     24  H   NG6 d 399      12.214  -5.578  30.321  0.00  0.00     0.091 H 
ATOM     25  H   NG6 d 399      13.344  -2.085  27.448  0.00  0.00     0.080 H 
ATOM     26  H   NG6 d 399      13.077  -1.513  29.077  0.00  0.00     0.080 H 
ATOM     27  H   NG6 d 399      12.516  -6.499  27.488  0.00  0.00     0.084 H 
ATOM     28  H   NG6 d 399      11.559  -8.298  28.683  0.00  0.00     0.163 HD
ATOM     29  H   NG6 d 399      10.203  -5.168  29.188  0.00  0.00     0.040 H 
ATOM     30  H   NG6 d 399       9.438  -5.611  30.696  0.00  0.00     0.040 H 
ATOM     31  H   NG6 d 399       8.556  -5.750  29.194  0.00  0.00     0.040 H 
ATOM     32  H   NG6 d 399      10.151  -5.028  28.554  0.00  0.00     0.132 H 
ATOM     33  C5  GCD d 400      16.239  -6.008  32.117  0.00  0.00     0.147 C 
ATOM     34  C2  GCD d 400      14.740  -8.076  31.117  0.00  0.00     0.111 C 
ATOM     35  O6A GCD d 400      17.277  -3.916  31.777  0.00  0.00    -0.642 OA
ATOM     36  C3  GCD d 400      15.198  -8.266  32.558  0.00  0.00     0.084 C 
ATOM     37  O5  GCD d 400      15.261  -5.675  31.220  0.00  0.00    -0.311 OA
ATOM     38  O3  GCD d 400      15.787  -9.562  32.710  0.00  0.00    -0.389 OA
ATOM     39  O6B GCD d 400      18.217  -5.294  33.218  0.00  0.00    -0.642 OA
ATOM     40  O2  GCD d 400      13.678  -8.976  30.822  0.00  0.00    -0.388 OA
ATOM     41  C4  GCD d 400      16.256  -7.208  32.817  0.00  0.00    -0.034 C 
ATOM     42  C1  GCD d 400      14.248  -6.652  30.933  0.00  0.00     0.165 C 
ATOM     43  C6  GCD d 400      17.338  -5.000  32.384  0.00  0.00     0.233 C 
ATOM     44  H   GCD d 400      15.561  -8.269  30.459  0.00  0.00     0.095 H 
ATOM     45  H   GCD d 400      14.377  -8.181  33.238  0.00  0.00     0.093 H 
ATOM     46  H   GCD d 400      16.534  -9.652  32.098  0.00  0.00     0.210 HD
ATOM     47  H   GCD d 400      12.932  -8.803  31.417  0.00  0.00     0.210 HD
ATOM     48  H   GCD d 400      16.993  -7.382  33.518  0.00  0.00     0.085 H 
ATOM     49  H   GCD d 400      13.427  -6.493  31.600  0.00  0.00     0.134 H 
ENDROOT
TORSDOF 12
ENDMDL
MODEL 10
REMARK VINA RESULT:      -7.5      3.108      5.682
REMARK  0 active torsions:
REMARK  status: ('A' for Active; 'I' for Inactive)
REMARK       I    between atoms: C5_1  and  C6_18 
REMARK       I    between atoms: C5_2  and  C6_30 
REMARK       I    between atoms: O4_3  and  C4_14 
REMARK       I    between atoms: C2_4  and  O2_23 
REMARK       I    between atoms: C7_5  and  C8_27 
REMARK       I    between atoms: C7_5  and  N_24 
REMARK       I    between atoms: S_9  and  O6_13 
REMARK       I    between atoms: O1_12  and  C1_29 
REMARK       I    between atoms: O6_13  and  C6_18 
REMARK       I    between atoms: C3_15  and  O3_28 
REMARK       I    between atoms: C3_16  and  O3_20 
REMARK       I    between atoms: C2_19  and  N_24 
REMARK       I    between atoms: C1_26  and  O3_28 
ROOT
ATOM      1  C5  NG6 d 399      16.147  -5.124  30.892  0.00  0.00     0.090 C 
ATOM      2  O4  NG6 d 399      15.703  -4.295  28.671  0.00  0.00    -0.390 OA
ATOM      3  C7  NG6 d 399      15.932  -1.130  33.019  0.00  0.00     0.214 C 
ATOM      4  O3S NG6 d 399      19.562  -8.106  31.153  0.00  0.00    -0.572 OA
ATOM      5  O7  NG6 d 399      15.705  -0.168  33.751  0.00  0.00    -0.274 OA
ATOM      6  O1S NG6 d 399      18.244  -8.066  29.091  0.00  0.00    -0.572 OA
ATOM      7  S   NG6 d 399      18.180  -8.214  30.586  0.00  0.00     0.251 S 
ATOM      8  O5  NG6 d 399      17.395  -4.439  30.917  0.00  0.00    -0.349 OA
ATOM      9  O1  NG6 d 399      18.585  -2.582  31.581  0.00  0.00    -0.369 OA
ATOM     10  O6  NG6 d 399      17.364  -7.176  31.144  0.00  0.00    -0.254 OA
ATOM     11  C4  NG6 d 399      15.178  -4.362  30.003  0.00  0.00     0.089 C 
ATOM     12  C3  NG6 d 399      14.963  -2.952  30.555  0.00  0.00     0.093 C 
ATOM     13  C6  NG6 d 399      16.419  -6.502  30.321  0.00  0.00     0.067 C 
ATOM     14  C2  NG6 d 399      16.293  -2.246  30.867  0.00  0.00     0.087 C 
ATOM     15  O2S NG6 d 399      17.589  -9.562  30.916  0.00  0.00    -0.572 OA
ATOM     16  N   NG6 d 399      16.028  -1.051  31.693  0.00  0.00    -0.349 N 
ATOM     17  C8  NG6 d 399      16.125  -2.542  33.600  0.00  0.00    -0.003 C 
ATOM     18  O3  NG6 d 399      14.283  -2.181  29.570  0.00  0.00    -0.348 OA
ATOM     19  C1  NG6 d 399      17.282  -3.178  31.589  0.00  0.00     0.151 C 
ATOM     20  H   NG6 d 399      15.715  -5.199  31.867  0.00  0.00     0.090 H 
ATOM     21  H   NG6 d 399      15.836  -5.194  28.330  0.00  0.00     0.210 HD
ATOM     22  H   NG6 d 399      19.211  -3.167  32.035  0.00  0.00     0.212 HD
ATOM     23  H   NG6 d 399      14.237  -4.872  29.985  0.00  0.00     0.091 H 
ATOM     24  H   NG6 d 399      14.401  -3.035  31.461  0.00  0.00     0.091 H 
ATOM     25  H   NG6 d 399      16.812  -6.407  29.330  0.00  0.00     0.080 H 
ATOM     26  H   NG6 d 399      15.508  -7.062  30.290  0.00  0.00     0.080 H 
ATOM     27  H   NG6 d 399      16.745  -1.958  29.940  0.00  0.00     0.084 H 
ATOM     28  H   NG6 d 399      15.918  -0.177  31.254  0.00  0.00     0.163 HD
ATOM     29  H   NG6 d 399      16.312  -3.232  32.804  0.00  0.00     0.040 H 
ATOM     30  H   NG6 d 399      15.240  -2.835  34.126  0.00  0.00     0.040 H 
ATOM     31  H   NG6 d 399      16.956  -2.540  34.273  0.00  0.00     0.040 H 
ATOM     32  H   NG6 d 399      16.917  -3.328  32.584  0.00  0.00     0.132 H 
ATOM     33  C5  GCD d 400      11.034  -2.998  28.584  0.00  0.00     0.147 C 
ATOM     34  C2  GCD d 400      12.392  -0.772  29.436  0.00  0.00     0.111 C 
ATOM     35  O6A GCD d 400      11.082  -5.131  27.574  0.00  0.00    -0.642 OA
ATOM     36  C3  GCD d 400      10.883  -0.706  29.634  0.00  0.00     0.084 C 
ATOM     37  O5  GCD d 400      12.287  -3.205  29.094  0.00  0.00    -0.311 OA
ATOM     38  O3  GCD d 400      10.383   0.534  29.122  0.00  0.00    -0.389 OA
ATOM     39  O6B GCD d 400       9.263  -3.915  27.296  0.00  0.00    -0.642 OA
ATOM     40  O2  GCD d 400      13.032   0.216  30.236  0.00  0.00    -0.388 OA
ATOM     41  C4  GCD d 400      10.292  -1.848  28.827  0.00  0.00    -0.034 C 
ATOM     42  C1  GCD d 400      12.892  -2.144  29.850  0.00  0.00     0.165 C 
ATOM     43  C6  GCD d 400      10.414  -4.094  27.742  0.00  0.00     0.233 C 
ATOM     44  H   GCD d 400      12.619  -0.595  28.406  0.00  0.00     0.095 H 
ATOM     45  H   GCD d 400      10.626  -0.778  30.670  0.00  0.00     0.093 H 
ATOM     46  H   GCD d 400      10.609   0.611  28.182  0.00  0.00     0.210 HD
ATOM     47  H   GCD d 400      12.827   0.056  31.170  0.00  0.00     0.210 HD
ATOM     48  H   GCD d 400       9.332  -1.771  28.456  0.00  0.00     0.085 H 
ATOM     49  H   GCD d 400      12.653  -2.289  30.883  0.00  0.00     0.134 H 
ENDROOT
TORSDOF 12
ENDMDL
MODEL 11
REMARK VINA RESULT:      -7.3      2.679      7.263
REMARK  0 active torsions:
REMARK  status: ('A' for Active; 'I' for Inactive)
REMARK       I    between atoms: C5_1  and  C6_18 
REMARK       I    between atoms: C5_2  and  C6_30 
REMARK       I    between atoms: O4_3  and  C4_14 
REMARK       I    between atoms: C2_4  and  O2_23 
REMARK       I    between atoms: C7_5  and  C8_27 
REMARK       I    between atoms: C7_5  and  N_24 
REMARK       I    between atoms: S_9  and  O6_13 
REMARK       I    between atoms: O1_12  and  C1_29 
REMARK       I    between atoms: O6_13  and  C6_18 
REMARK       I    between atoms: C3_15  and  O3_28 
REMARK       I    between atoms: C3_16  and  O3_20 
REMARK       I    between atoms: C2_19  and  N_24 
REMARK       I    between atoms: C1_26  and  O3_28 
ROOT
ATOM      1  C5  NG6 d 399      12.686  -2.873  28.916  0.00  0.00     0.090 C 
ATOM      2  O4  NG6 d 399      15.085  -2.959  29.148  0.00  0.00    -0.390 OA
ATOM      3  C7  NG6 d 399      11.862  -7.146  30.176  0.00  0.00     0.214 C 
ATOM      4  O3S NG6 d 399      11.221  -0.885  25.106  0.00  0.00    -0.572 OA
ATOM      5  O7  NG6 d 399      11.472  -8.196  30.685  0.00  0.00    -0.274 OA
ATOM      6  O1S NG6 d 399      13.324  -0.083  26.069  0.00  0.00    -0.572 OA
ATOM      7  S   NG6 d 399      11.865  -0.332  26.340  0.00  0.00     0.251 S 
ATOM      8  O5  NG6 d 399      12.740  -3.793  27.831  0.00  0.00    -0.349 OA
ATOM      9  O1  NG6 d 399      12.538  -5.973  27.113  0.00  0.00    -0.369 OA
ATOM     10  O6  NG6 d 399      11.722  -1.279  27.406  0.00  0.00    -0.254 OA
ATOM     11  C4  NG6 d 399      13.852  -3.140  29.855  0.00  0.00     0.089 C 
ATOM     12  C3  NG6 d 399      13.764  -4.565  30.404  0.00  0.00     0.093 C 
ATOM     13  C6  NG6 d 399      12.796  -1.486  28.315  0.00  0.00     0.067 C 
ATOM     14  C2  NG6 d 399      13.543  -5.600  29.288  0.00  0.00     0.087 C 
ATOM     15  O2S NG6 d 399      11.213   0.974  26.723  0.00  0.00    -0.572 OA
ATOM     16  N   NG6 d 399      13.136  -6.885  29.890  0.00  0.00    -0.349 N 
ATOM     17  C8  NG6 d 399      10.875  -6.018  29.827  0.00  0.00    -0.003 C 
ATOM     18  O3  NG6 d 399      14.994  -4.877  31.048  0.00  0.00    -0.348 OA
ATOM     19  C1  NG6 d 399      12.484  -5.133  28.274  0.00  0.00     0.151 C 
ATOM     20  H   NG6 d 399      11.780  -2.970  29.476  0.00  0.00     0.090 H 
ATOM     21  H   NG6 d 399      15.131  -2.053  28.804  0.00  0.00     0.210 HD
ATOM     22  H   NG6 d 399      11.872  -5.682  26.472  0.00  0.00     0.212 HD
ATOM     23  H   NG6 d 399      13.812  -2.452  30.675  0.00  0.00     0.091 H 
ATOM     24  H   NG6 d 399      12.934  -4.608  31.077  0.00  0.00     0.091 H 
ATOM     25  H   NG6 d 399      13.727  -1.394  27.795  0.00  0.00     0.080 H 
ATOM     26  H   NG6 d 399      12.751  -0.754  29.095  0.00  0.00     0.080 H 
ATOM     27  H   NG6 d 399      14.464  -5.719  28.755  0.00  0.00     0.084 H 
ATOM     28  H   NG6 d 399      13.821  -7.564  30.084  0.00  0.00     0.163 HD
ATOM     29  H   NG6 d 399      11.409  -5.197  29.397  0.00  0.00     0.040 H 
ATOM     30  H   NG6 d 399      10.377  -5.692  30.716  0.00  0.00     0.040 H 
ATOM     31  H   NG6 d 399      10.153  -6.381  29.126  0.00  0.00     0.040 H 
ATOM     32  H   NG6 d 399      11.531  -5.180  28.757  0.00  0.00     0.132 H 
ATOM     33  C5  GCD d 400      16.014  -3.141  33.902  0.00  0.00     0.147 C 
ATOM     34  C2  GCD d 400      15.724  -5.753  33.116  0.00  0.00     0.111 C 
ATOM     35  O6A GCD d 400      16.340  -0.879  33.314  0.00  0.00    -0.642 OA
ATOM     36  C3  GCD d 400      15.705  -5.541  34.624  0.00  0.00     0.084 C 
ATOM     37  O5  GCD d 400      15.343  -3.355  32.728  0.00  0.00    -0.311 OA
ATOM     38  O3  GCD d 400      16.606  -6.459  35.253  0.00  0.00    -0.389 OA
ATOM     39  O6B GCD d 400      17.143  -1.550  35.254  0.00  0.00    -0.642 OA
ATOM     40  O2  GCD d 400      15.192  -7.034  32.798  0.00  0.00    -0.388 OA
ATOM     41  C4  GCD d 400      16.194  -4.124  34.867  0.00  0.00    -0.034 C 
ATOM     42  C1  GCD d 400      14.877  -4.685  32.450  0.00  0.00     0.165 C 
ATOM     43  C6  GCD d 400      16.552  -1.752  34.174  0.00  0.00     0.233 C 
ATOM     44  H   GCD d 400      16.733  -5.692  32.766  0.00  0.00     0.095 H 
ATOM     45  H   GCD d 400      14.725  -5.696  35.024  0.00  0.00     0.093 H 
ATOM     46  H   GCD d 400      17.500  -6.328  34.899  0.00  0.00     0.210 HD
ATOM     47  H   GCD d 400      14.276  -7.090  33.114  0.00  0.00     0.210 HD
ATOM     48  H   GCD d 400      16.665  -3.889  35.755  0.00  0.00     0.085 H 
ATOM     49  H   GCD d 400      13.876  -4.774  32.817  0.00  0.00     0.134 H 
ENDROOT
TORSDOF 12
ENDMDL
MODEL 12
REMARK VINA RESULT:      -7.2      2.919      7.332
REMARK  0 active torsions:
REMARK  status: ('A' for Active; 'I' for Inactive)
REMARK       I    between atoms: C5_1  and  C6_18 
REMARK       I    between atoms: C5_2  and  C6_30 
REMARK       I    between atoms: O4_3  and  C4_14 
REMARK       I    between atoms: C2_4  and  O2_23 
REMARK       I    between atoms: C7_5  and  C8_27 
REMARK       I    between atoms: C7_5  and  N_24 
REMARK       I    between atoms: S_9  and  O6_13 
REMARK       I    between atoms: O1_12  and  C1_29 
REMARK       I    between atoms: O6_13  and  C6_18 
REMARK       I    between atoms: C3_15  and  O3_28 
REMARK       I    between atoms: C3_16  and  O3_20 
REMARK       I    between atoms: C2_19  and  N_24 
REMARK       I    between atoms: C1_26  and  O3_28 
ROOT
ATOM      1  C5  NG6 d 399      12.803  -3.523  29.704  0.00  0.00     0.090 C 
ATOM      2  O4  NG6 d 399      15.105  -2.873  29.404  0.00  0.00    -0.390 OA
ATOM      3  C7  NG6 d 399      13.432  -7.986  29.251  0.00  0.00     0.214 C 
ATOM      4  O3S NG6 d 399       9.807  -1.003  27.403  0.00  0.00    -0.572 OA
ATOM      5  O7  NG6 d 399      13.476  -9.212  29.354  0.00  0.00    -0.274 OA
ATOM      6  O1S NG6 d 399      11.856   0.091  28.175  0.00  0.00    -0.572 OA
ATOM      7  S   NG6 d 399      10.653  -0.706  28.602  0.00  0.00     0.251 S 
ATOM      8  O5  NG6 d 399      12.731  -3.961  28.351  0.00  0.00    -0.349 OA
ATOM      9  O1  NG6 d 399      12.831  -5.717  26.864  0.00  0.00    -0.369 OA
ATOM     10  O6  NG6 d 399      11.073  -1.941  29.196  0.00  0.00    -0.254 OA
ATOM     11  C4  NG6 d 399      14.230  -3.678  30.204  0.00  0.00     0.089 C 
ATOM     12  C3  NG6 d 399      14.652  -5.147  30.130  0.00  0.00     0.093 C 
ATOM     13  C6  NG6 d 399      12.393  -2.064  29.711  0.00  0.00     0.067 C 
ATOM     14  C2  NG6 d 399      14.344  -5.766  28.757  0.00  0.00     0.087 C 
ATOM     15  O2S NG6 d 399       9.866   0.103  29.603  0.00  0.00    -0.572 OA
ATOM     16  N   NG6 d 399      14.456  -7.236  28.851  0.00  0.00    -0.349 N 
ATOM     17  C8  NG6 d 399      12.150  -7.206  29.593  0.00  0.00    -0.003 C 
ATOM     18  O3  NG6 d 399      16.058  -5.222  30.336  0.00  0.00    -0.348 OA
ATOM     19  C1  NG6 d 399      12.945  -5.375  28.251  0.00  0.00     0.151 C 
ATOM     20  H   NG6 d 399      12.163  -4.097  30.342  0.00  0.00     0.090 H 
ATOM     21  H   NG6 d 399      14.830  -1.945  29.457  0.00  0.00     0.210 HD
ATOM     22  H   NG6 d 399      11.951  -5.471  26.541  0.00  0.00     0.212 HD
ATOM     23  H   NG6 d 399      14.287  -3.354  31.222  0.00  0.00     0.091 H 
ATOM     24  H   NG6 d 399      14.106  -5.684  30.877  0.00  0.00     0.091 H 
ATOM     25  H   NG6 d 399      13.069  -1.500  29.101  0.00  0.00     0.080 H 
ATOM     26  H   NG6 d 399      12.423  -1.689  30.713  0.00  0.00     0.080 H 
ATOM     27  H   NG6 d 399      15.056  -5.388  28.053  0.00  0.00     0.084 H 
ATOM     28  H   NG6 d 399      15.306  -7.670  28.613  0.00  0.00     0.163 HD
ATOM     29  H   NG6 d 399      12.317  -6.161  29.438  0.00  0.00     0.040 H 
ATOM     30  H   NG6 d 399      11.890  -7.378  30.617  0.00  0.00     0.040 H 
ATOM     31  H   NG6 d 399      11.353  -7.537  28.962  0.00  0.00     0.040 H 
ATOM     32  H   NG6 d 399      12.227  -5.894  28.851  0.00  0.00     0.132 H 
ATOM     33  C5  GCD d 400      17.477  -4.288  33.387  0.00  0.00     0.147 C 
ATOM     34  C2  GCD d 400      17.577  -6.432  31.680  0.00  0.00     0.111 C 
ATOM     35  O6A GCD d 400      17.067  -1.987  33.720  0.00  0.00    -0.642 OA
ATOM     36  C3  GCD d 400      17.977  -6.748  33.116  0.00  0.00     0.084 C 
ATOM     37  O5  GCD d 400      16.545  -4.314  32.385  0.00  0.00    -0.311 OA
ATOM     38  O3  GCD d 400      19.217  -7.464  33.125  0.00  0.00    -0.389 OA
ATOM     39  O6B GCD d 400      18.565  -2.950  35.019  0.00  0.00    -0.642 OA
ATOM     40  O2  GCD d 400      17.286  -7.637  30.980  0.00  0.00    -0.388 OA
ATOM     41  C4  GCD d 400      18.172  -5.413  33.812  0.00  0.00    -0.034 C 
ATOM     42  C1  GCD d 400      16.339  -5.553  31.688  0.00  0.00     0.165 C 
ATOM     43  C6  GCD d 400      17.733  -2.970  34.090  0.00  0.00     0.233 C 
ATOM     44  H   GCD d 400      18.384  -5.926  31.194  0.00  0.00     0.095 H 
ATOM     45  H   GCD d 400      17.233  -7.344  33.602  0.00  0.00     0.093 H 
ATOM     46  H   GCD d 400      19.900  -6.933  32.687  0.00  0.00     0.210 HD
ATOM     47  H   GCD d 400      16.554  -8.097  31.420  0.00  0.00     0.210 HD
ATOM     48  H   GCD d 400      18.826  -5.341  34.608  0.00  0.00     0.085 H 
ATOM     49  H   GCD d 400      15.552  -6.088  32.176  0.00  0.00     0.134 H 
ENDROOT
TORSDOF 12
ENDMDL
MODEL 13
REMARK VINA RESULT:      -7.1      2.663      6.458
REMARK  0 active torsions:
REMARK  status: ('A' for Active; 'I' for Inactive)
REMARK       I    between atoms: C5_1  and  C6_18 
REMARK       I    between atoms: C5_2  and  C6_30 
REMARK       I    between atoms: O4_3  and  C4_14 
REMARK       I    between atoms: C2_4  and  O2_23 
REMARK       I    between atoms: C7_5  and  C8_27 
REMARK       I    between atoms: C7_5  and  N_24 
REMARK       I    between atoms: S_9  and  O6_13 
REMARK       I    between atoms: O1_12  and  C1_29 
REMARK       I    between atoms: O6_13  and  C6_18 
REMARK       I    between atoms: C3_15  and  O3_28 
REMARK       I    between atoms: C3_16  and  O3_20 
REMARK       I    between atoms: C2_19  and  N_24 
REMARK       I    between atoms: C1_26  and  O3_28 
ROOT
ATOM      1  C5  NG6 d 399      12.069  -1.718  29.424  0.00  0.00     0.090 C 
ATOM      2  O4  NG6 d 399      14.316  -2.442  28.935  0.00  0.00    -0.390 OA
ATOM      3  C7  NG6 d 399       9.931  -5.115  27.325  0.00  0.00     0.214 C 
ATOM      4  O3S NG6 d 399      11.323   2.714  28.772  0.00  0.00    -0.572 OA
ATOM      5  O7  NG6 d 399       9.227  -6.064  26.982  0.00  0.00    -0.274 OA
ATOM      6  O1S NG6 d 399      13.567   2.031  29.470  0.00  0.00    -0.572 OA
ATOM      7  S   NG6 d 399      12.104   1.973  29.813  0.00  0.00     0.251 S 
ATOM      8  O5  NG6 d 399      11.833  -1.458  28.045  0.00  0.00    -0.349 OA
ATOM      9  O1  NG6 d 399      10.954  -2.194  26.046  0.00  0.00    -0.369 OA
ATOM     10  O6  NG6 d 399      11.664   0.609  29.845  0.00  0.00    -0.254 OA
ATOM     11  C4  NG6 d 399      13.087  -2.839  29.554  0.00  0.00     0.089 C 
ATOM     12  C3  NG6 d 399      12.550  -4.109  28.891  0.00  0.00     0.093 C 
ATOM     13  C6  NG6 d 399      12.614  -0.435  30.020  0.00  0.00     0.067 C 
ATOM     14  C2  NG6 d 399      12.018  -3.839  27.474  0.00  0.00     0.087 C 
ATOM     15  O2S NG6 d 399      11.897   2.609  31.166  0.00  0.00    -0.572 OA
ATOM     16  N   NG6 d 399      11.222  -4.999  27.024  0.00  0.00    -0.349 N 
ATOM     17  C8  NG6 d 399       9.352  -3.957  28.158  0.00  0.00    -0.003 C 
ATOM     18  O3  NG6 d 399      13.616  -5.046  28.784  0.00  0.00    -0.348 OA
ATOM     19  C1  NG6 d 399      11.164  -2.560  27.416  0.00  0.00     0.151 C 
ATOM     20  H   NG6 d 399      11.176  -2.018  29.931  0.00  0.00     0.090 H 
ATOM     21  H   NG6 d 399      14.648  -1.636  29.361  0.00  0.00     0.210 HD
ATOM     22  H   NG6 d 399      10.417  -1.388  26.006  0.00  0.00     0.212 HD
ATOM     23  H   NG6 d 399      13.264  -3.040  30.590  0.00  0.00     0.091 H 
ATOM     24  H   NG6 d 399      11.747  -4.480  29.493  0.00  0.00     0.091 H 
ATOM     25  H   NG6 d 399      13.528  -0.173  29.529  0.00  0.00     0.080 H 
ATOM     26  H   NG6 d 399      12.801  -0.577  31.065  0.00  0.00     0.080 H 
ATOM     27  H   NG6 d 399      12.856  -3.694  26.824  0.00  0.00     0.084 H 
ATOM     28  H   NG6 d 399      11.657  -5.703  26.491  0.00  0.00     0.163 HD
ATOM     29  H   NG6 d 399      10.121  -3.238  28.350  0.00  0.00     0.040 H 
ATOM     30  H   NG6 d 399       8.979  -4.337  29.086  0.00  0.00     0.040 H 
ATOM     31  H   NG6 d 399       8.555  -3.492  27.616  0.00  0.00     0.040 H 
ATOM     32  H   NG6 d 399      10.244  -2.762  27.922  0.00  0.00     0.132 H 
ATOM     33  C5  GCD d 400      15.122  -6.385  31.636  0.00  0.00     0.147 C 
ATOM     34  C2  GCD d 400      14.024  -7.314  29.301  0.00  0.00     0.111 C 
ATOM     35  O6A GCD d 400      16.150  -4.624  32.825  0.00  0.00    -0.642 OA
ATOM     36  C3  GCD d 400      14.068  -8.336  30.430  0.00  0.00     0.084 C 
ATOM     37  O5  GCD d 400      14.423  -5.478  30.887  0.00  0.00    -0.311 OA
ATOM     38  O3  GCD d 400      14.629  -9.562  29.949  0.00  0.00    -0.389 OA
ATOM     39  O6B GCD d 400      16.692  -6.685  33.391  0.00  0.00    -0.642 OA
ATOM     40  O2  GCD d 400      13.115  -7.741  28.292  0.00  0.00    -0.388 OA
ATOM     41  C4  GCD d 400      14.979  -7.760  31.498  0.00  0.00    -0.034 C 
ATOM     42  C1  GCD d 400      13.560  -5.979  29.853  0.00  0.00     0.165 C 
ATOM     43  C6  GCD d 400      16.072  -5.859  32.692  0.00  0.00     0.233 C 
ATOM     44  H   GCD d 400      15.002  -7.217  28.877  0.00  0.00     0.095 H 
ATOM     45  H   GCD d 400      13.087  -8.534  30.809  0.00  0.00     0.093 H 
ATOM     46  H   GCD d 400      15.520  -9.396  29.602  0.00  0.00     0.210 HD
ATOM     47  H   GCD d 400      12.227  -7.829  28.675  0.00  0.00     0.210 HD
ATOM     48  H   GCD d 400      15.496  -8.394  32.127  0.00  0.00     0.085 H 
ATOM     49  H   GCD d 400      12.582  -6.108  30.264  0.00  0.00     0.134 H 
ENDROOT
TORSDOF 12
ENDMDL
MODEL 14
REMARK VINA RESULT:      -7.1      2.714      7.071
REMARK  0 active torsions:
REMARK  status: ('A' for Active; 'I' for Inactive)
REMARK       I    between atoms: C5_1  and  C6_18 
REMARK       I    between atoms: C5_2  and  C6_30 
REMARK       I    between atoms: O4_3  and  C4_14 
REMARK       I    between atoms: C2_4  and  O2_23 
REMARK       I    between atoms: C7_5  and  C8_27 
REMARK       I    between atoms: C7_5  and  N_24 
REMARK       I    between atoms: S_9  and  O6_13 
REMARK       I    between atoms: O1_12  and  C1_29 
REMARK       I    between atoms: O6_13  and  C6_18 
REMARK       I    between atoms: C3_15  and  O3_28 
REMARK       I    between atoms: C3_16  and  O3_20 
REMARK       I    between atoms: C2_19  and  N_24 
REMARK       I    between atoms: C1_26  and  O3_28 
ROOT
ATOM      1  C5  NG6 d 399      12.797  -2.917  29.392  0.00  0.00     0.090 C 
ATOM      2  O4  NG6 d 399      15.192  -3.193  29.432  0.00  0.00    -0.390 OA
ATOM      3  C7  NG6 d 399      11.762  -7.246  28.551  0.00  0.00     0.214 C 
ATOM      4  O3S NG6 d 399      11.344   0.682  27.034  0.00  0.00    -0.572 OA
ATOM      5  O7  NG6 d 399      11.326  -8.396  28.530  0.00  0.00    -0.274 OA
ATOM      6  O1S NG6 d 399      13.515   0.857  28.150  0.00  0.00    -0.572 OA
ATOM      7  S   NG6 d 399      12.053   0.566  28.348  0.00  0.00     0.251 S 
ATOM      8  O5  NG6 d 399      12.767  -3.221  28.002  0.00  0.00    -0.349 OA
ATOM      9  O1  NG6 d 399      12.418  -4.800  26.361  0.00  0.00    -0.369 OA
ATOM     10  O6  NG6 d 399      11.885  -0.764  28.855  0.00  0.00    -0.254 OA
ATOM     11  C4  NG6 d 399      13.971  -3.637  30.036  0.00  0.00     0.089 C 
ATOM     12  C3  NG6 d 399      13.816  -5.148  29.859  0.00  0.00     0.093 C 
ATOM     13  C6  NG6 d 399      12.970  -1.415  29.504  0.00  0.00     0.067 C 
ATOM     14  C2  NG6 d 399      13.504  -5.529  28.402  0.00  0.00     0.087 C 
ATOM     15  O2S NG6 d 399      11.488   1.563  29.330  0.00  0.00    -0.572 OA
ATOM     16  N   NG6 d 399      13.040  -6.930  28.354  0.00  0.00    -0.349 N 
ATOM     17  C8  NG6 d 399      10.833  -6.050  28.821  0.00  0.00    -0.003 C 
ATOM     18  O3  NG6 d 399      15.043  -5.772  30.218  0.00  0.00    -0.348 OA
ATOM     19  C1  NG6 d 399      12.446  -4.601  27.780  0.00  0.00     0.151 C 
ATOM     20  H   NG6 d 399      11.902  -3.230  29.888  0.00  0.00     0.090 H 
ATOM     21  H   NG6 d 399      15.281  -2.234  29.549  0.00  0.00     0.210 HD
ATOM     22  H   NG6 d 399      11.753  -4.216  25.965  0.00  0.00     0.212 HD
ATOM     23  H   NG6 d 399      13.994  -3.413  31.082  0.00  0.00     0.091 H 
ATOM     24  H   NG6 d 399      13.004  -5.471  30.476  0.00  0.00     0.091 H 
ATOM     25  H   NG6 d 399      13.890  -1.125  29.039  0.00  0.00     0.080 H 
ATOM     26  H   NG6 d 399      12.990  -1.133  30.537  0.00  0.00     0.080 H 
ATOM     27  H   NG6 d 399      14.401  -5.419  27.828  0.00  0.00     0.084 H 
ATOM     28  H   NG6 d 399      13.690  -7.646  28.172  0.00  0.00     0.163 HD
ATOM     29  H   NG6 d 399      11.401  -5.144  28.797  0.00  0.00     0.040 H 
ATOM     30  H   NG6 d 399      10.379  -6.160  29.784  0.00  0.00     0.040 H 
ATOM     31  H   NG6 d 399      10.072  -6.013  28.070  0.00  0.00     0.040 H 
ATOM     32  H   NG6 d 399      11.506  -4.833  28.234  0.00  0.00     0.132 H 
ATOM     33  C5  GCD d 400      16.242  -5.619  33.494  0.00  0.00     0.147 C 
ATOM     34  C2  GCD d 400      15.780  -7.544  31.596  0.00  0.00     0.111 C 
ATOM     35  O6A GCD d 400      16.682  -3.360  34.016  0.00  0.00    -0.642 OA
ATOM     36  C3  GCD d 400      15.815  -8.064  33.027  0.00  0.00     0.084 C 
ATOM     37  O5  GCD d 400      15.528  -5.231  32.393  0.00  0.00    -0.311 OA
ATOM     38  O3  GCD d 400      16.679  -9.203  33.106  0.00  0.00    -0.389 OA
ATOM     39  O6B GCD d 400      17.499  -4.893  35.373  0.00  0.00    -0.642 OA
ATOM     40  O2  GCD d 400      15.165  -8.504  30.744  0.00  0.00    -0.388 OA
ATOM     41  C4  GCD d 400      16.392  -6.946  33.877  0.00  0.00    -0.034 C 
ATOM     42  C1  GCD d 400      14.977  -6.256  31.551  0.00  0.00     0.165 C 
ATOM     43  C6  GCD d 400      16.868  -4.542  34.356  0.00  0.00     0.233 C 
ATOM     44  H   GCD d 400      16.780  -7.364  31.262  0.00  0.00     0.095 H 
ATOM     45  H   GCD d 400      14.839  -8.351  33.358  0.00  0.00     0.093 H 
ATOM     46  H   GCD d 400      17.568  -8.956  32.809  0.00  0.00     0.210 HD
ATOM     47  H   GCD d 400      14.257  -8.668  31.045  0.00  0.00     0.210 HD
ATOM     48  H   GCD d 400      16.900  -7.174  34.747  0.00  0.00     0.085 H 
ATOM     49  H   GCD d 400      13.984  -6.470  31.885  0.00  0.00     0.134 H 
ENDROOT
TORSDOF 12
ENDMDL
MODEL 15
REMARK VINA RESULT:      -7.1      2.962      4.093
REMARK  0 active torsions:
REMARK  status: ('A' for Active; 'I' for Inactive)
REMARK       I    between atoms: C5_1  and  C6_18 
REMARK       I    between atoms: C5_2  and  C6_30 
REMARK       I    between atoms: O4_3  and  C4_14 
REMARK       I    between atoms: C2_4  and  O2_23 
REMARK       I    between atoms: C7_5  and  C8_27 
REMARK       I    between atoms: C7_5  and  N_24 
REMARK       I    between atoms: S_9  and  O6_13 
REMARK       I    between atoms: O1_12  and  C1_29 
REMARK       I    between atoms: O6_13  and  C6_18 
REMARK       I    between atoms: C3_15  and  O3_28 
REMARK       I    between atoms: C3_16  and  O3_20 
REMARK       I    between atoms: C2_19  and  N_24 
REMARK       I    between atoms: C1_26  and  O3_28 
ROOT
ATOM      1  C5  NG6 d 399      15.214  -6.169  31.018  0.00  0.00     0.090 C 
ATOM      2  O4  NG6 d 399      14.001  -4.539  32.315  0.00  0.00    -0.390 OA
ATOM      3  C7  NG6 d 399      11.679  -7.725  28.652  0.00  0.00     0.214 C 
ATOM      4  O3S NG6 d 399      18.146  -8.686  33.403  0.00  0.00    -0.572 OA
ATOM      5  O7  NG6 d 399      10.869  -8.099  27.804  0.00  0.00    -0.274 OA
ATOM      6  O1S NG6 d 399      17.749  -6.390  34.152  0.00  0.00    -0.572 OA
ATOM      7  S   NG6 d 399      18.168  -7.248  32.989  0.00  0.00     0.251 S 
ATOM      8  O5  NG6 d 399      14.528  -7.229  31.675  0.00  0.00    -0.349 OA
ATOM      9  O1  NG6 d 399      12.806  -8.759  31.630  0.00  0.00    -0.369 OA
ATOM     10  O6  NG6 d 399      17.260  -7.062  31.895  0.00  0.00    -0.254 OA
ATOM     11  C4  NG6 d 399      14.317  -4.943  30.977  0.00  0.00     0.089 C 
ATOM     12  C3  NG6 d 399      13.034  -5.262  30.207  0.00  0.00     0.093 C 
ATOM     13  C6  NG6 d 399      16.461  -5.887  31.833  0.00  0.00     0.067 C 
ATOM     14  C2  NG6 d 399      12.378  -6.565  30.694  0.00  0.00     0.087 C 
ATOM     15  O2S NG6 d 399      19.562  -6.851  32.571  0.00  0.00    -0.572 OA
ATOM     16  N   NG6 d 399      11.358  -6.991  29.714  0.00  0.00    -0.349 N 
ATOM     17  C8  NG6 d 399      13.170  -8.088  28.540  0.00  0.00    -0.003 C 
ATOM     18  O3  NG6 d 399      12.107  -4.203  30.420  0.00  0.00    -0.348 OA
ATOM     19  C1  NG6 d 399      13.413  -7.685  30.899  0.00  0.00     0.151 C 
ATOM     20  H   NG6 d 399      15.472  -6.426  30.012  0.00  0.00     0.090 H 
ATOM     21  H   NG6 d 399      14.820  -4.339  32.795  0.00  0.00     0.210 HD
ATOM     22  H   NG6 d 399      13.455  -9.467  31.762  0.00  0.00     0.212 HD
ATOM     23  H   NG6 d 399      14.828  -4.145  30.480  0.00  0.00     0.091 H 
ATOM     24  H   NG6 d 399      13.289  -5.373  29.174  0.00  0.00     0.091 H 
ATOM     25  H   NG6 d 399      16.181  -5.592  32.823  0.00  0.00     0.080 H 
ATOM     26  H   NG6 d 399      17.019  -5.099  31.372  0.00  0.00     0.080 H 
ATOM     27  H   NG6 d 399      11.920  -6.375  31.642  0.00  0.00     0.084 H 
ATOM     28  H   NG6 d 399      10.420  -6.725  29.850  0.00  0.00     0.163 HD
ATOM     29  H   NG6 d 399      13.701  -7.672  29.371  0.00  0.00     0.040 H 
ATOM     30  H   NG6 d 399      13.566  -7.692  27.628  0.00  0.00     0.040 H 
ATOM     31  H   NG6 d 399      13.279  -9.152  28.544  0.00  0.00     0.040 H 
ATOM     32  H   NG6 d 399      13.746  -7.998  29.932  0.00  0.00     0.132 H 
ATOM     33  C5  GCD d 400      12.775  -0.975  29.267  0.00  0.00     0.147 C 
ATOM     34  C2  GCD d 400      10.723  -2.790  29.128  0.00  0.00     0.111 C 
ATOM     35  O6A GCD d 400      14.687  -0.169  30.392  0.00  0.00    -0.642 OA
ATOM     36  C3  GCD d 400      10.716  -1.741  28.023  0.00  0.00     0.084 C 
ATOM     37  O5  GCD d 400      13.054  -2.246  29.691  0.00  0.00    -0.311 OA
ATOM     38  O3  GCD d 400       9.410  -1.164  27.914  0.00  0.00    -0.389 OA
ATOM     39  O6B GCD d 400      13.467   1.296  29.285  0.00  0.00    -0.642 OA
ATOM     40  O2  GCD d 400       9.889  -3.885  28.766  0.00  0.00    -0.388 OA
ATOM     41  C4  GCD d 400      11.700  -0.665  28.443  0.00  0.00    -0.034 C 
ATOM     42  C1  GCD d 400      12.141  -3.294  29.330  0.00  0.00     0.165 C 
ATOM     43  C6  GCD d 400      13.708   0.141  29.690  0.00  0.00     0.233 C 
ATOM     44  H   GCD d 400      10.358  -2.350  30.032  0.00  0.00     0.095 H 
ATOM     45  H   GCD d 400      10.978  -2.173  27.079  0.00  0.00     0.093 H 
ATOM     46  H   GCD d 400       9.160  -0.768  28.764  0.00  0.00     0.210 HD
ATOM     47  H   GCD d 400      10.219  -4.285  27.947  0.00  0.00     0.210 HD
ATOM     48  H   GCD d 400      11.569   0.305  28.115  0.00  0.00     0.085 H 
ATOM     49  H   GCD d 400      12.474  -3.730  28.412  0.00  0.00     0.134 H 
ENDROOT
TORSDOF 12
ENDMDL
MODEL 16
REMARK VINA RESULT:      -7.0      3.417      6.021
REMARK  0 active torsions:
REMARK  status: ('A' for Active; 'I' for Inactive)
REMARK       I    between atoms: C5_1  and  C6_18 
REMARK       I    between atoms: C5_2  and  C6_30 
REMARK       I    between atoms: O4_3  and  C4_14 
REMARK       I    between atoms: C2_4  and  O2_23 
REMARK       I    between atoms: C7_5  and  C8_27 
REMARK       I    between atoms: C7_5  and  N_24 
REMARK       I    between atoms: S_9  and  O6_13 
REMARK       I    between atoms: O1_12  and  C1_29 
REMARK       I    between atoms: O6_13  and  C6_18 
REMARK       I    between atoms: C3_15  and  O3_28 
REMARK       I    between atoms: C3_16  and  O3_20 
REMARK       I    between atoms: C2_19  and  N_24 
REMARK       I    between atoms: C1_26  and  O3_28 
ROOT
ATOM      1  C5  NG6 d 399      16.348  -6.170  32.924  0.00  0.00     0.090 C 
ATOM      2  O4  NG6 d 399      16.450  -7.008  30.665  0.00  0.00    -0.390 OA
ATOM      3  C7  NG6 d 399      16.337  -1.764  31.870  0.00  0.00     0.214 C 
ATOM      4  O3S NG6 d 399      19.174  -8.211  35.833  0.00  0.00    -0.572 OA
ATOM      5  O7  NG6 d 399      16.123  -0.560  31.735  0.00  0.00    -0.274 OA
ATOM      6  O1S NG6 d 399      18.282  -9.550  33.988  0.00  0.00    -0.572 OA
ATOM      7  S   NG6 d 399      17.921  -8.679  35.161  0.00  0.00     0.251 S 
ATOM      8  O5  NG6 d 399      17.657  -5.624  32.800  0.00  0.00    -0.349 OA
ATOM      9  O1  NG6 d 399      18.965  -3.776  32.378  0.00  0.00    -0.369 OA
ATOM     10  O6  NG6 d 399      17.178  -7.539  34.710  0.00  0.00    -0.254 OA
ATOM     11  C4  NG6 d 399      15.683  -6.189  31.557  0.00  0.00     0.089 C 
ATOM     12  C3  NG6 d 399      15.582  -4.766  31.006  0.00  0.00     0.093 C 
ATOM     13  C6  NG6 d 399      16.513  -7.581  33.453  0.00  0.00     0.067 C 
ATOM     14  C2  NG6 d 399      16.921  -4.015  31.098  0.00  0.00     0.087 C 
ATOM     15  O2S NG6 d 399      17.086  -9.485  36.125  0.00  0.00    -0.572 OA
ATOM     16  N   NG6 d 399      16.687  -2.574  30.874  0.00  0.00    -0.349 N 
ATOM     17  C8  NG6 d 399      16.207  -2.445  33.244  0.00  0.00    -0.003 C 
ATOM     18  O3  NG6 d 399      15.218  -4.839  29.633  0.00  0.00    -0.348 OA
ATOM     19  C1  NG6 d 399      17.609  -4.233  32.457  0.00  0.00     0.151 C 
ATOM     20  H   NG6 d 399      15.736  -5.590  33.582  0.00  0.00     0.090 H 
ATOM     21  H   NG6 d 399      16.509  -7.908  31.023  0.00  0.00     0.210 HD
ATOM     22  H   NG6 d 399      19.402  -3.912  33.233  0.00  0.00     0.212 HD
ATOM     23  H   NG6 d 399      14.697  -6.595  31.647  0.00  0.00     0.091 H 
ATOM     24  H   NG6 d 399      14.855  -4.239  31.588  0.00  0.00     0.091 H 
ATOM     25  H   NG6 d 399      17.093  -8.156  32.761  0.00  0.00     0.080 H 
ATOM     26  H   NG6 d 399      15.550  -8.033  33.573  0.00  0.00     0.080 H 
ATOM     27  H   NG6 d 399      17.573  -4.403  30.344  0.00  0.00     0.084 H 
ATOM     28  H   NG6 d 399      16.792  -2.205  29.968  0.00  0.00     0.163 HD
ATOM     29  H   NG6 d 399      16.433  -3.486  33.149  0.00  0.00     0.040 H 
ATOM     30  H   NG6 d 399      15.206  -2.329  33.607  0.00  0.00     0.040 H 
ATOM     31  H   NG6 d 399      16.890  -1.992  33.932  0.00  0.00     0.040 H 
ATOM     32  H   NG6 d 399      17.048  -3.696  33.193  0.00  0.00     0.132 H 
ATOM     33  C5  GCD d 400      12.123  -6.136  28.664  0.00  0.00     0.147 C 
ATOM     34  C2  GCD d 400      13.615  -3.885  28.184  0.00  0.00     0.111 C 
ATOM     35  O6A GCD d 400      12.040  -8.406  29.303  0.00  0.00    -0.642 OA
ATOM     36  C3  GCD d 400      12.122  -3.720  27.928  0.00  0.00     0.084 C 
ATOM     37  O5  GCD d 400      13.215  -5.945  29.466  0.00  0.00    -0.311 OA
ATOM     38  O3  GCD d 400      11.915  -3.127  26.642  0.00  0.00    -0.389 OA
ATOM     39  O6B GCD d 400      10.506  -7.692  27.890  0.00  0.00    -0.642 OA
ATOM     40  O2  GCD d 400      14.234  -2.608  28.287  0.00  0.00    -0.388 OA
ATOM     41  C4  GCD d 400      11.528  -5.117  27.930  0.00  0.00    -0.034 C 
ATOM     42  C1  GCD d 400      13.820  -4.641  29.483  0.00  0.00     0.165 C 
ATOM     43  C6  GCD d 400      11.515  -7.522  28.604  0.00  0.00     0.233 C 
ATOM     44  H   GCD d 400      14.052  -4.425  27.371  0.00  0.00     0.095 H 
ATOM     45  H   GCD d 400      11.670  -3.096  28.671  0.00  0.00     0.093 H 
ATOM     46  H   GCD d 400      12.320  -3.684  25.959  0.00  0.00     0.210 HD
ATOM     47  H   GCD d 400      13.839  -2.116  29.024  0.00  0.00     0.210 HD
ATOM     48  H   GCD d 400      10.675  -5.312  27.382  0.00  0.00     0.085 H 
ATOM     49  H   GCD d 400      13.376  -4.074  30.274  0.00  0.00     0.134 H 
ENDROOT
TORSDOF 12
ENDMDL
MODEL 17
REMARK VINA RESULT:      -6.9      3.301      5.800
REMARK  0 active torsions:
REMARK  status: ('A' for Active; 'I' for Inactive)
REMARK       I    between atoms: C5_1  and  C6_18 
REMARK       I    between atoms: C5_2  and  C6_30 
REMARK       I    between atoms: O4_3  and  C4_14 
REMARK       I    between atoms: C2_4  and  O2_23 
REMARK       I    between atoms: C7_5  and  C8_27 
REMARK       I    between atoms: C7_5  and  N_24 
REMARK       I    between atoms: S_9  and  O6_13 
REMARK       I    between atoms: O1_12  and  C1_29 
REMARK       I    between atoms: O6_13  and  C6_18 
REMARK       I    between atoms: C3_15  and  O3_28 
REMARK       I    between atoms: C3_16  and  O3_20 
REMARK       I    between atoms: C2_19  and  N_24 
REMARK       I    between atoms: C1_26  and  O3_28 
ROOT
ATOM      1  C5  NG6 d 399      15.532  -5.254  32.029  0.00  0.00     0.090 C 
ATOM      2  O4  NG6 d 399      14.906  -5.208  29.701  0.00  0.00    -0.390 OA
ATOM      3  C7  NG6 d 399      16.998  -0.976  32.286  0.00  0.00     0.214 C 
ATOM      4  O3S NG6 d 399      17.848  -8.950  33.295  0.00  0.00    -0.572 OA
ATOM      5  O7  NG6 d 399      17.234   0.201  32.558  0.00  0.00    -0.274 OA
ATOM      6  O1S NG6 d 399      16.203  -9.200  31.500  0.00  0.00    -0.572 OA
ATOM      7  S   NG6 d 399      16.412  -8.748  32.919  0.00  0.00     0.251 S 
ATOM      8  O5  NG6 d 399      16.905  -5.115  31.682  0.00  0.00    -0.349 OA
ATOM      9  O1  NG6 d 399      18.717  -3.716  31.421  0.00  0.00    -0.369 OA
ATOM     10  O6  NG6 d 399      16.088  -7.357  33.041  0.00  0.00    -0.254 OA
ATOM     11  C4  NG6 d 399      14.677  -4.580  30.969  0.00  0.00     0.089 C 
ATOM     12  C3  NG6 d 399      15.025  -3.092  30.889  0.00  0.00     0.093 C 
ATOM     13  C6  NG6 d 399      15.244  -6.742  32.075  0.00  0.00     0.067 C 
ATOM     14  C2  NG6 d 399      16.541  -2.858  30.785  0.00  0.00     0.087 C 
ATOM     15  O2S NG6 d 399      15.521  -9.562  33.825  0.00  0.00    -0.572 OA
ATOM     16  N   NG6 d 399      16.833  -1.435  31.048  0.00  0.00    -0.349 N 
ATOM     17  C8  NG6 d 399      16.868  -2.036  33.394  0.00  0.00    -0.003 C 
ATOM     18  O3  NG6 d 399      14.421  -2.551  29.719  0.00  0.00    -0.348 OA
ATOM     19  C1  NG6 d 399      17.326  -3.747  31.766  0.00  0.00     0.151 C 
ATOM     20  H   NG6 d 399      15.312  -4.799  32.972  0.00  0.00     0.090 H 
ATOM     21  H   NG6 d 399      14.684  -6.150  29.762  0.00  0.00     0.210 HD
ATOM     22  H   NG6 d 399      19.215  -4.275  32.037  0.00  0.00     0.212 HD
ATOM     23  H   NG6 d 399      13.644  -4.679  31.229  0.00  0.00     0.091 H 
ATOM     24  H   NG6 d 399      14.667  -2.622  31.780  0.00  0.00     0.091 H 
ATOM     25  H   NG6 d 399      15.430  -7.172  31.113  0.00  0.00     0.080 H 
ATOM     26  H   NG6 d 399      14.220  -6.900  32.343  0.00  0.00     0.080 H 
ATOM     27  H   NG6 d 399      16.853  -3.121  29.796  0.00  0.00     0.084 H 
ATOM     28  H   NG6 d 399      16.906  -0.811  30.290  0.00  0.00     0.163 HD
ATOM     29  H   NG6 d 399      16.664  -2.989  32.952  0.00  0.00     0.040 H 
ATOM     30  H   NG6 d 399      16.067  -1.769  34.051  0.00  0.00     0.040 H 
ATOM     31  H   NG6 d 399      17.782  -2.088  33.947  0.00  0.00     0.040 H 
ATOM     32  H   NG6 d 399      17.150  -3.373  32.753  0.00  0.00     0.132 H 
ATOM     33  C5  GCD d 400      10.947  -2.430  29.385  0.00  0.00     0.147 C 
ATOM     34  C2  GCD d 400      13.067  -0.708  29.129  0.00  0.00     0.111 C 
ATOM     35  O6A GCD d 400      10.128  -4.643  29.367  0.00  0.00    -0.642 OA
ATOM     36  C3  GCD d 400      11.727  -0.028  29.380  0.00  0.00     0.084 C 
ATOM     37  O5  GCD d 400      12.154  -2.875  29.850  0.00  0.00    -0.311 OA
ATOM     38  O3  GCD d 400      11.533   1.024  28.428  0.00  0.00    -0.389 OA
ATOM     39  O6B GCD d 400       8.752  -3.045  28.723  0.00  0.00    -0.642 OA
ATOM     40  O2  GCD d 400      14.131   0.199  29.394  0.00  0.00    -0.388 OA
ATOM     41  C4  GCD d 400      10.660  -1.087  29.170  0.00  0.00    -0.034 C 
ATOM     42  C1  GCD d 400      13.199  -1.908  30.048  0.00  0.00     0.165 C 
ATOM     43  C6  GCD d 400       9.860  -3.452  29.126  0.00  0.00     0.233 C 
ATOM     44  H   GCD d 400      13.115  -1.021  28.107  0.00  0.00     0.095 H 
ATOM     45  H   GCD d 400      11.684   0.389  30.365  0.00  0.00     0.093 H 
ATOM     46  H   GCD d 400      11.569   0.659  27.530  0.00  0.00     0.210 HD
ATOM     47  H   GCD d 400      14.088   0.484  30.320  0.00  0.00     0.210 HD
ATOM     48  H   GCD d 400       9.714  -0.808  28.866  0.00  0.00     0.085 H 
ATOM     49  H   GCD d 400      13.151  -1.562  31.059  0.00  0.00     0.134 H 
ENDROOT
TORSDOF 12
ENDMDL
MODEL 18
REMARK VINA RESULT:      -6.8      3.175      5.709
REMARK  0 active torsions:
REMARK  status: ('A' for Active; 'I' for Inactive)
REMARK       I    between atoms: C5_1  and  C6_18 
REMARK       I    between atoms: C5_2  and  C6_30 
REMARK       I    between atoms: O4_3  and  C4_14 
REMARK       I    between atoms: C2_4  and  O2_23 
REMARK       I    between atoms: C7_5  and  C8_27 
REMARK       I    between atoms: C7_5  and  N_24 
REMARK       I    between atoms: S_9  and  O6_13 
REMARK       I    between atoms: O1_12  and  C1_29 
REMARK       I    between atoms: O6_13  and  C6_18 
REMARK       I    between atoms: C3_15  and  O3_28 
REMARK       I    between atoms: C3_16  and  O3_20 
REMARK       I    between atoms: C2_19  and  N_24 
REMARK       I    between atoms: C1_26  and  O3_28 
ROOT
ATOM      1  C5  NG6 d 399      16.426  -5.064  31.387  0.00  0.00     0.090 C 
ATOM      2  O4  NG6 d 399      16.603  -4.097  29.185  0.00  0.00    -0.390 OA
ATOM      3  C7  NG6 d 399      15.785  -1.185  33.637  0.00  0.00     0.214 C 
ATOM      4  O3S NG6 d 399      19.562  -8.211  32.331  0.00  0.00    -0.572 OA
ATOM      5  O7  NG6 d 399      15.404  -0.254  34.345  0.00  0.00    -0.274 OA
ATOM      6  O1S NG6 d 399      18.830  -7.999  30.005  0.00  0.00    -0.572 OA
ATOM      7  S   NG6 d 399      18.373  -8.224  31.421  0.00  0.00     0.251 S 
ATOM      8  O5  NG6 d 399      17.645  -4.440  31.778  0.00  0.00    -0.349 OA
ATOM      9  O1  NG6 d 399      18.676  -2.678  32.845  0.00  0.00    -0.369 OA
ATOM     10  O6  NG6 d 399      17.472  -7.181  31.813  0.00  0.00    -0.254 OA
ATOM     11  C4  NG6 d 399      15.746  -4.212  30.328  0.00  0.00     0.089 C 
ATOM     12  C3  NG6 d 399      15.438  -2.825  30.895  0.00  0.00     0.093 C 
ATOM     13  C6  NG6 d 399      16.796  -6.421  30.819  0.00  0.00     0.067 C 
ATOM     14  C2  NG6 d 399      16.661  -2.199  31.585  0.00  0.00     0.087 C 
ATOM     15  O2S NG6 d 399      17.676  -9.560  31.499  0.00  0.00    -0.572 OA
ATOM     16  N   NG6 d 399      16.226  -1.040  32.389  0.00  0.00    -0.349 N 
ATOM     17  C8  NG6 d 399      15.776  -2.634  34.156  0.00  0.00    -0.003 C 
ATOM     18  O3  NG6 d 399      15.063  -1.972  29.819  0.00  0.00    -0.348 OA
ATOM     19  C1  NG6 d 399      17.398  -3.214  32.477  0.00  0.00     0.151 C 
ATOM     20  H   NG6 d 399      15.752  -5.172  32.210  0.00  0.00     0.090 H 
ATOM     21  H   NG6 d 399      16.793  -4.981  28.833  0.00  0.00     0.210 HD
ATOM     22  H   NG6 d 399      19.143  -3.315  33.408  0.00  0.00     0.212 HD
ATOM     23  H   NG6 d 399      14.828  -4.676  30.034  0.00  0.00     0.091 H 
ATOM     24  H   NG6 d 399      14.656  -2.931  31.617  0.00  0.00     0.091 H 
ATOM     25  H   NG6 d 399      17.437  -6.291  29.971  0.00  0.00     0.080 H 
ATOM     26  H   NG6 d 399      15.908  -6.936  30.517  0.00  0.00     0.080 H 
ATOM     27  H   NG6 d 399      17.348  -1.883  30.827  0.00  0.00     0.084 H 
ATOM     28  H   NG6 d 399      16.262  -0.139  31.994  0.00  0.00     0.163 HD
ATOM     29  H   NG6 d 399      16.143  -3.288  33.394  0.00  0.00     0.040 H 
ATOM     30  H   NG6 d 399      14.776  -2.914  34.415  0.00  0.00     0.040 H 
ATOM     31  H   NG6 d 399      16.402  -2.706  35.020  0.00  0.00     0.040 H 
ATOM     32  H   NG6 d 399      16.782  -3.400  33.332  0.00  0.00     0.132 H 
ATOM     33  C5  GCD d 400      12.161  -2.583  27.975  0.00  0.00     0.147 C 
ATOM     34  C2  GCD d 400      13.317  -0.472  29.290  0.00  0.00     0.111 C 
ATOM     35  O6A GCD d 400      12.405  -4.659  26.878  0.00  0.00    -0.642 OA
ATOM     36  C3  GCD d 400      11.811  -0.347  29.094  0.00  0.00     0.084 C 
ATOM     37  O5  GCD d 400      13.230  -2.876  28.777  0.00  0.00    -0.311 OA
ATOM     38  O3  GCD d 400      11.500   0.940  28.551  0.00  0.00    -0.389 OA
ATOM     39  O6B GCD d 400      10.761  -3.347  26.216  0.00  0.00    -0.642 OA
ATOM     40  O2  GCD d 400      13.755   0.441  30.290  0.00  0.00    -0.388 OA
ATOM     41  C4  GCD d 400      11.416  -1.416  28.091  0.00  0.00    -0.034 C 
ATOM     42  C1  GCD d 400      13.648  -1.886  29.731  0.00  0.00     0.165 C 
ATOM     43  C6  GCD d 400      11.749  -3.603  26.933  0.00  0.00     0.233 C 
ATOM     44  H   GCD d 400      13.810  -0.250  28.367  0.00  0.00     0.095 H 
ATOM     45  H   GCD d 400      11.290  -0.462  30.022  0.00  0.00     0.093 H 
ATOM     46  H   GCD d 400      11.966   1.058  27.709  0.00  0.00     0.210 HD
ATOM     47  H   GCD d 400      13.308   0.241  31.128  0.00  0.00     0.210 HD
ATOM     48  H   GCD d 400      10.589  -1.274  27.490  0.00  0.00     0.085 H 
ATOM     49  H   GCD d 400      13.144  -2.075  30.655  0.00  0.00     0.134 H 
ENDROOT
TORSDOF 12
ENDMDL
MODEL 19
REMARK VINA RESULT:      -6.8      2.463      3.089
REMARK  0 active torsions:
REMARK  status: ('A' for Active; 'I' for Inactive)
REMARK       I    between atoms: C5_1  and  C6_18 
REMARK       I    between atoms: C5_2  and  C6_30 
REMARK       I    between atoms: O4_3  and  C4_14 
REMARK       I    between atoms: C2_4  and  O2_23 
REMARK       I    between atoms: C7_5  and  C8_27 
REMARK       I    between atoms: C7_5  and  N_24 
REMARK       I    between atoms: S_9  and  O6_13 
REMARK       I    between atoms: O1_12  and  C1_29 
REMARK       I    between atoms: O6_13  and  C6_18 
REMARK       I    between atoms: C3_15  and  O3_28 
REMARK       I    between atoms: C3_16  and  O3_20 
REMARK       I    between atoms: C2_19  and  N_24 
REMARK       I    between atoms: C1_26  and  O3_28 
ROOT
ATOM      1  C5  NG6 d 399      16.339  -4.057  32.415  0.00  0.00     0.090 C 
ATOM      2  O4  NG6 d 399      14.001  -4.362  32.921  0.00  0.00    -0.390 OA
ATOM      3  C7  NG6 d 399      16.723  -7.511  29.509  0.00  0.00     0.214 C 
ATOM      4  O3S NG6 d 399      18.979  -3.308  36.033  0.00  0.00    -0.572 OA
ATOM      5  O7  NG6 d 399      16.927  -8.269  28.561  0.00  0.00    -0.274 OA
ATOM      6  O1S NG6 d 399      16.671  -2.500  36.124  0.00  0.00    -0.572 OA
ATOM      7  S   NG6 d 399      17.957  -2.456  35.346  0.00  0.00     0.251 S 
ATOM      8  O5  NG6 d 399      16.657  -5.289  33.053  0.00  0.00    -0.349 OA
ATOM      9  O1  NG6 d 399      17.101  -7.539  32.835  0.00  0.00    -0.369 OA
ATOM     10  O6  NG6 d 399      17.742  -2.960  34.021  0.00  0.00    -0.254 OA
ATOM     11  C4  NG6 d 399      14.929  -4.135  31.853  0.00  0.00     0.089 C 
ATOM     12  C3  NG6 d 399      14.838  -5.267  30.828  0.00  0.00     0.093 C 
ATOM     13  C6  NG6 d 399      16.428  -2.981  33.479  0.00  0.00     0.067 C 
ATOM     14  C2  NG6 d 399      15.425  -6.582  31.368  0.00  0.00     0.087 C 
ATOM     15  O2S NG6 d 399      18.436  -1.027  35.278  0.00  0.00    -0.572 OA
ATOM     16  N   NG6 d 399      15.617  -7.525  30.248  0.00  0.00    -0.349 N 
ATOM     17  C8  NG6 d 399      17.763  -6.453  29.918  0.00  0.00    -0.003 C 
ATOM     18  O3  NG6 d 399      13.466  -5.495  30.529  0.00  0.00    -0.348 OA
ATOM     19  C1  NG6 d 399      16.759  -6.356  32.102  0.00  0.00     0.151 C 
ATOM     20  H   NG6 d 399      17.008  -3.844  31.607  0.00  0.00     0.090 H 
ATOM     21  H   NG6 d 399      14.067  -3.639  33.565  0.00  0.00     0.210 HD
ATOM     22  H   NG6 d 399      17.941  -7.401  33.299  0.00  0.00     0.212 HD
ATOM     23  H   NG6 d 399      14.688  -3.212  31.368  0.00  0.00     0.091 H 
ATOM     24  H   NG6 d 399      15.396  -4.975  29.963  0.00  0.00     0.091 H 
ATOM     25  H   NG6 d 399      15.723  -3.189  34.257  0.00  0.00     0.080 H 
ATOM     26  H   NG6 d 399      16.205  -2.029  33.043  0.00  0.00     0.080 H 
ATOM     27  H   NG6 d 399      14.735  -6.989  32.078  0.00  0.00     0.084 H 
ATOM     28  H   NG6 d 399      14.910  -8.179  30.044  0.00  0.00     0.163 HD
ATOM     29  H   NG6 d 399      17.398  -5.900  30.758  0.00  0.00     0.040 H 
ATOM     30  H   NG6 d 399      17.934  -5.785  29.099  0.00  0.00     0.040 H 
ATOM     31  H   NG6 d 399      18.679  -6.938  30.180  0.00  0.00     0.040 H 
ATOM     32  H   NG6 d 399      17.496  -6.116  31.365  0.00  0.00     0.132 H 
ATOM     33  C5  GCD d 400      11.541  -3.039  28.960  0.00  0.00     0.147 C 
ATOM     34  C2  GCD d 400      12.092  -5.704  28.619  0.00  0.00     0.111 C 
ATOM     35  O6A GCD d 400      11.415  -1.170  30.395  0.00  0.00    -0.642 OA
ATOM     36  C3  GCD d 400      11.605  -4.993  27.362  0.00  0.00     0.084 C 
ATOM     37  O5  GCD d 400      12.565  -3.551  29.709  0.00  0.00    -0.311 OA
ATOM     38  O3  GCD d 400      10.552  -5.751  26.757  0.00  0.00    -0.389 OA
ATOM     39  O6B GCD d 400      10.014  -1.241  28.694  0.00  0.00    -0.642 OA
ATOM     40  O2  GCD d 400      12.709  -6.939  28.271  0.00  0.00    -0.388 OA
ATOM     41  C4  GCD d 400      11.054  -3.652  27.812  0.00  0.00    -0.034 C 
ATOM     42  C1  GCD d 400      13.107  -4.827  29.329  0.00  0.00     0.165 C 
ATOM     43  C6  GCD d 400      10.933  -1.719  29.389  0.00  0.00     0.233 C 
ATOM     44  H   GCD d 400      11.258  -5.894  29.261  0.00  0.00     0.095 H 
ATOM     45  H   GCD d 400      12.398  -4.879  26.652  0.00  0.00     0.093 H 
ATOM     46  H   GCD d 400       9.827  -5.861  27.391  0.00  0.00     0.210 HD
ATOM     47  H   GCD d 400      13.466  -6.769  27.689  0.00  0.00     0.210 HD
ATOM     48  H   GCD d 400      10.313  -3.192  27.261  0.00  0.00     0.085 H 
ATOM     49  H   GCD d 400      13.928  -4.660  28.664  0.00  0.00     0.134 H 
ENDROOT
TORSDOF 12
ENDMDL
MODEL 20
REMARK VINA RESULT:      -6.7      4.058      6.579
REMARK  0 active torsions:
REMARK  status: ('A' for Active; 'I' for Inactive)
REMARK       I    between atoms: C5_1  and  C6_18 
REMARK       I    between atoms: C5_2  and  C6_30 
REMARK       I    between atoms: O4_3  and  C4_14 
REMARK       I    between atoms: C2_4  and  O2_23 
REMARK       I    between atoms: C7_5  and  C8_27 
REMARK       I    between atoms: C7_5  and  N_24 
REMARK       I    between atoms: S_9  and  O6_13 
REMARK       I    between atoms: O1_12  and  C1_29 
REMARK       I    between atoms: O6_13  and  C6_18 
REMARK       I    between atoms: C3_15  and  O3_28 
REMARK       I    between atoms: C3_16  and  O3_20 
REMARK       I    between atoms: C2_19  and  N_24 
REMARK       I    between atoms: C1_26  and  O3_28 
ROOT
ATOM      1  C5  NG6 d 399      14.241  -6.279  30.124  0.00  0.00     0.090 C 
ATOM      2  O4  NG6 d 399      12.492  -7.074  28.668  0.00  0.00    -0.390 OA
ATOM      3  C7  NG6 d 399      13.206  -1.876  29.869  0.00  0.00     0.214 C 
ATOM      4  O3S NG6 d 399      18.325  -8.110  29.354  0.00  0.00    -0.572 OA
ATOM      5  O7  NG6 d 399      12.926  -0.693  30.059  0.00  0.00    -0.274 OA
ATOM      6  O1S NG6 d 399      16.357  -9.494  28.905  0.00  0.00    -0.572 OA
ATOM      7  S   NG6 d 399      17.070  -8.674  29.945  0.00  0.00     0.251 S 
ATOM      8  O5  NG6 d 399      14.875  -5.621  29.033  0.00  0.00    -0.349 OA
ATOM      9  O1  NG6 d 399      15.216  -3.660  27.872  0.00  0.00    -0.369 OA
ATOM     10  O6  NG6 d 399      16.230  -7.596  30.377  0.00  0.00    -0.254 OA
ATOM     11  C4  NG6 d 399      12.743  -6.337  29.871  0.00  0.00     0.089 C 
ATOM     12  C3  NG6 d 399      12.181  -4.919  29.746  0.00  0.00     0.093 C 
ATOM     13  C6  NG6 d 399      14.823  -7.678  30.186  0.00  0.00     0.067 C 
ATOM     14  C2  NG6 d 399      13.000  -4.057  28.771  0.00  0.00     0.087 C 
ATOM     15  O2S NG6 d 399      17.405  -9.562  31.118  0.00  0.00    -0.572 OA
ATOM     16  N   NG6 d 399      12.627  -2.639  28.945  0.00  0.00    -0.349 N 
ATOM     17  C8  NG6 d 399      14.277  -2.585  30.717  0.00  0.00    -0.003 C 
ATOM     18  O3  NG6 d 399      10.854  -5.004  29.240  0.00  0.00    -0.348 OA
ATOM     19  C1  NG6 d 399      14.514  -4.234  28.982  0.00  0.00     0.151 C 
ATOM     20  H   NG6 d 399      14.402  -5.764  31.048  0.00  0.00     0.090 H 
ATOM     21  H   NG6 d 399      12.852  -7.970  28.756  0.00  0.00     0.210 HD
ATOM     22  H   NG6 d 399      16.171  -3.770  28.002  0.00  0.00     0.212 HD
ATOM     23  H   NG6 d 399      12.263  -6.827  30.691  0.00  0.00     0.091 H 
ATOM     24  H   NG6 d 399      12.215  -4.466  30.714  0.00  0.00     0.091 H 
ATOM     25  H   NG6 d 399      14.616  -8.191  29.269  0.00  0.00     0.080 H 
ATOM     26  H   NG6 d 399      14.382  -8.213  31.001  0.00  0.00     0.080 H 
ATOM     27  H   NG6 d 399      12.777  -4.377  27.774  0.00  0.00     0.084 H 
ATOM     28  H   NG6 d 399      11.935  -2.249  28.364  0.00  0.00     0.163 HD
ATOM     29  H   NG6 d 399      14.371  -3.601  30.396  0.00  0.00     0.040 H 
ATOM     30  H   NG6 d 399      13.990  -2.561  31.748  0.00  0.00     0.040 H 
ATOM     31  H   NG6 d 399      15.215  -2.085  30.596  0.00  0.00     0.040 H 
ATOM     32  H   NG6 d 399      14.770  -3.758  29.906  0.00  0.00     0.132 H 
ATOM     33  C5  GCD d 400       8.326  -6.550  31.089  0.00  0.00     0.147 C 
ATOM     34  C2  GCD d 400       8.709  -4.172  29.778  0.00  0.00     0.111 C 
ATOM     35  O6A GCD d 400       8.887  -8.828  31.348  0.00  0.00    -0.642 OA
ATOM     36  C3  GCD d 400       7.632  -4.133  30.854  0.00  0.00     0.084 C 
ATOM     37  O5  GCD d 400       9.603  -6.277  30.683  0.00  0.00    -0.311 OA
ATOM     38  O3  GCD d 400       6.441  -3.542  30.325  0.00  0.00    -0.389 OA
ATOM     39  O6B GCD d 400       6.820  -8.229  31.832  0.00  0.00    -0.642 OA
ATOM     40  O2  GCD d 400       9.103  -2.848  29.435  0.00  0.00    -0.388 OA
ATOM     41  C4  GCD d 400       7.344  -5.577  31.228  0.00  0.00    -0.034 C 
ATOM     42  C1  GCD d 400       9.917  -4.926  30.304  0.00  0.00     0.165 C 
ATOM     43  C6  GCD d 400       7.979  -7.982  31.440  0.00  0.00     0.233 C 
ATOM     44  H   GCD d 400       8.321  -4.661  28.910  0.00  0.00     0.095 H 
ATOM     45  H   GCD d 400       7.952  -3.561  31.700  0.00  0.00     0.093 H 
ATOM     46  H   GCD d 400       6.140  -4.053  29.557  0.00  0.00     0.210 HD
ATOM     47  H   GCD d 400       9.456  -2.402  30.221  0.00  0.00     0.210 HD
ATOM     48  H   GCD d 400       6.412  -5.836  31.587  0.00  0.00     0.085 H 
ATOM     49  H   GCD d 400      10.283  -4.411  31.167  0.00  0.00     0.134 H 
ENDROOT
TORSDOF 12
ENDMDL
MODEL 21
REMARK VINA RESULT:      -6.6      3.085      5.654
REMARK  0 active torsions:
REMARK  status: ('A' for Active; 'I' for Inactive)
REMARK       I    between atoms: C5_1  and  C6_18 
REMARK       I    between atoms: C5_2  and  C6_30 
REMARK       I    between atoms: O4_3  and  C4_14 
REMARK       I    between atoms: C2_4  and  O2_23 
REMARK       I    between atoms: C7_5  and  C8_27 
REMARK       I    between atoms: C7_5  and  N_24 
REMARK       I    between atoms: S_9  and  O6_13 
REMARK       I    between atoms: O1_12  and  C1_29 
REMARK       I    between atoms: O6_13  and  C6_18 
REMARK       I    between atoms: C3_15  and  O3_28 
REMARK       I    between atoms: C3_16  and  O3_20 
REMARK       I    between atoms: C2_19  and  N_24 
REMARK       I    between atoms: C1_26  and  O3_28 
ROOT
ATOM      1  C5  NG6 d 399      15.590  -5.890  32.544  0.00  0.00     0.090 C 
ATOM      2  O4  NG6 d 399      15.392  -6.587  30.244  0.00  0.00    -0.390 OA
ATOM      3  C7  NG6 d 399      15.974  -1.449  31.738  0.00  0.00     0.214 C 
ATOM      4  O3S NG6 d 399      18.425  -8.404  35.047  0.00  0.00    -0.572 OA
ATOM      5  O7  NG6 d 399      15.883  -0.223  31.691  0.00  0.00    -0.274 OA
ATOM      6  O1S NG6 d 399      17.225  -9.518  33.228  0.00  0.00    -0.572 OA
ATOM      7  S   NG6 d 399      17.072  -8.692  34.476  0.00  0.00     0.251 S 
ATOM      8  O5  NG6 d 399      16.935  -5.479  32.322  0.00  0.00    -0.349 OA
ATOM      9  O1  NG6 d 399      18.397  -3.756  31.876  0.00  0.00    -0.369 OA
ATOM     10  O6  NG6 d 399      16.423  -7.452  34.163  0.00  0.00    -0.254 OA
ATOM     11  C4  NG6 d 399      14.806  -5.751  31.249  0.00  0.00     0.089 C 
ATOM     12  C3  NG6 d 399      14.813  -4.292  30.790  0.00  0.00     0.093 C 
ATOM     13  C6  NG6 d 399      15.645  -7.342  32.977  0.00  0.00     0.067 C 
ATOM     14  C2  NG6 d 399      16.230  -3.695  30.791  0.00  0.00     0.087 C 
ATOM     15  O2S NG6 d 399      16.244  -9.465  35.472  0.00  0.00    -0.572 OA
ATOM     16  N   NG6 d 399      16.139  -2.225  30.670  0.00  0.00    -0.349 N 
ATOM     17  C8  NG6 d 399      15.894  -2.200  33.079  0.00  0.00    -0.003 C 
ATOM     18  O3  NG6 d 399      14.320  -4.237  29.456  0.00  0.00    -0.348 OA
ATOM     19  C1  NG6 d 399      17.011  -4.072  32.062  0.00  0.00     0.151 C 
ATOM     20  H   NG6 d 399      15.109  -5.293  33.290  0.00  0.00     0.090 H 
ATOM     21  H   NG6 d 399      15.383  -7.509  30.544  0.00  0.00     0.210 HD
ATOM     22  H   NG6 d 399      18.892  -3.992  32.675  0.00  0.00     0.212 HD
ATOM     23  H   NG6 d 399      13.793  -6.055  31.413  0.00  0.00     0.091 H 
ATOM     24  H   NG6 d 399      14.206  -3.730  31.468  0.00  0.00     0.091 H 
ATOM     25  H   NG6 d 399      16.092  -7.930  32.201  0.00  0.00     0.080 H 
ATOM     26  H   NG6 d 399      14.653  -7.697  33.165  0.00  0.00     0.080 H 
ATOM     27  H   NG6 d 399      16.764  -4.099  29.956  0.00  0.00     0.084 H 
ATOM     28  H   NG6 d 399      16.201  -1.811  29.779  0.00  0.00     0.163 HD
ATOM     29  H   NG6 d 399      15.994  -3.251  32.906  0.00  0.00     0.040 H 
ATOM     30  H   NG6 d 399      14.950  -2.003  33.543  0.00  0.00     0.040 H 
ATOM     31  H   NG6 d 399      16.684  -1.868  33.721  0.00  0.00     0.040 H 
ATOM     32  H   NG6 d 399      16.583  -3.528  32.878  0.00  0.00     0.132 H 
ATOM     33  C5  GCD d 400      11.024  -5.134  28.726  0.00  0.00     0.147 C 
ATOM     34  C2  GCD d 400      12.707  -3.027  28.225  0.00  0.00     0.111 C 
ATOM     35  O6A GCD d 400      10.748  -7.420  29.245  0.00  0.00    -0.642 OA
ATOM     36  C3  GCD d 400      11.225  -2.689  28.127  0.00  0.00     0.084 C 
ATOM     37  O5  GCD d 400      12.199  -5.112  29.427  0.00  0.00    -0.311 OA
ATOM     38  O3  GCD d 400      10.968  -1.995  26.901  0.00  0.00    -0.389 OA
ATOM     39  O6B GCD d 400       9.180  -6.457  28.030  0.00  0.00    -0.642 OA
ATOM     40  O2  GCD d 400      13.472  -1.832  28.338  0.00  0.00    -0.388 OA
ATOM     41  C4  GCD d 400      10.482  -4.013  28.110  0.00  0.00    -0.034 C 
ATOM     42  C1  GCD d 400      12.944  -3.884  29.456  0.00  0.00     0.165 C 
ATOM     43  C6  GCD d 400      10.262  -6.441  28.650  0.00  0.00     0.233 C 
ATOM     44  H   GCD d 400      13.006  -3.557  27.346  0.00  0.00     0.095 H 
ATOM     45  H   GCD d 400      10.915  -2.070  28.943  0.00  0.00     0.093 H 
ATOM     46  H   GCD d 400      11.245  -2.547  26.153  0.00  0.00     0.210 HD
ATOM     47  H   GCD d 400      13.203  -1.350  29.135  0.00  0.00     0.210 HD
ATOM     48  H   GCD d 400       9.566  -4.081  27.638  0.00  0.00     0.085 H 
ATOM     49  H   GCD d 400      12.640  -3.325  30.316  0.00  0.00     0.134 H 
ENDROOT
TORSDOF 12
ENDMDL
MODEL 22
REMARK VINA RESULT:      -6.5      3.048      7.460
REMARK  0 active torsions:
REMARK  status: ('A' for Active; 'I' for Inactive)
REMARK       I    between atoms: C5_1  and  C6_18 
REMARK       I    between atoms: C5_2  and  C6_30 
REMARK       I    between atoms: O4_3  and  C4_14 
REMARK       I    between atoms: C2_4  and  O2_23 
REMARK       I    between atoms: C7_5  and  C8_27 
REMARK       I    between atoms: C7_5  and  N_24 
REMARK       I    between atoms: S_9  and  O6_13 
REMARK       I    between atoms: O1_12  and  C1_29 
REMARK       I    between atoms: O6_13  and  C6_18 
REMARK       I    between atoms: C3_15  and  O3_28 
REMARK       I    between atoms: C3_16  and  O3_20 
REMARK       I    between atoms: C2_19  and  N_24 
REMARK       I    between atoms: C1_26  and  O3_28 
ROOT
ATOM      1  C5  NG6 d 399      12.680  -5.205  29.276  0.00  0.00     0.090 C 
ATOM      2  O4  NG6 d 399      14.724  -4.218  28.460  0.00  0.00    -0.390 OA
ATOM      3  C7  NG6 d 399      14.586  -8.698  31.441  0.00  0.00     0.214 C 
ATOM      4  O3S NG6 d 399       9.345  -5.467  26.205  0.00  0.00    -0.572 OA
ATOM      5  O7  NG6 d 399      14.963  -9.562  32.231  0.00  0.00    -0.274 OA
ATOM      6  O1S NG6 d 399      10.912  -3.596  26.023  0.00  0.00    -0.572 OA
ATOM      7  S   NG6 d 399       9.947  -4.305  26.932  0.00  0.00     0.251 S 
ATOM      8  O5  NG6 d 399      12.873  -6.340  28.439  0.00  0.00    -0.349 OA
ATOM      9  O1  NG6 d 399      13.616  -8.512  28.242  0.00  0.00    -0.369 OA
ATOM     10  O6  NG6 d 399      10.635  -4.786  28.094  0.00  0.00    -0.254 OA
ATOM     11  C4  NG6 d 399      14.034  -4.624  29.649  0.00  0.00     0.089 C 
ATOM     12  C3  NG6 d 399      14.859  -5.668  30.405  0.00  0.00     0.093 C 
ATOM     13  C6  NG6 d 399      11.877  -4.203  28.471  0.00  0.00     0.067 C 
ATOM     14  C2  NG6 d 399      14.880  -7.022  29.677  0.00  0.00     0.087 C 
ATOM     15  O2S NG6 d 399       8.866  -3.336  27.343  0.00  0.00    -0.572 OA
ATOM     16  N   NG6 d 399      15.392  -8.060  30.595  0.00  0.00    -0.349 N 
ATOM     17  C8  NG6 d 399      13.109  -8.273  31.375  0.00  0.00    -0.003 C 
ATOM     18  O3  NG6 d 399      16.200  -5.203  30.496  0.00  0.00    -0.348 OA
ATOM     19  C1  NG6 d 399      13.486  -7.418  29.159  0.00  0.00     0.151 C 
ATOM     20  H   NG6 d 399      12.167  -5.459  30.180  0.00  0.00     0.090 H 
ATOM     21  H   NG6 d 399      14.193  -3.557  27.988  0.00  0.00     0.210 HD
ATOM     22  H   NG6 d 399      12.739  -8.764  27.913  0.00  0.00     0.212 HD
ATOM     23  H   NG6 d 399      13.893  -3.773  30.282  0.00  0.00     0.091 H 
ATOM     24  H   NG6 d 399      14.413  -5.805  31.368  0.00  0.00     0.091 H 
ATOM     25  H   NG6 d 399      12.424  -3.929  27.592  0.00  0.00     0.080 H 
ATOM     26  H   NG6 d 399      11.697  -3.330  29.063  0.00  0.00     0.080 H 
ATOM     27  H   NG6 d 399      15.524  -6.935  28.827  0.00  0.00     0.084 H 
ATOM     28  H   NG6 d 399      16.350  -8.284  30.582  0.00  0.00     0.163 HD
ATOM     29  H   NG6 d 399      12.989  -7.515  30.630  0.00  0.00     0.040 H 
ATOM     30  H   NG6 d 399      12.805  -7.888  32.327  0.00  0.00     0.040 H 
ATOM     31  H   NG6 d 399      12.505  -9.119  31.123  0.00  0.00     0.040 H 
ATOM     32  H   NG6 d 399      12.887  -7.675  30.007  0.00  0.00     0.132 H 
ATOM     33  C5  GCD d 400      16.979  -2.320  32.307  0.00  0.00     0.147 C 
ATOM     34  C2  GCD d 400      17.854  -4.915  32.158  0.00  0.00     0.111 C 
ATOM     35  O6A GCD d 400      15.905  -0.488  31.279  0.00  0.00    -0.642 OA
ATOM     36  C3  GCD d 400      18.179  -4.214  33.470  0.00  0.00     0.084 C 
ATOM     37  O5  GCD d 400      16.200  -3.186  31.589  0.00  0.00    -0.311 OA
ATOM     38  O3  GCD d 400      19.562  -4.399  33.788  0.00  0.00    -0.389 OA
ATOM     39  O6B GCD d 400      17.474  -0.043  32.763  0.00  0.00    -0.642 OA
ATOM     40  O2  GCD d 400      17.988  -6.324  32.313  0.00  0.00    -0.388 OA
ATOM     41  C4  GCD d 400      17.917  -2.735  33.245  0.00  0.00    -0.034 C 
ATOM     42  C1  GCD d 400      16.425  -4.595  31.760  0.00  0.00     0.165 C 
ATOM     43  C6  GCD d 400      16.781  -0.834  32.092  0.00  0.00     0.233 C 
ATOM     44  H   GCD d 400      18.531  -4.576  31.402  0.00  0.00     0.095 H 
ATOM     45  H   GCD d 400      17.588  -4.604  34.273  0.00  0.00     0.093 H 
ATOM     46  H   GCD d 400      20.110  -4.049  33.067  0.00  0.00     0.210 HD
ATOM     47  H   GCD d 400      17.375  -6.633  32.998  0.00  0.00     0.210 HD
ATOM     48  H   GCD d 400      18.439  -2.033  33.792  0.00  0.00     0.085 H 
ATOM     49  H   GCD d 400      15.775  -4.949  32.532  0.00  0.00     0.134 H 
ENDROOT
TORSDOF 12
ENDMDL
MODEL 23
REMARK VINA RESULT:      -6.3      3.355      6.923
REMARK  0 active torsions:
REMARK  status: ('A' for Active; 'I' for Inactive)
REMARK       I    between atoms: C5_1  and  C6_18 
REMARK       I    between atoms: C5_2  and  C6_30 
REMARK       I    between atoms: O4_3  and  C4_14 
REMARK       I    between atoms: C2_4  and  O2_23 
REMARK       I    between atoms: C7_5  and  C8_27 
REMARK       I    between atoms: C7_5  and  N_24 
REMARK       I    between atoms: S_9  and  O6_13 
REMARK       I    between atoms: O1_12  and  C1_29 
REMARK       I    between atoms: O6_13  and  C6_18 
REMARK       I    between atoms: C3_15  and  O3_28 
REMARK       I    between atoms: C3_16  and  O3_20 
REMARK       I    between atoms: C2_19  and  N_24 
REMARK       I    between atoms: C1_26  and  O3_28 
ROOT
ATOM      1  C5  NG6 d 399      14.610  -1.949  30.104  0.00  0.00     0.090 C 
ATOM      2  O4  NG6 d 399      13.288  -3.670  31.155  0.00  0.00    -0.390 OA
ATOM      3  C7  NG6 d 399      18.418  -2.678  32.446  0.00  0.00     0.214 C 
ATOM      4  O3S NG6 d 399      12.492   2.039  29.626  0.00  0.00    -0.572 OA
ATOM      5  O7  NG6 d 399      19.562  -2.889  32.847  0.00  0.00    -0.274 OA
ATOM      6  O1S NG6 d 399      11.127   0.010  29.531  0.00  0.00    -0.572 OA
ATOM      7  S   NG6 d 399      12.312   0.722  28.938  0.00  0.00     0.251 S 
ATOM      8  O5  NG6 d 399      14.661  -1.218  31.324  0.00  0.00    -0.349 OA
ATOM      9  O1  NG6 d 399      15.841  -0.690  33.231  0.00  0.00    -0.369 OA
ATOM     10  O6  NG6 d 399      13.495  -0.067  29.120  0.00  0.00    -0.254 OA
ATOM     11  C4  NG6 d 399      14.492  -3.433  30.415  0.00  0.00     0.089 C 
ATOM     12  C3  NG6 d 399      15.706  -3.893  31.223  0.00  0.00     0.093 C 
ATOM     13  C6  NG6 d 399      13.382  -1.465  29.358  0.00  0.00     0.067 C 
ATOM     14  C2  NG6 d 399      15.985  -2.971  32.421  0.00  0.00     0.087 C 
ATOM     15  O2S NG6 d 399      12.062   0.937  27.466  0.00  0.00    -0.572 OA
ATOM     16  N   NG6 d 399      17.333  -3.258  32.953  0.00  0.00    -0.349 N 
ATOM     17  C8  NG6 d 399      18.150  -1.701  31.288  0.00  0.00    -0.003 C 
ATOM     18  O3  NG6 d 399      15.441  -5.196  31.731  0.00  0.00    -0.348 OA
ATOM     19  C1  NG6 d 399      15.875  -1.484  32.038  0.00  0.00     0.151 C 
ATOM     20  H   NG6 d 399      15.491  -1.802  29.515  0.00  0.00     0.090 H 
ATOM     21  H   NG6 d 399      12.525  -3.375  30.635  0.00  0.00     0.210 HD
ATOM     22  H   NG6 d 399      15.771   0.247  32.993  0.00  0.00     0.212 HD
ATOM     23  H   NG6 d 399      14.458  -3.986  29.499  0.00  0.00     0.091 H 
ATOM     24  H   NG6 d 399      16.558  -3.879  30.576  0.00  0.00     0.091 H 
ATOM     25  H   NG6 d 399      12.508  -1.658  29.945  0.00  0.00     0.080 H 
ATOM     26  H   NG6 d 399      13.304  -1.981  28.424  0.00  0.00     0.080 H 
ATOM     27  H   NG6 d 399      15.246  -3.162  33.171  0.00  0.00     0.084 H 
ATOM     28  H   NG6 d 399      17.430  -3.893  33.699  0.00  0.00     0.163 HD
ATOM     29  H   NG6 d 399      17.099  -1.658  31.094  0.00  0.00     0.040 H 
ATOM     30  H   NG6 d 399      18.662  -2.038  30.411  0.00  0.00     0.040 H 
ATOM     31  H   NG6 d 399      18.504  -0.727  31.555  0.00  0.00     0.040 H 
ATOM     32  H   NG6 d 399      16.718  -1.246  31.423  0.00  0.00     0.132 H 
ATOM     33  C5  GCD d 400      15.024  -7.911  29.575  0.00  0.00     0.147 C 
ATOM     34  C2  GCD d 400      16.501  -7.305  31.805  0.00  0.00     0.111 C 
ATOM     35  O6A GCD d 400      13.112  -7.515  28.249  0.00  0.00    -0.642 OA
ATOM     36  C3  GCD d 400      17.074  -8.431  30.954  0.00  0.00     0.084 C 
ATOM     37  O5  GCD d 400      15.032  -6.599  29.963  0.00  0.00    -0.311 OA
ATOM     38  O3  GCD d 400      17.391  -9.552  31.786  0.00  0.00    -0.389 OA
ATOM     39  O6B GCD d 400      13.938  -9.560  28.256  0.00  0.00    -0.642 OA
ATOM     40  O2  GCD d 400      17.498  -6.809  32.691  0.00  0.00    -0.388 OA
ATOM     41  C4  GCD d 400      15.983  -8.832  29.978  0.00  0.00    -0.034 C 
ATOM     42  C1  GCD d 400      16.038  -6.179  30.899  0.00  0.00     0.165 C 
ATOM     43  C6  GCD d 400      13.933  -8.369  28.629  0.00  0.00     0.233 C 
ATOM     44  H   GCD d 400      15.677  -7.680  32.374  0.00  0.00     0.095 H 
ATOM     45  H   GCD d 400      17.964  -8.118  30.448  0.00  0.00     0.093 H 
ATOM     46  H   GCD d 400      16.592  -9.847  32.250  0.00  0.00     0.210 HD
ATOM     47  H   GCD d 400      18.247  -6.468  32.176  0.00  0.00     0.210 HD
ATOM     48  H   GCD d 400      15.953  -9.797  29.611  0.00  0.00     0.085 H 
ATOM     49  H   GCD d 400      16.884  -5.824  30.348  0.00  0.00     0.134 H 
ENDROOT
TORSDOF 12
ENDMDL
MODEL 24
REMARK VINA RESULT:      -6.3      3.657      3.926
REMARK  0 active torsions:
REMARK  status: ('A' for Active; 'I' for Inactive)
REMARK       I    between atoms: C5_1  and  C6_18 
REMARK       I    between atoms: C5_2  and  C6_30 
REMARK       I    between atoms: O4_3  and  C4_14 
REMARK       I    between atoms: C2_4  and  O2_23 
REMARK       I    between atoms: C7_5  and  C8_27 
REMARK       I    between atoms: C7_5  and  N_24 
REMARK       I    between atoms: S_9  and  O6_13 
REMARK       I    between atoms: O1_12  and  C1_29 
REMARK       I    between atoms: O6_13  and  C6_18 
REMARK       I    between atoms: C3_15  and  O3_28 
REMARK       I    between atoms: C3_16  and  O3_20 
REMARK       I    between atoms: C2_19  and  N_24 
REMARK       I    between atoms: C1_26  and  O3_28 
ROOT
ATOM      1  C5  NG6 d 399      15.527  -4.501  30.396  0.00  0.00     0.090 C 
ATOM      2  O4  NG6 d 399      13.978  -4.766  32.224  0.00  0.00    -0.390 OA
ATOM      3  C7  NG6 d 399      14.813  -8.545  28.484  0.00  0.00     0.214 C 
ATOM      4  O3S NG6 d 399      19.562  -2.779  31.568  0.00  0.00    -0.572 OA
ATOM      5  O7  NG6 d 399      14.579  -9.504  27.749  0.00  0.00    -0.274 OA
ATOM      6  O1S NG6 d 399      17.606  -2.067  32.856  0.00  0.00    -0.572 OA
ATOM      7  S   NG6 d 399      18.200  -2.164  31.477  0.00  0.00     0.251 S 
ATOM      8  O5  NG6 d 399      16.361  -5.524  30.930  0.00  0.00    -0.349 OA
ATOM      9  O1  NG6 d 399      16.994  -7.739  30.893  0.00  0.00    -0.369 OA
ATOM     10  O6  NG6 d 399      17.370  -2.987  30.646  0.00  0.00    -0.254 OA
ATOM     11  C4  NG6 d 399      14.086  -4.772  30.795  0.00  0.00     0.089 C 
ATOM     12  C3  NG6 d 399      13.636  -6.124  30.239  0.00  0.00     0.093 C 
ATOM     13  C6  NG6 d 399      16.007  -3.194  30.994  0.00  0.00     0.067 C 
ATOM     14  C2  NG6 d 399      14.646  -7.241  30.552  0.00  0.00     0.087 C 
ATOM     15  O2S NG6 d 399      18.296  -0.777  30.891  0.00  0.00    -0.572 OA
ATOM     16  N   NG6 d 399      14.338  -8.422  29.721  0.00  0.00    -0.349 N 
ATOM     17  C8  NG6 d 399      15.696  -7.378  28.009  0.00  0.00    -0.003 C 
ATOM     18  O3  NG6 d 399      12.400  -6.474  30.850  0.00  0.00    -0.348 OA
ATOM     19  C1  NG6 d 399      16.096  -6.788  30.306  0.00  0.00     0.151 C 
ATOM     20  H   NG6 d 399      15.576  -4.466  29.328  0.00  0.00     0.090 H 
ATOM     21  H   NG6 d 399      14.265  -3.906  32.567  0.00  0.00     0.210 HD
ATOM     22  H   NG6 d 399      17.909  -7.457  30.741  0.00  0.00     0.212 HD
ATOM     23  H   NG6 d 399      13.456  -4.007  30.391  0.00  0.00     0.091 H 
ATOM     24  H   NG6 d 399      13.549  -6.031  29.177  0.00  0.00     0.091 H 
ATOM     25  H   NG6 d 399      15.912  -3.233  32.060  0.00  0.00     0.080 H 
ATOM     26  H   NG6 d 399      15.414  -2.388  30.614  0.00  0.00     0.080 H 
ATOM     27  H   NG6 d 399      14.560  -7.489  31.589  0.00  0.00     0.084 H 
ATOM     28  H   NG6 d 399      13.767  -9.134  30.090  0.00  0.00     0.163 HD
ATOM     29  H   NG6 d 399      15.776  -6.651  28.790  0.00  0.00     0.040 H 
ATOM     30  H   NG6 d 399      15.256  -6.926  27.145  0.00  0.00     0.040 H 
ATOM     31  H   NG6 d 399      16.670  -7.746  27.763  0.00  0.00     0.040 H 
ATOM     32  H   NG6 d 399      16.235  -6.707  29.249  0.00  0.00     0.132 H 
ATOM     33  C5  GCD d 400       9.529  -4.559  30.311  0.00  0.00     0.147 C 
ATOM     34  C2  GCD d 400      10.253  -7.202  30.187  0.00  0.00     0.111 C 
ATOM     35  O6A GCD d 400       9.904  -2.401  31.190  0.00  0.00    -0.642 OA
ATOM     36  C3  GCD d 400       9.027  -6.842  29.356  0.00  0.00     0.084 C 
ATOM     37  O5  GCD d 400      10.868  -4.830  30.390  0.00  0.00    -0.311 OA
ATOM     38  O3  GCD d 400       7.970  -7.767  29.630  0.00  0.00    -0.389 OA
ATOM     39  O6B GCD d 400       7.828  -2.945  30.682  0.00  0.00    -0.642 OA
ATOM     40  O2  GCD d 400      10.774  -8.458  29.767  0.00  0.00    -0.388 OA
ATOM     41  C4  GCD d 400       8.598  -5.455  29.799  0.00  0.00    -0.034 C 
ATOM     42  C1  GCD d 400      11.317  -6.136  29.996  0.00  0.00     0.165 C 
ATOM     43  C6  GCD d 400       9.046  -3.200  30.775  0.00  0.00     0.233 C 
ATOM     44  H   GCD d 400       9.973  -7.261  31.217  0.00  0.00     0.095 H 
ATOM     45  H   GCD d 400       9.248  -6.874  28.309  0.00  0.00     0.093 H 
ATOM     46  H   GCD d 400       7.760  -7.747  30.577  0.00  0.00     0.210 HD
ATOM     47  H   GCD d 400      11.028  -8.406  28.832  0.00  0.00     0.210 HD
ATOM     48  H   GCD d 400       7.608  -5.175  29.718  0.00  0.00     0.085 H 
ATOM     49  H   GCD d 400      11.577  -6.105  28.959  0.00  0.00     0.134 H 
ENDROOT
TORSDOF 12
ENDMDL
MODEL 25
REMARK VINA RESULT:      -6.2      3.347      7.995
REMARK  0 active torsions:
REMARK  status: ('A' for Active; 'I' for Inactive)
REMARK       I    between atoms: C5_1  and  C6_18 
REMARK       I    between atoms: C5_2  and  C6_30 
REMARK       I    between atoms: O4_3  and  C4_14 
REMARK       I    between atoms: C2_4  and  O2_23 
REMARK       I    between atoms: C7_5  and  C8_27 
REMARK       I    between atoms: C7_5  and  N_24 
REMARK       I    between atoms: S_9  and  O6_13 
REMARK       I    between atoms: O1_12  and  C1_29 
REMARK       I    between atoms: O6_13  and  C6_18 
REMARK       I    between atoms: C3_15  and  O3_28 
REMARK       I    between atoms: C3_16  and  O3_20 
REMARK       I    between atoms: C2_19  and  N_24 
REMARK       I    between atoms: C1_26  and  O3_28 
ROOT
ATOM      1  C5  NG6 d 399      11.319  -4.687  29.501  0.00  0.00     0.090 C 
ATOM      2  O4  NG6 d 399      11.667  -3.721  31.683  0.00  0.00    -0.390 OA
ATOM      3  C7  NG6 d 399      12.419  -1.012  27.093  0.00  0.00     0.214 C 
ATOM      4  O3S NG6 d 399       7.495  -7.102  29.088  0.00  0.00    -0.572 OA
ATOM      5  O7  NG6 d 399      12.879  -0.176  26.316  0.00  0.00    -0.274 OA
ATOM      6  O1S NG6 d 399       8.583  -7.065  31.280  0.00  0.00    -0.572 OA
ATOM      7  S   NG6 d 399       8.774  -7.370  29.820  0.00  0.00     0.251 S 
ATOM      8  O5  NG6 d 399      10.213  -3.820  29.274  0.00  0.00    -0.349 OA
ATOM      9  O1  NG6 d 399       9.427  -1.874  28.324  0.00  0.00    -0.369 OA
ATOM     10  O6  NG6 d 399       9.806  -6.536  29.278  0.00  0.00    -0.254 OA
ATOM     11  C4  NG6 d 399      12.307  -4.003  30.432  0.00  0.00     0.089 C 
ATOM     12  C3  NG6 d 399      12.811  -2.707  29.795  0.00  0.00     0.093 C 
ATOM     13  C6  NG6 d 399      10.762  -5.941  30.148  0.00  0.00     0.067 C 
ATOM     14  C2  NG6 d 399      11.658  -1.835  29.272  0.00  0.00     0.087 C 
ATOM     15  O2S NG6 d 399       9.160  -8.822  29.673  0.00  0.00    -0.572 OA
ATOM     16  N   NG6 d 399      12.204  -0.786  28.387  0.00  0.00    -0.349 N 
ATOM     17  C8  NG6 d 399      12.052  -2.427  26.612  0.00  0.00    -0.003 C 
ATOM     18  O3  NG6 d 399      13.507  -1.959  30.785  0.00  0.00    -0.348 OA
ATOM     19  C1  NG6 d 399      10.605  -2.667  28.518  0.00  0.00     0.151 C 
ATOM     20  H   NG6 d 399      11.829  -4.928  28.593  0.00  0.00     0.090 H 
ATOM     21  H   NG6 d 399      11.350  -4.548  32.078  0.00  0.00     0.210 HD
ATOM     22  H   NG6 d 399       8.761  -2.395  27.849  0.00  0.00     0.212 HD
ATOM     23  H   NG6 d 399      13.141  -4.651  30.602  0.00  0.00     0.091 H 
ATOM     24  H   NG6 d 399      13.441  -2.969  28.971  0.00  0.00     0.091 H 
ATOM     25  H   NG6 d 399      10.291  -5.685  31.075  0.00  0.00     0.080 H 
ATOM     26  H   NG6 d 399      11.558  -6.632  30.331  0.00  0.00     0.080 H 
ATOM     27  H   NG6 d 399      11.169  -1.388  30.113  0.00  0.00     0.084 H 
ATOM     28  H   NG6 d 399      12.413   0.099  28.762  0.00  0.00     0.163 HD
ATOM     29  H   NG6 d 399      11.671  -2.996  27.434  0.00  0.00     0.040 H 
ATOM     30  H   NG6 d 399      12.924  -2.907  26.219  0.00  0.00     0.040 H 
ATOM     31  H   NG6 d 399      11.306  -2.361  25.847  0.00  0.00     0.040 H 
ATOM     32  H   NG6 d 399      11.039  -2.971  27.589  0.00  0.00     0.132 H 
ATOM     33  C5  GCD d 400      16.454  -3.176  32.210  0.00  0.00     0.147 C 
ATOM     34  C2  GCD d 400      15.584  -0.861  31.024  0.00  0.00     0.111 C 
ATOM     35  O6A GCD d 400      15.945  -5.163  33.379  0.00  0.00    -0.642 OA
ATOM     36  C3  GCD d 400      17.095  -1.055  31.000  0.00  0.00     0.084 C 
ATOM     37  O5  GCD d 400      15.243  -3.233  31.576  0.00  0.00    -0.311 OA
ATOM     38  O3  GCD d 400      17.742   0.135  31.463  0.00  0.00    -0.389 OA
ATOM     39  O6B GCD d 400      17.904  -4.229  33.767  0.00  0.00    -0.642 OA
ATOM     40  O2  GCD d 400      15.205   0.131  30.076  0.00  0.00    -0.388 OA
ATOM     41  C4  GCD d 400      17.400  -2.189  31.961  0.00  0.00    -0.034 C 
ATOM     42  C1  GCD d 400      14.906  -2.171  30.668  0.00  0.00     0.165 C 
ATOM     43  C6  GCD d 400      16.791  -4.267  33.206  0.00  0.00     0.233 C 
ATOM     44  H   GCD d 400      15.287  -0.548  32.003  0.00  0.00     0.095 H 
ATOM     45  H   GCD d 400      17.441  -1.270  30.010  0.00  0.00     0.093 H 
ATOM     46  H   GCD d 400      17.438   0.341  32.360  0.00  0.00     0.210 HD
ATOM     47  H   GCD d 400      15.474  -0.152  29.188  0.00  0.00     0.210 HD
ATOM     48  H   GCD d 400      18.317  -2.228  32.434  0.00  0.00     0.085 H 
ATOM     49  H   GCD d 400      15.221  -2.455  29.686  0.00  0.00     0.134 H 
ENDROOT
TORSDOF 12
ENDMDL
MODEL 26
REMARK VINA RESULT:      -6.2      3.663      6.078
REMARK  0 active torsions:
REMARK  status: ('A' for Active; 'I' for Inactive)
REMARK       I    between atoms: C5_1  and  C6_18 
REMARK       I    between atoms: C5_2  and  C6_30 
REMARK       I    between atoms: O4_3  and  C4_14 
REMARK       I    between atoms: C2_4  and  O2_23 
REMARK       I    between atoms: C7_5  and  C8_27 
REMARK       I    between atoms: C7_5  and  N_24 
REMARK       I    between atoms: S_9  and  O6_13 
REMARK       I    between atoms: O1_12  and  C1_29 
REMARK       I    between atoms: O6_13  and  C6_18 
REMARK       I    between atoms: C3_15  and  O3_28 
REMARK       I    between atoms: C3_16  and  O3_20 
REMARK       I    between atoms: C2_19  and  N_24 
REMARK       I    between atoms: C1_26  and  O3_28 
ROOT
ATOM      1  C5  NG6 d 399      15.589  -6.421  32.075  0.00  0.00     0.090 C 
ATOM      2  O4  NG6 d 399      14.826  -8.136  30.562  0.00  0.00    -0.390 OA
ATOM      3  C7  NG6 d 399      14.694  -2.885  29.389  0.00  0.00     0.214 C 
ATOM      4  O3S NG6 d 399      19.562  -7.304  34.089  0.00  0.00    -0.572 OA
ATOM      5  O7  NG6 d 399      14.322  -1.835  28.866  0.00  0.00    -0.274 OA
ATOM      6  O1S NG6 d 399      18.123  -9.205  33.536  0.00  0.00    -0.572 OA
ATOM      7  S   NG6 d 399      18.197  -7.893  34.268  0.00  0.00     0.251 S 
ATOM      8  O5  NG6 d 399      16.665  -6.102  31.199  0.00  0.00    -0.349 OA
ATOM      9  O1  NG6 d 399      17.484  -4.732  29.538  0.00  0.00    -0.369 OA
ATOM     10  O6  NG6 d 399      17.223  -6.984  33.739  0.00  0.00    -0.254 OA
ATOM     11  C4  NG6 d 399      14.421  -6.952  31.260  0.00  0.00     0.089 C 
ATOM     12  C3  NG6 d 399      13.956  -5.888  30.264  0.00  0.00     0.093 C 
ATOM     13  C6  NG6 d 399      16.103  -7.488  33.022  0.00  0.00     0.067 C 
ATOM     14  C2  NG6 d 399      15.127  -5.296  29.463  0.00  0.00     0.087 C 
ATOM     15  O2S NG6 d 399      17.927  -8.138  35.732  0.00  0.00    -0.572 OA
ATOM     16  N   NG6 d 399      14.677  -4.068  28.778  0.00  0.00    -0.349 N 
ATOM     17  C8  NG6 d 399      15.218  -2.911  30.835  0.00  0.00    -0.003 C 
ATOM     18  O3  NG6 d 399      13.062  -6.498  29.339  0.00  0.00    -0.348 OA
ATOM     19  C1  NG6 d 399      16.338  -4.986  30.361  0.00  0.00     0.151 C 
ATOM     20  H   NG6 d 399      15.253  -5.565  32.620  0.00  0.00     0.090 H 
ATOM     21  H   NG6 d 399      15.119  -8.804  31.202  0.00  0.00     0.210 HD
ATOM     22  H   NG6 d 399      18.248  -4.536  30.100  0.00  0.00     0.212 HD
ATOM     23  H   NG6 d 399      13.609  -7.189  31.915  0.00  0.00     0.091 H 
ATOM     24  H   NG6 d 399      13.489  -5.101  30.817  0.00  0.00     0.091 H 
ATOM     25  H   NG6 d 399      16.396  -8.352  32.462  0.00  0.00     0.080 H 
ATOM     26  H   NG6 d 399      15.329  -7.757  33.711  0.00  0.00     0.080 H 
ATOM     27  H   NG6 d 399      15.442  -6.024  28.743  0.00  0.00     0.084 H 
ATOM     28  H   NG6 d 399      14.356  -4.125  27.849  0.00  0.00     0.163 HD
ATOM     29  H   NG6 d 399      15.489  -3.911  31.099  0.00  0.00     0.040 H 
ATOM     30  H   NG6 d 399      14.454  -2.561  31.498  0.00  0.00     0.040 H 
ATOM     31  H   NG6 d 399      16.076  -2.276  30.914  0.00  0.00     0.040 H 
ATOM     32  H   NG6 d 399      16.084  -4.140  30.965  0.00  0.00     0.132 H 
ATOM     33  C5  GCD d 400       9.994  -7.789  30.397  0.00  0.00     0.147 C 
ATOM     34  C2  GCD d 400      10.913  -6.096  28.445  0.00  0.00     0.111 C 
ATOM     35  O6A GCD d 400      10.416  -9.562  31.897  0.00  0.00    -0.642 OA
ATOM     36  C3  GCD d 400       9.441  -5.916  28.796  0.00  0.00     0.084 C 
ATOM     37  O5  GCD d 400      11.295  -7.380  30.507  0.00  0.00    -0.311 OA
ATOM     38  O3  GCD d 400       8.657  -5.902  27.598  0.00  0.00    -0.389 OA
ATOM     39  O6B GCD d 400       8.368  -9.368  31.102  0.00  0.00    -0.642 OA
ATOM     40  O2  GCD d 400      11.386  -4.957  27.735  0.00  0.00    -0.388 OA
ATOM     41  C4  GCD d 400       9.047  -7.122  29.630  0.00  0.00    -0.034 C 
ATOM     42  C1  GCD d 400      11.717  -6.252  29.723  0.00  0.00     0.165 C 
ATOM     43  C6  GCD d 400       9.560  -9.009  31.183  0.00  0.00     0.233 C 
ATOM     44  H   GCD d 400      11.024  -6.966  27.832  0.00  0.00     0.095 H 
ATOM     45  H   GCD d 400       9.279  -4.999  29.322  0.00  0.00     0.093 H 
ATOM     46  H   GCD d 400       8.795  -6.729  27.110  0.00  0.00     0.210 HD
ATOM     47  H   GCD d 400      11.287  -4.167  28.288  0.00  0.00     0.210 HD
ATOM     48  H   GCD d 400       8.068  -7.449  29.626  0.00  0.00     0.085 H 
ATOM     49  H   GCD d 400      11.588  -5.367  30.309  0.00  0.00     0.134 H 
ENDROOT
TORSDOF 12
ENDMDL
MODEL 27
REMARK VINA RESULT:      -6.0      3.525      7.953
REMARK  0 active torsions:
REMARK  status: ('A' for Active; 'I' for Inactive)
REMARK       I    between atoms: C5_1  and  C6_18 
REMARK       I    between atoms: C5_2  and  C6_30 
REMARK       I    between atoms: O4_3  and  C4_14 
REMARK       I    between atoms: C2_4  and  O2_23 
REMARK       I    between atoms: C7_5  and  C8_27 
REMARK       I    between atoms: C7_5  and  N_24 
REMARK       I    between atoms: S_9  and  O6_13 
REMARK       I    between atoms: O1_12  and  C1_29 
REMARK       I    between atoms: O6_13  and  C6_18 
REMARK       I    between atoms: C3_15  and  O3_28 
REMARK       I    between atoms: C3_16  and  O3_20 
REMARK       I    between atoms: C2_19  and  N_24 
REMARK       I    between atoms: C1_26  and  O3_28 
ROOT
ATOM      1  C5  NG6 d 399      11.963  -5.574  28.419  0.00  0.00     0.090 C 
ATOM      2  O4  NG6 d 399      14.015  -6.710  27.861  0.00  0.00    -0.390 OA
ATOM      3  C7  NG6 d 399      10.606  -8.449  31.645  0.00  0.00     0.214 C 
ATOM      4  O3S NG6 d 399       9.512  -4.226  24.842  0.00  0.00    -0.572 OA
ATOM      5  O7  NG6 d 399      10.215  -9.015  32.666  0.00  0.00    -0.274 OA
ATOM      6  O1S NG6 d 399      11.946  -4.281  24.595  0.00  0.00    -0.572 OA
ATOM      7  S   NG6 d 399      10.807  -3.734  25.410  0.00  0.00     0.251 S 
ATOM      8  O5  NG6 d 399      11.200  -6.662  27.909  0.00  0.00    -0.349 OA
ATOM      9  O1  NG6 d 399      10.025  -8.594  28.351  0.00  0.00    -0.369 OA
ATOM     10  O6  NG6 d 399      10.921  -4.180  26.768  0.00  0.00    -0.254 OA
ATOM     11  C4  NG6 d 399      13.294  -6.095  28.936  0.00  0.00     0.089 C 
ATOM     12  C3  NG6 d 399      13.056  -7.108  30.058  0.00  0.00     0.093 C 
ATOM     13  C6  NG6 d 399      12.181  -4.617  27.264  0.00  0.00     0.067 C 
ATOM     14  C2  NG6 d 399      12.020  -8.173  29.663  0.00  0.00     0.087 C 
ATOM     15  O2S NG6 d 399      10.854  -2.227  25.361  0.00  0.00    -0.572 OA
ATOM     16  N   NG6 d 399      11.589  -8.903  30.872  0.00  0.00    -0.349 N 
ATOM     17  C8  NG6 d 399       9.969  -7.129  31.176  0.00  0.00    -0.003 C 
ATOM     18  O3  NG6 d 399      14.283  -7.776  30.328  0.00  0.00    -0.348 OA
ATOM     19  C1  NG6 d 399      10.800  -7.552  28.959  0.00  0.00     0.151 C 
ATOM     20  H   NG6 d 399      11.463  -5.081  29.226  0.00  0.00     0.090 H 
ATOM     21  H   NG6 d 399      14.160  -6.061  27.156  0.00  0.00     0.210 HD
ATOM     22  H   NG6 d 399       9.256  -8.207  27.906  0.00  0.00     0.212 HD
ATOM     23  H   NG6 d 399      13.868  -5.280  29.324  0.00  0.00     0.091 H 
ATOM     24  H   NG6 d 399      12.691  -6.575  30.910  0.00  0.00     0.091 H 
ATOM     25  H   NG6 d 399      12.719  -5.115  26.484  0.00  0.00     0.080 H 
ATOM     26  H   NG6 d 399      12.745  -3.772  27.600  0.00  0.00     0.080 H 
ATOM     27  H   NG6 d 399      12.479  -8.847  28.970  0.00  0.00     0.084 H 
ATOM     28  H   NG6 d 399      12.039  -9.745  31.111  0.00  0.00     0.163 HD
ATOM     29  H   NG6 d 399      10.446  -6.803  30.276  0.00  0.00     0.040 H 
ATOM     30  H   NG6 d 399      10.091  -6.384  31.935  0.00  0.00     0.040 H 
ATOM     31  H   NG6 d 399       8.926  -7.283  30.992  0.00  0.00     0.040 H 
ATOM     32  H   NG6 d 399      10.240  -7.016  29.696  0.00  0.00     0.132 H 
ATOM     33  C5  GCD d 400      17.033  -6.034  31.593  0.00  0.00     0.147 C 
ATOM     34  C2  GCD d 400      15.623  -8.306  32.200  0.00  0.00     0.111 C 
ATOM     35  O6A GCD d 400      17.700  -4.438  29.987  0.00  0.00    -0.642 OA
ATOM     36  C3  GCD d 400      16.405  -7.717  33.367  0.00  0.00     0.084 C 
ATOM     37  O5  GCD d 400      15.848  -6.212  30.932  0.00  0.00    -0.311 OA
ATOM     38  O3  GCD d 400      17.171  -8.746  34.003  0.00  0.00    -0.389 OA
ATOM     39  O6B GCD d 400      19.099  -4.865  31.638  0.00  0.00    -0.642 OA
ATOM     40  O2  GCD d 400      14.643  -9.220  32.682  0.00  0.00    -0.388 OA
ATOM     41  C4  GCD d 400      17.353  -6.690  32.776  0.00  0.00    -0.034 C 
ATOM     42  C1  GCD d 400      14.927  -7.186  31.448  0.00  0.00     0.165 C 
ATOM     43  C6  GCD d 400      18.028  -5.044  31.023  0.00  0.00     0.233 C 
ATOM     44  H   GCD d 400      16.297  -8.822  31.550  0.00  0.00     0.095 H 
ATOM     45  H   GCD d 400      15.748  -7.282  34.091  0.00  0.00     0.093 H 
ATOM     46  H   GCD d 400      17.771  -9.150  33.357  0.00  0.00     0.210 HD
ATOM     47  H   GCD d 400      14.030  -8.754  33.272  0.00  0.00     0.210 HD
ATOM     48  H   GCD d 400      18.242  -6.476  33.256  0.00  0.00     0.085 H 
ATOM     49  H   GCD d 400      14.259  -6.695  32.123  0.00  0.00     0.134 H 
ENDROOT
TORSDOF 12
ENDMDL
MODEL 28
REMARK VINA RESULT:      -5.7      3.857      7.830
REMARK  0 active torsions:
REMARK  status: ('A' for Active; 'I' for Inactive)
REMARK       I    between atoms: C5_1  and  C6_18 
REMARK       I    between atoms: C5_2  and  C6_30 
REMARK       I    between atoms: O4_3  and  C4_14 
REMARK       I    between atoms: C2_4  and  O2_23 
REMARK       I    between atoms: C7_5  and  C8_27 
REMARK       I    between atoms: C7_5  and  N_24 
REMARK       I    between atoms: S_9  and  O6_13 
REMARK       I    between atoms: O1_12  and  C1_29 
REMARK       I    between atoms: O6_13  and  C6_18 
REMARK       I    between atoms: C3_15  and  O3_28 
REMARK       I    between atoms: C3_16  and  O3_20 
REMARK       I    between atoms: C2_19  and  N_24 
REMARK       I    between atoms: C1_26  and  O3_28 
ROOT
ATOM      1  C5  NG6 d 399      11.156  -6.027  30.523  0.00  0.00     0.090 C 
ATOM      2  O4  NG6 d 399      11.760  -3.713  30.830  0.00  0.00    -0.390 OA
ATOM      3  C7  NG6 d 399      14.766  -7.210  28.055  0.00  0.00     0.214 C 
ATOM      4  O3S NG6 d 399       6.811  -6.718  29.398  0.00  0.00    -0.572 OA
ATOM      5  O7  NG6 d 399      15.771  -7.720  27.561  0.00  0.00    -0.274 OA
ATOM      6  O1S NG6 d 399       7.323  -4.795  30.823  0.00  0.00    -0.572 OA
ATOM      7  S   NG6 d 399       7.457  -6.286  30.678  0.00  0.00     0.251 S 
ATOM      8  O5  NG6 d 399      10.971  -5.812  29.128  0.00  0.00    -0.349 OA
ATOM      9  O1  NG6 d 399      11.844  -5.958  27.001  0.00  0.00    -0.369 OA
ATOM     10  O6  NG6 d 399       8.843  -6.650  30.649  0.00  0.00    -0.254 OA
ATOM     11  C4  NG6 d 399      12.206  -5.058  31.042  0.00  0.00     0.089 C 
ATOM     12  C3  NG6 d 399      13.534  -5.292  30.319  0.00  0.00     0.093 C 
ATOM     13  C6  NG6 d 399       9.818  -5.764  31.185  0.00  0.00     0.067 C 
ATOM     14  C2  NG6 d 399      13.358  -5.345  28.793  0.00  0.00     0.087 C 
ATOM     15  O2S NG6 d 399       6.779  -6.951  31.851  0.00  0.00    -0.572 OA
ATOM     16  N   NG6 d 399      14.583  -5.898  28.181  0.00  0.00    -0.349 N 
ATOM     17  C8  NG6 d 399      13.612  -8.079  28.585  0.00  0.00    -0.003 C 
ATOM     18  O3  NG6 d 399      14.406  -4.208  30.618  0.00  0.00    -0.348 OA
ATOM     19  C1  NG6 d 399      12.138  -6.189  28.385  0.00  0.00     0.151 C 
ATOM     20  H   NG6 d 399      11.490  -7.022  30.731  0.00  0.00     0.090 H 
ATOM     21  H   NG6 d 399      10.918  -3.574  31.291  0.00  0.00     0.210 HD
ATOM     22  H   NG6 d 399      11.076  -6.489  26.741  0.00  0.00     0.212 HD
ATOM     23  H   NG6 d 399      12.351  -5.219  32.090  0.00  0.00     0.091 H 
ATOM     24  H   NG6 d 399      13.928  -6.229  30.650  0.00  0.00     0.091 H 
ATOM     25  H   NG6 d 399       9.521  -4.752  31.000  0.00  0.00     0.080 H 
ATOM     26  H   NG6 d 399       9.904  -5.922  32.240  0.00  0.00     0.080 H 
ATOM     27  H   NG6 d 399      13.189  -4.349  28.441  0.00  0.00     0.084 H 
ATOM     28  H   NG6 d 399      15.280  -5.282  27.860  0.00  0.00     0.163 HD
ATOM     29  H   NG6 d 399      12.839  -7.449  28.971  0.00  0.00     0.040 H 
ATOM     30  H   NG6 d 399      13.975  -8.717  29.364  0.00  0.00     0.040 H 
ATOM     31  H   NG6 d 399      13.221  -8.676  27.788  0.00  0.00     0.040 H 
ATOM     32  H   NG6 d 399      12.375  -7.214  28.578  0.00  0.00     0.132 H 
ATOM     33  C5  GCD d 400      15.526  -3.654  33.880  0.00  0.00     0.147 C 
ATOM     34  C2  GCD d 400      16.621  -3.889  31.376  0.00  0.00     0.111 C 
ATOM     35  O6A GCD d 400      13.656  -3.150  35.228  0.00  0.00    -0.642 OA
ATOM     36  C3  GCD d 400      17.589  -4.170  32.518  0.00  0.00     0.084 C 
ATOM     37  O5  GCD d 400      14.697  -4.111  32.892  0.00  0.00    -0.311 OA
ATOM     38  O3  GCD d 400      18.797  -3.427  32.320  0.00  0.00    -0.389 OA
ATOM     39  O6B GCD d 400      15.653  -2.730  36.063  0.00  0.00    -0.642 OA
ATOM     40  O2  GCD d 400      17.145  -4.400  30.156  0.00  0.00    -0.388 OA
ATOM     41  C4  GCD d 400      16.912  -3.683  33.786  0.00  0.00    -0.034 C 
ATOM     42  C1  GCD d 400      15.294  -4.567  31.667  0.00  0.00     0.165 C 
ATOM     43  C6  GCD d 400      14.898  -3.125  35.152  0.00  0.00     0.233 C 
ATOM     44  H   GCD d 400      16.481  -2.832  31.286  0.00  0.00     0.095 H 
ATOM     45  H   GCD d 400      17.832  -5.211  32.571  0.00  0.00     0.093 H 
ATOM     46  H   GCD d 400      18.591  -2.481  32.270  0.00  0.00     0.210 HD
ATOM     47  H   GCD d 400      17.272  -5.359  30.235  0.00  0.00     0.210 HD
ATOM     48  H   GCD d 400      17.486  -3.371  34.586  0.00  0.00     0.085 H 
ATOM     49  H   GCD d 400      15.467  -5.619  31.747  0.00  0.00     0.134 H 
ENDROOT
TORSDOF 12
ENDMDL
MODEL 29
REMARK VINA RESULT:      -5.2      3.078      5.493
REMARK  0 active torsions:
REMARK  status: ('A' for Active; 'I' for Inactive)
REMARK       I    between atoms: C5_1  and  C6_18 
REMARK       I    between atoms: C5_2  and  C6_30 
REMARK       I    between atoms: O4_3  and  C4_14 
REMARK       I    between atoms: C2_4  and  O2_23 
REMARK       I    between atoms: C7_5  and  C8_27 
REMARK       I    between atoms: C7_5  and  N_24 
REMARK       I    between atoms: S_9  and  O6_13 
REMARK       I    between atoms: O1_12  and  C1_29 
REMARK       I    between atoms: O6_13  and  C6_18 
REMARK       I    between atoms: C3_15  and  O3_28 
REMARK       I    between atoms: C3_16  and  O3_20 
REMARK       I    between atoms: C2_19  and  N_24 
REMARK       I    between atoms: C1_26  and  O3_28 
ROOT
ATOM      1  C5  NG6 d 399      15.322  -5.059  32.224  0.00  0.00     0.090 C 
ATOM      2  O4  NG6 d 399      15.027  -6.813  30.595  0.00  0.00    -0.390 OA
ATOM      3  C7  NG6 d 399      14.236  -1.602  29.505  0.00  0.00     0.214 C 
ATOM      4  O3S NG6 d 399      19.100  -5.407  34.719  0.00  0.00    -0.572 OA
ATOM      5  O7  NG6 d 399      13.775  -0.601  28.957  0.00  0.00    -0.274 OA
ATOM      6  O1S NG6 d 399      18.051  -7.480  33.951  0.00  0.00    -0.572 OA
ATOM      7  S   NG6 d 399      17.830  -6.200  34.709  0.00  0.00     0.251 S 
ATOM      8  O5  NG6 d 399      16.437  -4.549  31.499  0.00  0.00    -0.349 OA
ATOM      9  O1  NG6 d 399      17.235  -3.011  29.982  0.00  0.00    -0.369 OA
ATOM     10  O6  NG6 d 399      16.802  -5.430  34.075  0.00  0.00    -0.254 OA
ATOM     11  C4  NG6 d 399      14.361  -5.729  31.255  0.00  0.00     0.089 C 
ATOM     12  C3  NG6 d 399      13.865  -4.712  30.225  0.00  0.00     0.093 C 
ATOM     13  C6  NG6 d 399      15.871  -6.070  33.211  0.00  0.00     0.067 C 
ATOM     14  C2  NG6 d 399      15.023  -3.921  29.593  0.00  0.00     0.087 C 
ATOM     15  O2S NG6 d 399      17.420  -6.537  36.122  0.00  0.00    -0.572 OA
ATOM     16  N   NG6 d 399      14.477  -2.750  28.877  0.00  0.00    -0.349 N 
ATOM     17  C8  NG6 d 399      14.572  -1.601  31.007  0.00  0.00    -0.003 C 
ATOM     18  O3  NG6 d 399      13.199  -5.415  29.183  0.00  0.00    -0.348 OA
ATOM     19  C1  NG6 d 399      16.049  -3.465  30.645  0.00  0.00     0.151 C 
ATOM     20  H   NG6 d 399      14.792  -4.283  32.735  0.00  0.00     0.090 H 
ATOM     21  H   NG6 d 399      15.338  -7.452  31.256  0.00  0.00     0.210 HD
ATOM     22  H   NG6 d 399      17.885  -2.723  30.642  0.00  0.00     0.212 HD
ATOM     23  H   NG6 d 399      13.520  -6.110  31.796  0.00  0.00     0.091 H 
ATOM     24  H   NG6 d 399      13.217  -4.025  30.727  0.00  0.00     0.091 H 
ATOM     25  H   NG6 d 399      16.362  -6.859  32.679  0.00  0.00     0.080 H 
ATOM     26  H   NG6 d 399      15.068  -6.477  33.789  0.00  0.00     0.080 H 
ATOM     27  H   NG6 d 399      15.533  -4.566  28.908  0.00  0.00     0.084 H 
ATOM     28  H   NG6 d 399      14.288  -2.821  27.914  0.00  0.00     0.163 HD
ATOM     29  H   NG6 d 399      14.959  -2.559  31.286  0.00  0.00     0.040 H 
ATOM     30  H   NG6 d 399      13.686  -1.395  31.571  0.00  0.00     0.040 H 
ATOM     31  H   NG6 d 399      15.306  -0.848  31.207  0.00  0.00     0.040 H 
ATOM     32  H   NG6 d 399      15.594  -2.690  31.226  0.00  0.00     0.132 H 
ATOM     33  C5  GCD d 400      10.259  -7.191  29.813  0.00  0.00     0.147 C 
ATOM     34  C2  GCD d 400      11.143  -5.309  28.025  0.00  0.00     0.111 C 
ATOM     35  O6A GCD d 400      10.758  -8.935  31.324  0.00  0.00    -0.642 OA
ATOM     36  C3  GCD d 400       9.629  -5.366  28.186  0.00  0.00     0.084 C 
ATOM     37  O5  GCD d 400      11.458  -6.595  30.097  0.00  0.00    -0.311 OA
ATOM     38  O3  GCD d 400       9.008  -5.426  26.897  0.00  0.00    -0.389 OA
ATOM     39  O6B GCD d 400       8.820  -9.023  30.275  0.00  0.00    -0.642 OA
ATOM     40  O2  GCD d 400      11.520  -4.086  27.402  0.00  0.00    -0.388 OA
ATOM     41  C4  GCD d 400       9.324  -6.647  28.941  0.00  0.00    -0.034 C 
ATOM     42  C1  GCD d 400      11.795  -5.389  29.393  0.00  0.00     0.165 C 
ATOM     43  C6  GCD d 400       9.923  -8.491  30.515  0.00  0.00     0.233 C 
ATOM     44  H   GCD d 400      11.463  -6.129  27.417  0.00  0.00     0.095 H 
ATOM     45  H   GCD d 400       9.263  -4.504  28.703  0.00  0.00     0.093 H 
ATOM     46  H   GCD d 400       9.332  -6.204  26.418  0.00  0.00     0.210 HD
ATOM     47  H   GCD d 400      11.231  -3.341  27.952  0.00  0.00     0.210 HD
ATOM     48  H   GCD d 400       8.415  -7.118  28.806  0.00  0.00     0.085 H 
ATOM     49  H   GCD d 400      11.458  -4.555  29.973  0.00  0.00     0.134 H 
ENDROOT
TORSDOF 12
ENDMDL
MODEL 30
REMARK VINA RESULT:      -5.2      2.475      5.118
REMARK  0 active torsions:
REMARK  status: ('A' for Active; 'I' for Inactive)
REMARK       I    between atoms: C5_1  and  C6_18 
REMARK       I    between atoms: C5_2  and  C6_30 
REMARK       I    between atoms: O4_3  and  C4_14 
REMARK       I    between atoms: C2_4  and  O2_23 
REMARK       I    between atoms: C7_5  and  C8_27 
REMARK       I    between atoms: C7_5  and  N_24 
REMARK       I    between atoms: S_9  and  O6_13 
REMARK       I    between atoms: O1_12  and  C1_29 
REMARK       I    between atoms: O6_13  and  C6_18 
REMARK       I    between atoms: C3_15  and  O3_28 
REMARK       I    between atoms: C3_16  and  O3_20 
REMARK       I    between atoms: C2_19  and  N_24 
REMARK       I    between atoms: C1_26  and  O3_28 
ROOT
ATOM      1  C5  NG6 d 399      14.351  -1.888  30.841  0.00  0.00     0.090 C 
ATOM      2  O4  NG6 d 399      14.975  -3.124  28.867  0.00  0.00    -0.390 OA
ATOM      3  C7  NG6 d 399      10.645   0.064  29.117  0.00  0.00     0.214 C 
ATOM      4  O3S NG6 d 399      17.787   0.256  32.896  0.00  0.00    -0.572 OA
ATOM      5  O7  NG6 d 399       9.523   0.497  28.859  0.00  0.00    -0.274 OA
ATOM      6  O1S NG6 d 399      18.288  -1.838  31.734  0.00  0.00    -0.572 OA
ATOM      7  S   NG6 d 399      17.433  -1.195  32.790  0.00  0.00     0.251 S 
ATOM      8  O5  NG6 d 399      14.627  -0.658  30.180  0.00  0.00    -0.349 OA
ATOM      9  O1  NG6 d 399      13.809   1.157  29.020  0.00  0.00    -0.369 OA
ATOM     10  O6  NG6 d 399      16.049  -1.314  32.436  0.00  0.00    -0.254 OA
ATOM     11  C4  NG6 d 399      13.918  -2.921  29.814  0.00  0.00     0.089 C 
ATOM     12  C3  NG6 d 399      12.654  -2.444  29.097  0.00  0.00     0.093 C 
ATOM     13  C6  NG6 d 399      15.640  -2.317  31.515  0.00  0.00     0.067 C 
ATOM     14  C2  NG6 d 399      12.789  -0.999  28.588  0.00  0.00     0.087 C 
ATOM     15  O2S NG6 d 399      17.685  -1.887  34.107  0.00  0.00    -0.572 OA
ATOM     16  N   NG6 d 399      11.455  -0.488  28.216  0.00  0.00    -0.349 N 
ATOM     17  C8  NG6 d 399      11.212   0.127  30.546  0.00  0.00    -0.003 C 
ATOM     18  O3  NG6 d 399      12.433  -3.282  27.968  0.00  0.00    -0.348 OA
ATOM     19  C1  NG6 d 399      13.432  -0.079  29.641  0.00  0.00     0.151 C 
ATOM     20  H   NG6 d 399      13.567  -1.785  31.561  0.00  0.00     0.090 H 
ATOM     21  H   NG6 d 399      15.771  -3.425  29.331  0.00  0.00     0.210 HD
ATOM     22  H   NG6 d 399      14.214   1.740  29.681  0.00  0.00     0.212 HD
ATOM     23  H   NG6 d 399      13.706  -3.846  30.308  0.00  0.00     0.091 H 
ATOM     24  H   NG6 d 399      11.844  -2.486  29.794  0.00  0.00     0.091 H 
ATOM     25  H   NG6 d 399      16.401  -2.455  30.775  0.00  0.00     0.080 H 
ATOM     26  H   NG6 d 399      15.481  -3.239  32.036  0.00  0.00     0.080 H 
ATOM     27  H   NG6 d 399      13.433  -1.004  27.733  0.00  0.00     0.084 H 
ATOM     28  H   NG6 d 399      11.157  -0.557  27.280  0.00  0.00     0.163 HD
ATOM     29  H   NG6 d 399      12.194  -0.297  30.559  0.00  0.00     0.040 H 
ATOM     30  H   NG6 d 399      10.577  -0.425  31.206  0.00  0.00     0.040 H 
ATOM     31  H   NG6 d 399      11.260   1.146  30.866  0.00  0.00     0.040 H 
ATOM     32  H   NG6 d 399      12.715   0.069  30.422  0.00  0.00     0.132 H 
ATOM     33  C5  GCD d 400      11.716  -6.677  28.369  0.00  0.00     0.147 C 
ATOM     34  C2  GCD d 400      10.664  -4.531  27.023  0.00  0.00     0.111 C 
ATOM     35  O6A GCD d 400      13.582  -7.713  29.377  0.00  0.00    -0.642 OA
ATOM     36  C3  GCD d 400       9.677  -5.663  27.276  0.00  0.00     0.084 C 
ATOM     37  O5  GCD d 400      12.215  -5.446  28.698  0.00  0.00    -0.311 OA
ATOM     38  O3  GCD d 400       8.998  -5.993  26.060  0.00  0.00    -0.389 OA
ATOM     39  O6B GCD d 400      12.051  -9.024  28.483  0.00  0.00    -0.642 OA
ATOM     40  O2  GCD d 400       9.962  -3.340  26.685  0.00  0.00    -0.388 OA
ATOM     41  C4  GCD d 400      10.499  -6.859  27.723  0.00  0.00    -0.034 C 
ATOM     42  C1  GCD d 400      11.478  -4.285  28.281  0.00  0.00     0.165 C 
ATOM     43  C6  GCD d 400      12.517  -7.901  28.762  0.00  0.00     0.233 C 
ATOM     44  H   GCD d 400      11.311  -4.802  26.215  0.00  0.00     0.095 H 
ATOM     45  H   GCD d 400       8.950  -5.385  28.010  0.00  0.00     0.093 H 
ATOM     46  H   GCD d 400       9.647  -6.248  25.386  0.00  0.00     0.210 HD
ATOM     47  H   GCD d 400       9.376  -3.092  27.417  0.00  0.00     0.210 HD
ATOM     48  H   GCD d 400      10.151  -7.815  27.546  0.00  0.00     0.085 H 
ATOM     49  H   GCD d 400      10.805  -4.013  29.066  0.00  0.00     0.134 H 
ENDROOT
TORSDOF 12
ENDMDL
MODEL 31
REMARK VINA RESULT:      -5.1      3.295      4.883
REMARK  0 active torsions:
REMARK  status: ('A' for Active; 'I' for Inactive)
REMARK       I    between atoms: C5_1  and  C6_18 
REMARK       I    between atoms: C5_2  and  C6_30 
REMARK       I    between atoms: O4_3  and  C4_14 
REMARK       I    between atoms: C2_4  and  O2_23 
REMARK       I    between atoms: C7_5  and  C8_27 
REMARK       I    between atoms: C7_5  and  N_24 
REMARK       I    between atoms: S_9  and  O6_13 
REMARK       I    between atoms: O1_12  and  C1_29 
REMARK       I    between atoms: O6_13  and  C6_18 
REMARK       I    between atoms: C3_15  and  O3_28 
REMARK       I    between atoms: C3_16  and  O3_20 
REMARK       I    between atoms: C2_19  and  N_24 
REMARK       I    between atoms: C1_26  and  O3_28 
ROOT
ATOM      1  C5  NG6 d 399      14.351  -6.171  29.939  0.00  0.00     0.090 C 
ATOM      2  O4  NG6 d 399      13.932  -4.578  31.701  0.00  0.00    -0.390 OA
ATOM      3  C7  NG6 d 399      10.056  -6.615  28.571  0.00  0.00     0.214 C 
ATOM      4  O3S NG6 d 399      17.154  -9.558  31.076  0.00  0.00    -0.572 OA
ATOM      5  O7  NG6 d 399       8.987  -6.682  27.965  0.00  0.00    -0.274 OA
ATOM      6  O1S NG6 d 399      17.507  -7.385  32.145  0.00  0.00    -0.572 OA
ATOM      7  S   NG6 d 399      17.394  -8.101  30.827  0.00  0.00     0.251 S 
ATOM      8  O5  NG6 d 399      13.641  -7.176  30.654  0.00  0.00    -0.349 OA
ATOM      9  O1  NG6 d 399      11.666  -8.323  30.958  0.00  0.00    -0.369 OA
ATOM     10  O6  NG6 d 399      16.296  -7.567  30.076  0.00  0.00    -0.254 OA
ATOM     11  C4  NG6 d 399      13.780  -4.807  30.294  0.00  0.00     0.089 C 
ATOM     12  C3  NG6 d 399      12.301  -4.745  29.908  0.00  0.00     0.093 C 
ATOM     13  C6  NG6 d 399      15.800  -6.269  30.376  0.00  0.00     0.067 C 
ATOM     14  C2  NG6 d 399      11.518  -5.963  30.426  0.00  0.00     0.087 C 
ATOM     15  O2S NG6 d 399      18.680  -7.911  30.061  0.00  0.00    -0.572 OA
ATOM     16  N   NG6 d 399      10.205  -6.020  29.752  0.00  0.00    -0.349 N 
ATOM     17  C8  NG6 d 399      11.340  -7.230  27.987  0.00  0.00    -0.003 C 
ATOM     18  O3  NG6 d 399      11.731  -3.581  30.494  0.00  0.00    -0.348 OA
ATOM     19  C1  NG6 d 399      12.285  -7.277  30.198  0.00  0.00     0.151 C 
ATOM     20  H   NG6 d 399      14.267  -6.301  28.881  0.00  0.00     0.090 H 
ATOM     21  H   NG6 d 399      14.872  -4.620  31.936  0.00  0.00     0.210 HD
ATOM     22  H   NG6 d 399      12.147  -9.153  30.818  0.00  0.00     0.212 HD
ATOM     23  H   NG6 d 399      14.309  -4.049  29.755  0.00  0.00     0.091 H 
ATOM     24  H   NG6 d 399      12.240  -4.730  28.840  0.00  0.00     0.091 H 
ATOM     25  H   NG6 d 399      15.868  -6.095  31.430  0.00  0.00     0.080 H 
ATOM     26  H   NG6 d 399      16.380  -5.535  29.856  0.00  0.00     0.080 H 
ATOM     27  H   NG6 d 399      11.384  -5.850  31.482  0.00  0.00     0.084 H 
ATOM     28  H   NG6 d 399       9.424  -5.608  30.185  0.00  0.00     0.163 HD
ATOM     29  H   NG6 d 399      12.153  -7.065  28.663  0.00  0.00     0.040 H 
ATOM     30  H   NG6 d 399      11.560  -6.770  27.046  0.00  0.00     0.040 H 
ATOM     31  H   NG6 d 399      11.200  -8.281  27.847  0.00  0.00     0.040 H 
ATOM     32  H   NG6 d 399      12.270  -7.483  29.149  0.00  0.00     0.132 H 
ATOM     33  C5  GCD d 400      12.789  -0.392  29.542  0.00  0.00     0.147 C 
ATOM     34  C2  GCD d 400      10.416  -1.737  29.824  0.00  0.00     0.111 C 
ATOM     35  O6A GCD d 400      15.063  -0.161  30.132  0.00  0.00    -0.642 OA
ATOM     36  C3  GCD d 400      10.355  -0.537  28.887  0.00  0.00     0.084 C 
ATOM     37  O5  GCD d 400      12.873  -1.745  29.729  0.00  0.00    -0.311 OA
ATOM     38  O3  GCD d 400       9.236   0.287  29.230  0.00  0.00    -0.389 OA
ATOM     39  O6B GCD d 400      13.961   1.672  29.594  0.00  0.00    -0.642 OA
ATOM     40  O2  GCD d 400       9.288  -2.578  29.611  0.00  0.00    -0.388 OA
ATOM     41  C4  GCD d 400      11.635   0.249  29.110  0.00  0.00    -0.034 C 
ATOM     42  C1  GCD d 400      11.682  -2.526  29.545  0.00  0.00     0.165 C 
ATOM     43  C6  GCD d 400      14.031   0.442  29.786  0.00  0.00     0.233 C 
ATOM     44  H   GCD d 400      10.414  -1.392  30.837  0.00  0.00     0.095 H 
ATOM     45  H   GCD d 400      10.252  -0.848  27.868  0.00  0.00     0.093 H 
ATOM     46  H   GCD d 400       9.317   0.576  30.152  0.00  0.00     0.210 HD
ATOM     47  H   GCD d 400       9.288  -2.892  28.694  0.00  0.00     0.210 HD
ATOM     48  H   GCD d 400      11.647   1.267  28.939  0.00  0.00     0.085 H 
ATOM     49  H   GCD d 400      11.651  -2.859  28.529  0.00  0.00     0.134 H 
ENDROOT
TORSDOF 12
ENDMDL
MODEL 32
REMARK VINA RESULT:      -4.8      2.733      7.253
REMARK  0 active torsions:
REMARK  status: ('A' for Active; 'I' for Inactive)
REMARK       I    between atoms: C5_1  and  C6_18 
REMARK       I    between atoms: C5_2  and  C6_30 
REMARK       I    between atoms: O4_3  and  C4_14 
REMARK       I    between atoms: C2_4  and  O2_23 
REMARK       I    between atoms: C7_5  and  C8_27 
REMARK       I    between atoms: C7_5  and  N_24 
REMARK       I    between atoms: S_9  and  O6_13 
REMARK       I    between atoms: O1_12  and  C1_29 
REMARK       I    between atoms: O6_13  and  C6_18 
REMARK       I    between atoms: C3_15  and  O3_28 
REMARK       I    between atoms: C3_16  and  O3_20 
REMARK       I    between atoms: C2_19  and  N_24 
REMARK       I    between atoms: C1_26  and  O3_28 
ROOT
ATOM      1  C5  NG6 d 399      11.904  -3.457  28.222  0.00  0.00     0.090 C 
ATOM      2  O4  NG6 d 399      14.303  -3.678  28.107  0.00  0.00    -0.390 OA
ATOM      3  C7  NG6 d 399      11.115  -7.262  30.550  0.00  0.00     0.214 C 
ATOM      4  O3S NG6 d 399       9.923  -2.259  24.316  0.00  0.00    -0.572 OA
ATOM      5  O7  NG6 d 399      10.769  -8.138  31.342  0.00  0.00    -0.274 OA
ATOM      6  O1S NG6 d 399      12.187  -1.431  24.741  0.00  0.00    -0.572 OA
ATOM      7  S   NG6 d 399      10.783  -1.497  25.277  0.00  0.00     0.251 S 
ATOM      8  O5  NG6 d 399      11.741  -4.597  27.386  0.00  0.00    -0.349 OA
ATOM      9  O1  NG6 d 399      11.331  -6.859  27.233  0.00  0.00    -0.369 OA
ATOM     10  O6  NG6 d 399      10.775  -2.168  26.543  0.00  0.00    -0.254 OA
ATOM     11  C4  NG6 d 399      13.195  -3.598  29.013  0.00  0.00     0.089 C 
ATOM     12  C3  NG6 d 399      13.137  -4.854  29.885  0.00  0.00     0.093 C 
ATOM     13  C6  NG6 d 399      11.974  -2.251  27.305  0.00  0.00     0.067 C 
ATOM     14  C2  NG6 d 399      12.693  -6.091  29.086  0.00  0.00     0.087 C 
ATOM     15  O2S NG6 d 399      10.258  -0.092  25.439  0.00  0.00    -0.572 OA
ATOM     16  N   NG6 d 399      12.335  -7.173  30.024  0.00  0.00    -0.349 N 
ATOM     17  C8  NG6 d 399      10.133  -6.166  30.099  0.00  0.00    -0.003 C 
ATOM     18  O3  NG6 d 399      14.441  -5.110  30.393  0.00  0.00    -0.348 OA
ATOM     19  C1  NG6 d 399      11.503  -5.779  28.160  0.00  0.00     0.151 C 
ATOM     20  H   NG6 d 399      11.098  -3.355  28.918  0.00  0.00     0.090 H 
ATOM     21  H   NG6 d 399      14.331  -2.879  27.559  0.00  0.00     0.210 HD
ATOM     22  H   NG6 d 399      10.582  -6.666  26.648  0.00  0.00     0.212 HD
ATOM     23  H   NG6 d 399      13.319  -2.745  29.646  0.00  0.00     0.091 H 
ATOM     24  H   NG6 d 399      12.427  -4.680  30.666  0.00  0.00     0.091 H 
ATOM     25  H   NG6 d 399      12.810  -2.352  26.645  0.00  0.00     0.080 H 
ATOM     26  H   NG6 d 399      12.088  -1.363  27.891  0.00  0.00     0.080 H 
ATOM     27  H   NG6 d 399      13.509  -6.398  28.465  0.00  0.00     0.084 H 
ATOM     28  H   NG6 d 399      13.013  -7.844  30.267  0.00  0.00     0.163 HD
ATOM     29  H   NG6 d 399      10.625  -5.507  29.415  0.00  0.00     0.040 H 
ATOM     30  H   NG6 d 399       9.801  -5.612  30.953  0.00  0.00     0.040 H 
ATOM     31  H   NG6 d 399       9.292  -6.618  29.618  0.00  0.00     0.040 H 
ATOM     32  H   NG6 d 399      10.641  -5.642  28.778  0.00  0.00     0.132 H 
ATOM     33  C5  GCD d 400      15.986  -2.868  32.580  0.00  0.00     0.147 C 
ATOM     34  C2  GCD d 400      15.461  -5.558  32.475  0.00  0.00     0.111 C 
ATOM     35  O6A GCD d 400      16.309  -0.827  31.439  0.00  0.00    -0.642 OA
ATOM     36  C3  GCD d 400      15.698  -5.014  33.879  0.00  0.00     0.084 C 
ATOM     37  O5  GCD d 400      15.125  -3.285  31.601  0.00  0.00    -0.311 OA
ATOM     38  O3  GCD d 400      16.649  -5.838  34.562  0.00  0.00    -0.389 OA
ATOM     39  O6B GCD d 400      17.388  -1.110  33.341  0.00  0.00    -0.642 OA
ATOM     40  O2  GCD d 400      14.829  -6.832  32.547  0.00  0.00    -0.388 OA
ATOM     41  C4  GCD d 400      16.280  -3.622  33.709  0.00  0.00    -0.034 C 
ATOM     42  C1  GCD d 400      14.563  -4.602  31.713  0.00  0.00     0.165 C 
ATOM     43  C6  GCD d 400      16.621  -1.500  32.438  0.00  0.00     0.233 C 
ATOM     44  H   GCD d 400      16.401  -5.657  31.974  0.00  0.00     0.095 H 
ATOM     45  H   GCD d 400      14.790  -4.999  34.445  0.00  0.00     0.093 H 
ATOM     46  H   GCD d 400      17.478  -5.860  34.058  0.00  0.00     0.210 HD
ATOM     47  H   GCD d 400      13.977  -6.744  33.001  0.00  0.00     0.210 HD
ATOM     48  H   GCD d 400      16.899  -3.234  34.438  0.00  0.00     0.085 H 
ATOM     49  H   GCD d 400      13.633  -4.528  32.236  0.00  0.00     0.134 H 
ENDROOT
TORSDOF 12
ENDMDL
MODEL 33
REMARK VINA RESULT:      -4.4      2.884      3.552
REMARK  0 active torsions:
REMARK  status: ('A' for Active; 'I' for Inactive)
REMARK       I    between atoms: C5_1  and  C6_18 
REMARK       I    between atoms: C5_2  and  C6_30 
REMARK       I    between atoms: O4_3  and  C4_14 
REMARK       I    between atoms: C2_4  and  O2_23 
REMARK       I    between atoms: C7_5  and  C8_27 
REMARK       I    between atoms: C7_5  and  N_24 
REMARK       I    between atoms: S_9  and  O6_13 
REMARK       I    between atoms: O1_12  and  C1_29 
REMARK       I    between atoms: O6_13  and  C6_18 
REMARK       I    between atoms: C3_15  and  O3_28 
REMARK       I    between atoms: C3_16  and  O3_20 
REMARK       I    between atoms: C2_19  and  N_24 
REMARK       I    between atoms: C1_26  and  O3_28 
ROOT
ATOM      1  C5  NG6 d 399      14.720  -5.563  30.319  0.00  0.00     0.090 C 
ATOM      2  O4  NG6 d 399      13.499  -3.920  31.593  0.00  0.00    -0.390 OA
ATOM      3  C7  NG6 d 399      11.138  -7.458  28.295  0.00  0.00     0.214 C 
ATOM      4  O3S NG6 d 399      17.938  -7.759  32.652  0.00  0.00    -0.572 OA
ATOM      5  O7  NG6 d 399      10.299  -7.928  27.527  0.00  0.00    -0.274 OA
ATOM      6  O1S NG6 d 399      17.457  -5.445  33.285  0.00  0.00    -0.572 OA
ATOM      7  S   NG6 d 399      17.850  -6.351  32.151  0.00  0.00     0.251 S 
ATOM      8  O5  NG6 d 399      14.140  -6.614  31.084  0.00  0.00    -0.349 OA
ATOM      9  O1  NG6 d 399      12.510  -8.234  31.248  0.00  0.00    -0.369 OA
ATOM     10  O6  NG6 d 399      16.866  -6.286  31.111  0.00  0.00    -0.254 OA
ATOM     11  C4  NG6 d 399      13.752  -4.392  30.264  0.00  0.00     0.089 C 
ATOM     12  C3  NG6 d 399      12.444  -4.829  29.603  0.00  0.00     0.093 C 
ATOM     13  C6  NG6 d 399      15.998  -5.162  31.030  0.00  0.00     0.067 C 
ATOM     14  C2  NG6 d 399      11.897  -6.131  30.210  0.00  0.00     0.087 C 
ATOM     15  O2S NG6 d 399      19.190  -5.908  31.616  0.00  0.00    -0.572 OA
ATOM     16  N   NG6 d 399      10.843  -6.674  29.329  0.00  0.00    -0.349 N 
ATOM     17  C8  NG6 d 399      12.638  -7.746  28.106  0.00  0.00    -0.003 C 
ATOM     18  O3  NG6 d 399      11.472  -3.811  29.812  0.00  0.00    -0.348 OA
ATOM     19  C1  NG6 d 399      13.006  -7.179  30.414  0.00  0.00     0.151 C 
ATOM     20  H   NG6 d 399      14.928  -5.870  29.316  0.00  0.00     0.090 H 
ATOM     21  H   NG6 d 399      14.334  -3.646  32.004  0.00  0.00     0.210 HD
ATOM     22  H   NG6 d 399      13.206  -8.896  31.379  0.00  0.00     0.212 HD
ATOM     23  H   NG6 d 399      14.184  -3.602  29.686  0.00  0.00     0.091 H 
ATOM     24  H   NG6 d 399      12.639  -4.993  28.564  0.00  0.00     0.091 H 
ATOM     25  H   NG6 d 399      15.765  -4.820  32.017  0.00  0.00     0.080 H 
ATOM     26  H   NG6 d 399      16.478  -4.376  30.486  0.00  0.00     0.080 H 
ATOM     27  H   NG6 d 399      11.490  -5.906  31.174  0.00  0.00     0.084 H 
ATOM     28  H   NG6 d 399       9.902  -6.451  29.511  0.00  0.00     0.163 HD
ATOM     29  H   NG6 d 399      13.195  -7.249  28.872  0.00  0.00     0.040 H 
ATOM     30  H   NG6 d 399      12.952  -7.389  27.147  0.00  0.00     0.040 H 
ATOM     31  H   NG6 d 399      12.808  -8.800  28.167  0.00  0.00     0.040 H 
ATOM     32  H   NG6 d 399      13.295  -7.536  29.448  0.00  0.00     0.132 H 
ATOM     33  C5  GCD d 400      11.877  -0.632  28.422  0.00  0.00     0.147 C 
ATOM     34  C2  GCD d 400       9.930  -2.561  28.532  0.00  0.00     0.111 C 
ATOM     35  O6A GCD d 400      13.807   0.346  29.365  0.00  0.00    -0.642 OA
ATOM     36  C3  GCD d 400       9.791  -1.588  27.368  0.00  0.00     0.084 C 
ATOM     37  O5  GCD d 400      12.256  -1.856  28.904  0.00  0.00    -0.311 OA
ATOM     38  O3  GCD d 400       8.450  -1.089  27.312  0.00  0.00    -0.389 OA
ATOM     39  O6B GCD d 400      12.436   1.669  28.255  0.00  0.00    -0.642 OA
ATOM     40  O2  GCD d 400       9.139  -3.720  28.294  0.00  0.00    -0.388 OA
ATOM     41  C4  GCD d 400      10.736  -0.434  27.655  0.00  0.00    -0.034 C 
ATOM     42  C1  GCD d 400      11.384  -2.973  28.669  0.00  0.00     0.165 C 
ATOM     43  C6  GCD d 400      12.769   0.557  28.713  0.00  0.00     0.233 C 
ATOM     44  H   GCD d 400       9.598  -2.083  29.430  0.00  0.00     0.095 H 
ATOM     45  H   GCD d 400      10.018  -2.064  26.437  0.00  0.00     0.093 H 
ATOM     46  H   GCD d 400       8.232  -0.654  28.151  0.00  0.00     0.210 HD
ATOM     47  H   GCD d 400       9.439  -4.154  27.480  0.00  0.00     0.210 HD
ATOM     48  H   GCD d 400      10.529   0.504  27.278  0.00  0.00     0.085 H 
ATOM     49  H   GCD d 400      11.684  -3.449  27.759  0.00  0.00     0.134 H 
ENDROOT
TORSDOF 12
ENDMDL
MODEL 34
REMARK VINA RESULT:      -4.4      2.638      2.980
REMARK  0 active torsions:
REMARK  status: ('A' for Active; 'I' for Inactive)
REMARK       I    between atoms: C5_1  and  C6_18 
REMARK       I    between atoms: C5_2  and  C6_30 
REMARK       I    between atoms: O4_3  and  C4_14 
REMARK       I    between atoms: C2_4  and  O2_23 
REMARK       I    between atoms: C7_5  and  C8_27 
REMARK       I    between atoms: C7_5  and  N_24 
REMARK       I    between atoms: S_9  and  O6_13 
REMARK       I    between atoms: O1_12  and  C1_29 
REMARK       I    between atoms: O6_13  and  C6_18 
REMARK       I    between atoms: C3_15  and  O3_28 
REMARK       I    between atoms: C3_16  and  O3_20 
REMARK       I    between atoms: C2_19  and  N_24 
REMARK       I    between atoms: C1_26  and  O3_28 
ROOT
ATOM      1  C5  NG6 d 399      15.556  -4.985  31.425  0.00  0.00     0.090 C 
ATOM      2  O4  NG6 d 399      13.612  -4.081  32.528  0.00  0.00    -0.390 OA
ATOM      3  C7  NG6 d 399      13.385  -8.100  28.955  0.00  0.00     0.214 C 
ATOM      4  O3S NG6 d 399      19.103  -5.742  34.158  0.00  0.00    -0.572 OA
ATOM      5  O7  NG6 d 399      12.923  -8.838  28.086  0.00  0.00    -0.274 OA
ATOM      6  O1S NG6 d 399      17.613  -3.883  34.720  0.00  0.00    -0.572 OA
ATOM      7  S   NG6 d 399      18.485  -4.477  33.647  0.00  0.00     0.251 S 
ATOM      8  O5  NG6 d 399      15.392  -6.222  32.110  0.00  0.00    -0.349 OA
ATOM      9  O1  NG6 d 399      14.599  -8.384  32.063  0.00  0.00    -0.369 OA
ATOM     10  O6  NG6 d 399      17.696  -4.777  32.489  0.00  0.00    -0.254 OA
ATOM     11  C4  NG6 d 399      14.197  -4.330  31.243  0.00  0.00     0.089 C 
ATOM     12  C3  NG6 d 399      13.286  -5.241  30.419  0.00  0.00     0.093 C 
ATOM     13  C6  NG6 d 399      16.449  -4.121  32.295  0.00  0.00     0.067 C 
ATOM     14  C2  NG6 d 399      13.277  -6.683  30.952  0.00  0.00     0.087 C 
ATOM     15  O2S NG6 d 399      19.562  -3.482  33.291  0.00  0.00    -0.572 OA
ATOM     16  N   NG6 d 399      12.666  -7.571  29.942  0.00  0.00    -0.349 N 
ATOM     17  C8  NG6 d 399      14.876  -7.719  28.963  0.00  0.00    -0.003 C 
ATOM     18  O3  NG6 d 399      11.956  -4.740  30.499  0.00  0.00    -0.348 OA
ATOM     19  C1  NG6 d 399      14.693  -7.175  31.299  0.00  0.00     0.151 C 
ATOM     20  H   NG6 d 399      15.992  -5.120  30.457  0.00  0.00     0.090 H 
ATOM     21  H   NG6 d 399      14.196  -3.503  33.043  0.00  0.00     0.210 HD
ATOM     22  H   NG6 d 399      15.489  -8.697  32.284  0.00  0.00     0.212 HD
ATOM     23  H   NG6 d 399      14.316  -3.401  30.725  0.00  0.00     0.091 H 
ATOM     24  H   NG6 d 399      13.653  -5.251  29.414  0.00  0.00     0.091 H 
ATOM     25  H   NG6 d 399      15.978  -3.963  33.243  0.00  0.00     0.080 H 
ATOM     26  H   NG6 d 399      16.611  -3.178  31.816  0.00  0.00     0.080 H 
ATOM     27  H   NG6 d 399      12.702  -6.702  31.854  0.00  0.00     0.084 H 
ATOM     28  H   NG6 d 399      11.705  -7.776  30.000  0.00  0.00     0.163 HD
ATOM     29  H   NG6 d 399      15.075  -7.075  29.794  0.00  0.00     0.040 H 
ATOM     30  H   NG6 d 399      15.119  -7.211  28.053  0.00  0.00     0.040 H 
ATOM     31  H   NG6 d 399      15.470  -8.604  29.047  0.00  0.00     0.040 H 
ATOM     32  H   NG6 d 399      15.218  -7.324  30.379  0.00  0.00     0.132 H 
ATOM     33  C5  GCD d 400      11.133  -1.617  29.169  0.00  0.00     0.147 C 
ATOM     34  C2  GCD d 400      10.192  -4.189  29.028  0.00  0.00     0.111 C 
ATOM     35  O6A GCD d 400      12.338   0.031  30.353  0.00  0.00    -0.642 OA
ATOM     36  C3  GCD d 400       9.791  -3.304  27.854  0.00  0.00     0.084 C 
ATOM     37  O5  GCD d 400      11.936  -2.591  29.697  0.00  0.00    -0.311 OA
ATOM     38  O3  GCD d 400       8.382  -3.415  27.625  0.00  0.00    -0.389 OA
ATOM     39  O6B GCD d 400      10.676   0.711  29.073  0.00  0.00    -0.642 OA
ATOM     40  O2  GCD d 400      10.002  -5.559  28.691  0.00  0.00    -0.388 OA
ATOM     41  C4  GCD d 400      10.115  -1.878  28.261  0.00  0.00    -0.034 C 
ATOM     42  C1  GCD d 400      11.656  -3.957  29.353  0.00  0.00     0.165 C 
ATOM     43  C6  GCD d 400      11.394  -0.180  29.572  0.00  0.00     0.233 C 
ATOM     44  H   GCD d 400       9.585  -3.946  29.875  0.00  0.00     0.095 H 
ATOM     45  H   GCD d 400      10.307  -3.590  26.962  0.00  0.00     0.093 H 
ATOM     46  H   GCD d 400       7.902  -3.158  28.428  0.00  0.00     0.210 HD
ATOM     47  H   GCD d 400      10.552  -5.782  27.924  0.00  0.00     0.210 HD
ATOM     48  H   GCD d 400       9.575  -1.095  27.858  0.00  0.00     0.085 H 
ATOM     49  H   GCD d 400      12.234  -4.213  28.490  0.00  0.00     0.134 H 
ENDROOT
TORSDOF 12
ENDMDL
MODEL 35
REMARK VINA RESULT:      -3.8      3.244      8.287
REMARK  0 active torsions:
REMARK  status: ('A' for Active; 'I' for Inactive)
REMARK       I    between atoms: C5_1  and  C6_18 
REMARK       I    between atoms: C5_2  and  C6_30 
REMARK       I    between atoms: O4_3  and  C4_14 
REMARK       I    between atoms: C2_4  and  O2_23 
REMARK       I    between atoms: C7_5  and  C8_27 
REMARK       I    between atoms: C7_5  and  N_24 
REMARK       I    between atoms: S_9  and  O6_13 
REMARK       I    between atoms: O1_12  and  C1_29 
REMARK       I    between atoms: O6_13  and  C6_18 
REMARK       I    between atoms: C3_15  and  O3_28 
REMARK       I    between atoms: C3_16  and  O3_20 
REMARK       I    between atoms: C2_19  and  N_24 
REMARK       I    between atoms: C1_26  and  O3_28 
ROOT
ATOM      1  C5  NG6 d 399      12.373  -2.826  27.324  0.00  0.00     0.090 C 
ATOM      2  O4  NG6 d 399      12.597  -4.291  29.227  0.00  0.00    -0.390 OA
ATOM      3  C7  NG6 d 399      12.693   1.077  29.600  0.00  0.00     0.214 C 
ATOM      4  O3S NG6 d 399       9.060  -3.967  24.436  0.00  0.00    -0.572 OA
ATOM      5  O7  NG6 d 399      12.965   2.192  30.044  0.00  0.00    -0.274 OA
ATOM      6  O1S NG6 d 399      10.186  -5.774  25.643  0.00  0.00    -0.572 OA
ATOM      7  S   NG6 d 399      10.387  -4.593  24.734  0.00  0.00     0.251 S 
ATOM      8  O5  NG6 d 399      11.118  -2.360  27.809  0.00  0.00    -0.349 OA
ATOM      9  O1  NG6 d 399       9.953  -0.736  28.954  0.00  0.00    -0.369 OA
ATOM     10  O6  NG6 d 399      11.228  -3.624  25.373  0.00  0.00    -0.254 OA
ATOM     11  C4  NG6 d 399      13.242  -3.236  28.502  0.00  0.00     0.089 C 
ATOM     12  C3  NG6 d 399      13.475  -2.034  29.420  0.00  0.00     0.093 C 
ATOM     13  C6  NG6 d 399      12.080  -4.022  26.440  0.00  0.00     0.067 C 
ATOM     14  C2  NG6 d 399      12.164  -1.310  29.766  0.00  0.00     0.087 C 
ATOM     15  O2S NG6 d 399      11.034  -5.069  23.457  0.00  0.00    -0.572 OA
ATOM     16  N   NG6 d 399      12.477   0.006  30.359  0.00  0.00    -0.349 N 
ATOM     17  C8  NG6 d 399      12.584   0.831  28.085  0.00  0.00    -0.003 C 
ATOM     18  O3  NG6 d 399      14.047  -2.501  30.637  0.00  0.00    -0.348 OA
ATOM     19  C1  NG6 d 399      11.264  -1.130  28.530  0.00  0.00     0.151 C 
ATOM     20  H   NG6 d 399      12.892  -2.070  26.775  0.00  0.00     0.090 H 
ATOM     21  H   NG6 d 399      12.453  -5.047  28.637  0.00  0.00     0.210 HD
ATOM     22  H   NG6 d 399       9.383  -0.622  28.178  0.00  0.00     0.212 HD
ATOM     23  H   NG6 d 399      14.188  -3.583  28.142  0.00  0.00     0.091 H 
ATOM     24  H   NG6 d 399      14.119  -1.349  28.909  0.00  0.00     0.091 H 
ATOM     25  H   NG6 d 399      11.597  -4.784  27.017  0.00  0.00     0.080 H 
ATOM     26  H   NG6 d 399      12.996  -4.405  26.042  0.00  0.00     0.080 H 
ATOM     27  H   NG6 d 399      11.625  -1.911  30.468  0.00  0.00     0.084 H 
ATOM     28  H   NG6 d 399      12.527   0.092  31.339  0.00  0.00     0.163 HD
ATOM     29  H   NG6 d 399      12.341  -0.195  27.907  0.00  0.00     0.040 H 
ATOM     30  H   NG6 d 399      13.518   1.063  27.618  0.00  0.00     0.040 H 
ATOM     31  H   NG6 d 399      11.817   1.455  27.677  0.00  0.00     0.040 H 
ATOM     32  H   NG6 d 399      11.720  -0.393  27.903  0.00  0.00     0.132 H 
ATOM     33  C5  GCD d 400      17.211  -3.979  30.679  0.00  0.00     0.147 C 
ATOM     34  C2  GCD d 400      15.888  -1.990  32.026  0.00  0.00     0.111 C 
ATOM     35  O6A GCD d 400      17.118  -5.962  29.401  0.00  0.00    -0.642 OA
ATOM     36  C3  GCD d 400      17.407  -1.885  32.077  0.00  0.00     0.084 C 
ATOM     37  O5  GCD d 400      16.014  -3.578  30.152  0.00  0.00    -0.311 OA
ATOM     38  O3  GCD d 400      17.832  -1.692  33.430  0.00  0.00    -0.389 OA
ATOM     39  O6B GCD d 400      18.878  -5.670  30.698  0.00  0.00    -0.642 OA
ATOM     40  O2  GCD d 400      15.302  -0.748  32.399  0.00  0.00    -0.388 OA
ATOM     41  C4  GCD d 400      17.947  -3.212  31.573  0.00  0.00    -0.034 C 
ATOM     42  C1  GCD d 400      15.457  -2.335  30.612  0.00  0.00     0.165 C 
ATOM     43  C6  GCD d 400      17.776  -5.313  30.235  0.00  0.00     0.233 C 
ATOM     44  H   GCD d 400      15.565  -2.751  32.704  0.00  0.00     0.095 H 
ATOM     45  H   GCD d 400      17.757  -1.064  31.486  0.00  0.00     0.093 H 
ATOM     46  H   GCD d 400      17.521  -2.430  33.976  0.00  0.00     0.210 HD
ATOM     47  H   GCD d 400      15.593  -0.056  31.784  0.00  0.00     0.210 HD
ATOM     48  H   GCD d 400      18.868  -3.546  31.898  0.00  0.00     0.085 H 
ATOM     49  H   GCD d 400      15.790  -1.555  29.961  0.00  0.00     0.134 H 
ENDROOT
TORSDOF 12
ENDMDL
MODEL 36
REMARK VINA RESULT:      -3.5      4.049      6.996
REMARK  0 active torsions:
REMARK  status: ('A' for Active; 'I' for Inactive)
REMARK       I    between atoms: C5_1  and  C6_18 
REMARK       I    between atoms: C5_2  and  C6_30 
REMARK       I    between atoms: O4_3  and  C4_14 
REMARK       I    between atoms: C2_4  and  O2_23 
REMARK       I    between atoms: C7_5  and  C8_27 
REMARK       I    between atoms: C7_5  and  N_24 
REMARK       I    between atoms: S_9  and  O6_13 
REMARK       I    between atoms: O1_12  and  C1_29 
REMARK       I    between atoms: O6_13  and  C6_18 
REMARK       I    between atoms: C3_15  and  O3_28 
REMARK       I    between atoms: C3_16  and  O3_20 
REMARK       I    between atoms: C2_19  and  N_24 
REMARK       I    between atoms: C1_26  and  O3_28 
ROOT
ATOM      1  C5  NG6 d 399      12.316  -6.764  30.823  0.00  0.00     0.090 C 
ATOM      2  O4  NG6 d 399      12.986  -5.467  28.904  0.00  0.00    -0.390 OA
ATOM      3  C7  NG6 d 399      16.468  -8.083  32.066  0.00  0.00     0.214 C 
ATOM      4  O3S NG6 d 399       8.750  -9.486  30.119  0.00  0.00    -0.572 OA
ATOM      5  O7  NG6 d 399      17.526  -8.347  32.635  0.00  0.00    -0.274 OA
ATOM      6  O1S NG6 d 399       8.843  -7.388  28.862  0.00  0.00    -0.572 OA
ATOM      7  S   NG6 d 399       8.866  -7.997  30.237  0.00  0.00     0.251 S 
ATOM      8  O5  NG6 d 399      12.735  -7.963  30.180  0.00  0.00    -0.349 OA
ATOM      9  O1  NG6 d 399      14.372  -9.562  29.913  0.00  0.00    -0.369 OA
ATOM     10  O6  NG6 d 399      10.098  -7.674  30.893  0.00  0.00    -0.254 OA
ATOM     11  C4  NG6 d 399      13.163  -5.606  30.319  0.00  0.00     0.089 C 
ATOM     12  C3  NG6 d 399      14.637  -5.859  30.642  0.00  0.00     0.093 C 
ATOM     13  C6  NG6 d 399      10.861  -6.557  30.453  0.00  0.00     0.067 C 
ATOM     14  C2  NG6 d 399      15.088  -7.265  30.213  0.00  0.00     0.087 C 
ATOM     15  O2S NG6 d 399       7.705  -7.449  31.030  0.00  0.00    -0.572 OA
ATOM     16  N   NG6 d 399      16.390  -7.570  30.840  0.00  0.00    -0.349 N 
ATOM     17  C8  NG6 d 399      15.114  -8.330  32.753  0.00  0.00    -0.003 C 
ATOM     18  O3  NG6 d 399      15.423  -4.913  29.926  0.00  0.00    -0.348 OA
ATOM     19  C1  NG6 d 399      14.055  -8.340  30.593  0.00  0.00     0.151 C 
ATOM     20  H   NG6 d 399      12.430  -6.821  31.885  0.00  0.00     0.090 H 
ATOM     21  H   NG6 d 399      12.049  -5.307  28.709  0.00  0.00     0.210 HD
ATOM     22  H   NG6 d 399      13.723 -10.241  30.150  0.00  0.00     0.212 HD
ATOM     23  H   NG6 d 399      12.854  -4.703  30.803  0.00  0.00     0.091 H 
ATOM     24  H   NG6 d 399      14.762  -5.769  31.700  0.00  0.00     0.091 H 
ATOM     25  H   NG6 d 399      10.773  -6.461  29.390  0.00  0.00     0.080 H 
ATOM     26  H   NG6 d 399      10.496  -5.667  30.921  0.00  0.00     0.080 H 
ATOM     27  H   NG6 d 399      15.182  -7.275  29.147  0.00  0.00     0.084 H 
ATOM     28  H   NG6 d 399      17.219  -7.390  30.340  0.00  0.00     0.163 HD
ATOM     29  H   NG6 d 399      14.322  -8.037  32.095  0.00  0.00     0.040 H 
ATOM     30  H   NG6 d 399      15.060  -7.754  33.654  0.00  0.00     0.040 H 
ATOM     31  H   NG6 d 399      15.017  -9.369  32.987  0.00  0.00     0.040 H 
ATOM     32  H   NG6 d 399      14.084  -8.455  31.656  0.00  0.00     0.132 H 
ATOM     33  C5  GCD d 400      15.182  -1.497  30.610  0.00  0.00     0.147 C 
ATOM     34  C2  GCD d 400      17.163  -3.378  30.369  0.00  0.00     0.111 C 
ATOM     35  O6A GCD d 400      12.991  -0.791  30.087  0.00  0.00    -0.642 OA
ATOM     36  C3  GCD d 400      17.552  -2.152  31.185  0.00  0.00     0.084 C 
ATOM     37  O5  GCD d 400      14.779  -2.804  30.556  0.00  0.00    -0.311 OA
ATOM     38  O3  GCD d 400      18.808  -1.643  30.723  0.00  0.00    -0.389 OA
ATOM     39  O6B GCD d 400      14.513   0.772  30.406  0.00  0.00    -0.642 OA
ATOM     40  O2  GCD d 400      18.079  -4.439  30.618  0.00  0.00    -0.388 OA
ATOM     41  C4  GCD d 400      16.475  -1.110  30.936  0.00  0.00    -0.034 C 
ATOM     42  C1  GCD d 400      15.768  -3.824  30.769  0.00  0.00     0.165 C 
ATOM     43  C6  GCD d 400      14.152  -0.420  30.335  0.00  0.00     0.233 C 
ATOM     44  H   GCD d 400      17.184  -3.129  29.329  0.00  0.00     0.095 H 
ATOM     45  H   GCD d 400      17.640  -2.392  32.224  0.00  0.00     0.093 H 
ATOM     46  H   GCD d 400      18.741  -1.421  29.782  0.00  0.00     0.210 HD
ATOM     47  H   GCD d 400      18.060  -4.666  31.561  0.00  0.00     0.210 HD
ATOM     48  H   GCD d 400      16.707  -0.107  31.011  0.00  0.00     0.085 H 
ATOM     49  H   GCD d 400      15.781  -4.068  31.810  0.00  0.00     0.134 H 
ENDROOT
TORSDOF 12
ENDMDL
MODEL 37
REMARK VINA RESULT:      -3.0      3.565      6.203
REMARK  0 active torsions:
REMARK  status: ('A' for Active; 'I' for Inactive)
REMARK       I    between atoms: C5_1  and  C6_18 
REMARK       I    between atoms: C5_2  and  C6_30 
REMARK       I    between atoms: O4_3  and  C4_14 
REMARK       I    between atoms: C2_4  and  O2_23 
REMARK       I    between atoms: C7_5  and  C8_27 
REMARK       I    between atoms: C7_5  and  N_24 
REMARK       I    between atoms: S_9  and  O6_13 
REMARK       I    between atoms: O1_12  and  C1_29 
REMARK       I    between atoms: O6_13  and  C6_18 
REMARK       I    between atoms: C3_15  and  O3_28 
REMARK       I    between atoms: C3_16  and  O3_20 
REMARK       I    between atoms: C2_19  and  N_24 
REMARK       I    between atoms: C1_26  and  O3_28 
ROOT
ATOM      1  C5  NG6 d 399      12.567  -3.414  27.813  0.00  0.00     0.090 C 
ATOM      2  O4  NG6 d 399      11.843  -3.101  30.092  0.00  0.00    -0.390 OA
ATOM      3  C7  NG6 d 399      15.130  -7.075  28.552  0.00  0.00     0.214 C 
ATOM      4  O3S NG6 d 399      13.885   0.387  25.706  0.00  0.00    -0.572 OA
ATOM      5  O7  NG6 d 399      15.686  -8.172  28.560  0.00  0.00    -0.274 OA
ATOM      6  O1S NG6 d 399      12.133   0.579  27.404  0.00  0.00    -0.572 OA
ATOM      7  S   NG6 d 399      12.536  -0.107  26.128  0.00  0.00     0.251 S 
ATOM      8  O5  NG6 d 399      13.905  -3.092  28.175  0.00  0.00    -0.349 OA
ATOM      9  O1  NG6 d 399      16.006  -3.848  28.743  0.00  0.00    -0.369 OA
ATOM     10  O6  NG6 d 399      12.601  -1.524  26.336  0.00  0.00    -0.254 OA
ATOM     11  C4  NG6 d 399      11.863  -4.037  29.007  0.00  0.00     0.089 C 
ATOM     12  C3  NG6 d 399      12.588  -5.316  29.430  0.00  0.00     0.093 C 
ATOM     13  C6  NG6 d 399      11.897  -2.111  27.424  0.00  0.00     0.067 C 
ATOM     14  C2  NG6 d 399      14.103  -5.099  29.575  0.00  0.00     0.087 C 
ATOM     15  O2S NG6 d 399      11.514   0.207  25.063  0.00  0.00    -0.572 OA
ATOM     16  N   NG6 d 399      14.778  -6.411  29.650  0.00  0.00    -0.349 N 
ATOM     17  C8  NG6 d 399      14.786  -6.368  27.229  0.00  0.00    -0.003 C 
ATOM     18  O3  NG6 d 399      12.084  -5.722  30.698  0.00  0.00    -0.348 OA
ATOM     19  C1  NG6 d 399      14.679  -4.276  28.409  0.00  0.00     0.151 C 
ATOM     20  H   NG6 d 399      12.530  -4.112  27.004  0.00  0.00     0.090 H 
ATOM     21  H   NG6 d 399      11.382  -2.294  29.815  0.00  0.00     0.210 HD
ATOM     22  H   NG6 d 399      16.372  -3.329  28.010  0.00  0.00     0.212 HD
ATOM     23  H   NG6 d 399      10.857  -4.285  28.738  0.00  0.00     0.091 H 
ATOM     24  H   NG6 d 399      12.420  -6.055  28.675  0.00  0.00     0.091 H 
ATOM     25  H   NG6 d 399      11.906  -1.441  28.258  0.00  0.00     0.080 H 
ATOM     26  H   NG6 d 399      10.885  -2.302  27.133  0.00  0.00     0.080 H 
ATOM     27  H   NG6 d 399      14.277  -4.544  30.474  0.00  0.00     0.084 H 
ATOM     28  H   NG6 d 399      14.971  -6.803  30.532  0.00  0.00     0.163 HD
ATOM     29  H   NG6 d 399      14.311  -5.433  27.437  0.00  0.00     0.040 H 
ATOM     30  H   NG6 d 399      14.125  -6.985  26.656  0.00  0.00     0.040 H 
ATOM     31  H   NG6 d 399      15.684  -6.197  26.673  0.00  0.00     0.040 H 
ATOM     32  H   NG6 d 399      14.666  -4.896  27.538  0.00  0.00     0.132 H 
ATOM     33  C5  GCD d 400       8.754  -6.705  31.073  0.00  0.00     0.147 C 
ATOM     34  C2  GCD d 400      11.237  -7.680  31.710  0.00  0.00     0.111 C 
ATOM     35  O6A GCD d 400       7.376  -4.853  30.580  0.00  0.00    -0.642 OA
ATOM     36  C3  GCD d 400      10.143  -8.738  31.633  0.00  0.00     0.084 C 
ATOM     37  O5  GCD d 400       9.824  -6.065  30.509  0.00  0.00    -0.311 OA
ATOM     38  O3  GCD d 400      10.182  -9.559  32.805  0.00  0.00    -0.389 OA
ATOM     39  O6B GCD d 400       6.440  -6.576  31.587  0.00  0.00    -0.642 OA
ATOM     40  O2  GCD d 400      12.517  -8.300  31.657  0.00  0.00    -0.388 OA
ATOM     41  C4  GCD d 400       8.822  -7.990  31.597  0.00  0.00    -0.034 C 
ATOM     42  C1  GCD d 400      11.098  -6.730  30.535  0.00  0.00     0.165 C 
ATOM     43  C6  GCD d 400       7.421  -5.985  31.093  0.00  0.00     0.233 C 
ATOM     44  H   GCD d 400      11.142  -7.143  32.630  0.00  0.00     0.095 H 
ATOM     45  H   GCD d 400      10.270  -9.362  30.773  0.00  0.00     0.093 H 
ATOM     46  H   GCD d 400      10.068  -9.005  33.593  0.00  0.00     0.210 HD
ATOM     47  H   GCD d 400      12.606  -8.787  30.823  0.00  0.00     0.210 HD
ATOM     48  H   GCD d 400       7.969  -8.439  31.964  0.00  0.00     0.085 H 
ATOM     49  H   GCD d 400      11.201  -7.296  29.633  0.00  0.00     0.134 H 
ENDROOT
TORSDOF 12
ENDMDL
MODEL 38
REMARK VINA RESULT:      -2.7      2.816      7.601
REMARK  0 active torsions:
REMARK  status: ('A' for Active; 'I' for Inactive)
REMARK       I    between atoms: C5_1  and  C6_18 
REMARK       I    between atoms: C5_2  and  C6_30 
REMARK       I    between atoms: O4_3  and  C4_14 
REMARK       I    between atoms: C2_4  and  O2_23 
REMARK       I    between atoms: C7_5  and  C8_27 
REMARK       I    between atoms: C7_5  and  N_24 
REMARK       I    between atoms: S_9  and  O6_13 
REMARK       I    between atoms: O1_12  and  C1_29 
REMARK       I    between atoms: O6_13  and  C6_18 
REMARK       I    between atoms: C3_15  and  O3_28 
REMARK       I    between atoms: C3_16  and  O3_20 
REMARK       I    between atoms: C2_19  and  N_24 
REMARK       I    between atoms: C1_26  and  O3_28 
ROOT
ATOM      1  C5  NG6 d 399      13.942  -1.994  28.482  0.00  0.00     0.090 C 
ATOM      2  O4  NG6 d 399      12.812  -3.837  29.551  0.00  0.00    -0.390 OA
ATOM      3  C7  NG6 d 399      16.608  -0.890  31.974  0.00  0.00     0.214 C 
ATOM      4  O3S NG6 d 399      11.217   0.836  26.206  0.00  0.00    -0.572 OA
ATOM      5  O7  NG6 d 399      17.523  -0.609  32.748  0.00  0.00    -0.274 OA
ATOM      6  O1S NG6 d 399      10.568  -1.521  26.318  0.00  0.00    -0.572 OA
ATOM      7  S   NG6 d 399      11.662  -0.566  25.927  0.00  0.00     0.251 S 
ATOM      8  O5  NG6 d 399      13.330  -1.075  29.381  0.00  0.00    -0.349 OA
ATOM      9  O1  NG6 d 399      13.508   0.182  31.303  0.00  0.00    -0.369 OA
ATOM     10  O6  NG6 d 399      12.845  -0.842  26.688  0.00  0.00    -0.254 OA
ATOM     11  C4  NG6 d 399      14.102  -3.338  29.175  0.00  0.00     0.089 C 
ATOM     12  C3  NG6 d 399      14.987  -3.184  30.413  0.00  0.00     0.093 C 
ATOM     13  C6  NG6 d 399      13.015  -2.119  27.290  0.00  0.00     0.067 C 
ATOM     14  C2  NG6 d 399      14.536  -2.013  31.302  0.00  0.00     0.087 C 
ATOM     15  O2S NG6 d 399      11.950  -0.734  24.455  0.00  0.00    -0.572 OA
ATOM     16  N   NG6 d 399      15.601  -1.706  32.278  0.00  0.00    -0.349 N 
ATOM     17  C8  NG6 d 399      16.563  -0.306  30.552  0.00  0.00    -0.003 C 
ATOM     18  O3  NG6 d 399      14.894  -4.376  31.185  0.00  0.00    -0.348 OA
ATOM     19  C1  NG6 d 399      14.202  -0.760  30.474  0.00  0.00     0.151 C 
ATOM     20  H   NG6 d 399      14.911  -1.663  28.173  0.00  0.00     0.090 H 
ATOM     21  H   NG6 d 399      12.258  -3.931  28.760  0.00  0.00     0.210 HD
ATOM     22  H   NG6 d 399      13.296   0.973  30.785  0.00  0.00     0.212 HD
ATOM     23  H   NG6 d 399      14.565  -4.031  28.504  0.00  0.00     0.091 H 
ATOM     24  H   NG6 d 399      15.987  -2.996  30.082  0.00  0.00     0.091 H 
ATOM     25  H   NG6 d 399      12.065  -2.491  27.614  0.00  0.00     0.080 H 
ATOM     26  H   NG6 d 399      13.438  -2.797  26.578  0.00  0.00     0.080 H 
ATOM     27  H   NG6 d 399      13.643  -2.306  31.814  0.00  0.00     0.084 H 
ATOM     28  H   NG6 d 399      15.566  -2.113  33.174  0.00  0.00     0.163 HD
ATOM     29  H   NG6 d 399      15.694  -0.670  30.044  0.00  0.00     0.040 H 
ATOM     30  H   NG6 d 399      17.440  -0.602  30.016  0.00  0.00     0.040 H 
ATOM     31  H   NG6 d 399      16.522   0.762  30.607  0.00  0.00     0.040 H 
ATOM     32  H   NG6 d 399      15.123  -0.363  30.103  0.00  0.00     0.132 H 
ATOM     33  C5  GCD d 400      16.053  -7.421  29.928  0.00  0.00     0.147 C 
ATOM     34  C2  GCD d 400      16.350  -5.928  32.209  0.00  0.00     0.111 C 
ATOM     35  O6A GCD d 400      14.764  -7.976  28.030  0.00  0.00    -0.642 OA
ATOM     36  C3  GCD d 400      17.476  -6.922  31.953  0.00  0.00     0.084 C 
ATOM     37  O5  GCD d 400      15.572  -6.141  29.886  0.00  0.00    -0.311 OA
ATOM     38  O3  GCD d 400      17.728  -7.683  33.139  0.00  0.00    -0.389 OA
ATOM     39  O6B GCD d 400      16.023  -9.562  28.903  0.00  0.00    -0.642 OA
ATOM     40  O2  GCD d 400      16.766  -4.956  33.162  0.00  0.00    -0.388 OA
ATOM     41  C4  GCD d 400      16.987  -7.855  30.860  0.00  0.00    -0.034 C 
ATOM     42  C1  GCD d 400      15.997  -5.227  30.910  0.00  0.00     0.165 C 
ATOM     43  C6  GCD d 400      15.567  -8.401  28.880  0.00  0.00     0.233 C 
ATOM     44  H   GCD d 400      15.498  -6.452  32.587  0.00  0.00     0.095 H 
ATOM     45  H   GCD d 400      18.378  -6.419  31.671  0.00  0.00     0.093 H 
ATOM     46  H   GCD d 400      16.917  -8.144  33.405  0.00  0.00     0.210 HD
ATOM     47  H   GCD d 400      17.539  -4.479  32.821  0.00  0.00     0.210 HD
ATOM     48  H   GCD d 400      17.350  -8.820  30.810  0.00  0.00     0.085 H 
ATOM     49  H   GCD d 400      16.866  -4.710  30.561  0.00  0.00     0.134 H 
ENDROOT
TORSDOF 12
ENDMDL
MODEL 39
REMARK VINA RESULT:      -2.7      3.323      4.579
REMARK  0 active torsions:
REMARK  status: ('A' for Active; 'I' for Inactive)
REMARK       I    between atoms: C5_1  and  C6_18 
REMARK       I    between atoms: C5_2  and  C6_30 
REMARK       I    between atoms: O4_3  and  C4_14 
REMARK       I    between atoms: C2_4  and  O2_23 
REMARK       I    between atoms: C7_5  and  C8_27 
REMARK       I    between atoms: C7_5  and  N_24 
REMARK       I    between atoms: S_9  and  O6_13 
REMARK       I    between atoms: O1_12  and  C1_29 
REMARK       I    between atoms: O6_13  and  C6_18 
REMARK       I    between atoms: C3_15  and  O3_28 
REMARK       I    between atoms: C3_16  and  O3_20 
REMARK       I    between atoms: C2_19  and  N_24 
REMARK       I    between atoms: C1_26  and  O3_28 
ROOT
ATOM      1  C5  NG6 d 399      14.307  -6.785  29.004  0.00  0.00     0.090 C 
ATOM      2  O4  NG6 d 399      14.358  -4.628  30.081  0.00  0.00    -0.390 OA
ATOM      3  C7  NG6 d 399       9.889  -7.589  29.601  0.00  0.00     0.214 C 
ATOM      4  O3S NG6 d 399      17.706  -9.562  30.167  0.00  0.00    -0.572 OA
ATOM      5  O7  NG6 d 399       8.691  -7.850  29.506  0.00  0.00    -0.274 OA
ATOM      6  O1S NG6 d 399      18.160  -7.157  30.153  0.00  0.00    -0.572 OA
ATOM      7  S   NG6 d 399      17.670  -8.319  29.333  0.00  0.00     0.251 S 
ATOM      8  O5  NG6 d 399      14.020  -7.418  30.246  0.00  0.00    -0.349 OA
ATOM      9  O1  NG6 d 399      12.431  -8.301  31.661  0.00  0.00    -0.369 OA
ATOM     10  O6  NG6 d 399      16.323  -8.081  28.906  0.00  0.00    -0.254 OA
ATOM     11  C4  NG6 d 399      13.745  -5.373  29.021  0.00  0.00     0.089 C 
ATOM     12  C3  NG6 d 399      12.229  -5.418  29.220  0.00  0.00     0.093 C 
ATOM     13  C6  NG6 d 399      15.817  -6.752  28.872  0.00  0.00     0.067 C 
ATOM     14  C2  NG6 d 399      11.829  -6.321  30.399  0.00  0.00     0.087 C 
ATOM     15  O2S NG6 d 399      18.568  -8.477  28.130  0.00  0.00    -0.572 OA
ATOM     16  N   NG6 d 399      10.378  -6.592  30.334  0.00  0.00    -0.349 N 
ATOM     17  C8  NG6 d 399      10.945  -8.419  28.849  0.00  0.00    -0.003 C 
ATOM     18  O3  NG6 d 399      11.772  -4.101  29.507  0.00  0.00    -0.348 OA
ATOM     19  C1  NG6 d 399      12.613  -7.645  30.400  0.00  0.00     0.151 C 
ATOM     20  H   NG6 d 399      13.869  -7.307  28.180  0.00  0.00     0.090 H 
ATOM     21  H   NG6 d 399      15.319  -4.605  29.946  0.00  0.00     0.210 HD
ATOM     22  H   NG6 d 399      12.924  -9.136  31.665  0.00  0.00     0.212 HD
ATOM     23  H   NG6 d 399      13.955  -4.895  28.087  0.00  0.00     0.091 H 
ATOM     24  H   NG6 d 399      11.791  -5.811  28.326  0.00  0.00     0.091 H 
ATOM     25  H   NG6 d 399      16.235  -6.191  29.682  0.00  0.00     0.080 H 
ATOM     26  H   NG6 d 399      16.085  -6.291  27.944  0.00  0.00     0.080 H 
ATOM     27  H   NG6 d 399      12.067  -5.809  31.308  0.00  0.00     0.084 H 
ATOM     28  H   NG6 d 399       9.759  -6.022  30.845  0.00  0.00     0.163 HD
ATOM     29  H   NG6 d 399      11.920  -8.033  29.062  0.00  0.00     0.040 H 
ATOM     30  H   NG6 d 399      10.761  -8.361  27.796  0.00  0.00     0.040 H 
ATOM     31  H   NG6 d 399      10.888  -9.439  29.165  0.00  0.00     0.040 H 
ATOM     32  H   NG6 d 399      12.249  -8.236  29.585  0.00  0.00     0.132 H 
ATOM     33  C5  GCD d 400      12.043  -1.553  27.135  0.00  0.00     0.147 C 
ATOM     34  C2  GCD d 400      10.099  -2.616  28.752  0.00  0.00     0.111 C 
ATOM     35  O6A GCD d 400      14.334  -1.183  26.705  0.00  0.00    -0.642 OA
ATOM     36  C3  GCD d 400       9.569  -1.864  27.537  0.00  0.00     0.084 C 
ATOM     37  O5  GCD d 400      12.345  -2.733  27.758  0.00  0.00    -0.311 OA
ATOM     38  O3  GCD d 400       8.557  -0.938  27.945  0.00  0.00    -0.389 OA
ATOM     39  O6B GCD d 400      12.907   0.337  25.988  0.00  0.00    -0.642 OA
ATOM     40  O2  GCD d 400       9.075  -3.440  29.298  0.00  0.00    -0.388 OA
ATOM     41  C4  GCD d 400      10.744  -1.092  26.962  0.00  0.00    -0.034 C 
ATOM     42  C1  GCD d 400      11.266  -3.490  28.330  0.00  0.00     0.165 C 
ATOM     43  C6  GCD d 400      13.184  -0.728  26.575  0.00  0.00     0.233 C 
ATOM     44  H   GCD d 400      10.417  -1.910  29.490  0.00  0.00     0.095 H 
ATOM     45  H   GCD d 400       9.148  -2.538  26.820  0.00  0.00     0.093 H 
ATOM     46  H   GCD d 400       8.926  -0.321  28.595  0.00  0.00     0.210 HD
ATOM     47  H   GCD d 400       8.786  -4.081  28.630  0.00  0.00     0.210 HD
ATOM     48  H   GCD d 400      10.575  -0.218  26.439  0.00  0.00     0.085 H 
ATOM     49  H   GCD d 400      10.915  -4.185  27.597  0.00  0.00     0.134 H 
ENDROOT
TORSDOF 12
ENDMDL
MODEL 40
REMARK VINA RESULT:      -2.6      2.867      7.822
REMARK  0 active torsions:
REMARK  status: ('A' for Active; 'I' for Inactive)
REMARK       I    between atoms: C5_1  and  C6_18 
REMARK       I    between atoms: C5_2  and  C6_30 
REMARK       I    between atoms: O4_3  and  C4_14 
REMARK       I    between atoms: C2_4  and  O2_23 
REMARK       I    between atoms: C7_5  and  C8_27 
REMARK       I    between atoms: C7_5  and  N_24 
REMARK       I    between atoms: S_9  and  O6_13 
REMARK       I    between atoms: O1_12  and  C1_29 
REMARK       I    between atoms: O6_13  and  C6_18 
REMARK       I    between atoms: C3_15  and  O3_28 
REMARK       I    between atoms: C3_16  and  O3_20 
REMARK       I    between atoms: C2_19  and  N_24 
REMARK       I    between atoms: C1_26  and  O3_28 
ROOT
ATOM      1  C5  NG6 d 399      13.055  -3.245  27.324  0.00  0.00     0.090 C 
ATOM      2  O4  NG6 d 399      12.598  -5.456  28.171  0.00  0.00    -0.390 OA
ATOM      3  C7  NG6 d 399      14.843  -1.562  31.131  0.00  0.00     0.214 C 
ATOM      4  O3S NG6 d 399       9.671  -1.400  24.922  0.00  0.00    -0.572 OA
ATOM      5  O7  NG6 d 399      15.526  -1.037  32.010  0.00  0.00    -0.274 OA
ATOM      6  O1S NG6 d 399       9.925  -3.833  24.843  0.00  0.00    -0.572 OA
ATOM      7  S   NG6 d 399      10.620  -2.518  24.619  0.00  0.00     0.251 S 
ATOM      8  O5  NG6 d 399      12.079  -2.689  28.199  0.00  0.00    -0.349 OA
ATOM      9  O1  NG6 d 399      11.629  -1.624  30.192  0.00  0.00    -0.369 OA
ATOM     10  O6  NG6 d 399      11.757  -2.414  25.486  0.00  0.00    -0.254 OA
ATOM     11  C4  NG6 d 399      13.640  -4.495  27.960  0.00  0.00     0.089 C 
ATOM     12  C3  NG6 d 399      14.306  -4.141  29.291  0.00  0.00     0.093 C 
ATOM     13  C6  NG6 d 399      12.336  -3.592  26.035  0.00  0.00     0.067 C 
ATOM     14  C2  NG6 d 399      13.388  -3.293  30.186  0.00  0.00     0.087 C 
ATOM     15  O2S NG6 d 399      11.065  -2.443  23.179  0.00  0.00    -0.572 OA
ATOM     16  N   NG6 d 399      14.185  -2.708  31.284  0.00  0.00    -0.349 N 
ATOM     17  C8  NG6 d 399      14.699  -0.912  29.743  0.00  0.00    -0.003 C 
ATOM     18  O3  NG6 d 399      14.595  -5.349  29.985  0.00  0.00    -0.348 OA
ATOM     19  C1  NG6 d 399      12.684  -2.177  29.394  0.00  0.00     0.151 C 
ATOM     20  H   NG6 d 399      13.856  -2.561  27.136  0.00  0.00     0.090 H 
ATOM     21  H   NG6 d 399      12.182  -5.674  27.322  0.00  0.00     0.210 HD
ATOM     22  H   NG6 d 399      11.183  -0.921  29.695  0.00  0.00     0.212 HD
ATOM     23  H   NG6 d 399      14.378  -4.914  27.306  0.00  0.00     0.091 H 
ATOM     24  H   NG6 d 399      15.190  -3.577  29.077  0.00  0.00     0.091 H 
ATOM     25  H   NG6 d 399      11.565  -4.307  26.237  0.00  0.00     0.080 H 
ATOM     26  H   NG6 d 399      13.033  -4.007  25.338  0.00  0.00     0.080 H 
ATOM     27  H   NG6 d 399      12.627  -3.931  30.585  0.00  0.00     0.084 H 
ATOM     28  H   NG6 d 399      14.230  -3.177  32.148  0.00  0.00     0.163 HD
ATOM     29  H   NG6 d 399      14.068  -1.519  29.129  0.00  0.00     0.040 H 
ATOM     30  H   NG6 d 399      15.664  -0.825  29.288  0.00  0.00     0.040 H 
ATOM     31  H   NG6 d 399      14.265   0.061  29.849  0.00  0.00     0.040 H 
ATOM     32  H   NG6 d 399      13.421  -1.445  29.142  0.00  0.00     0.132 H 
ATOM     33  C5  GCD d 400      16.887  -7.650  28.702  0.00  0.00     0.147 C 
ATOM     34  C2  GCD d 400      16.433  -6.354  31.076  0.00  0.00     0.111 C 
ATOM     35  O6A GCD d 400      16.047  -8.466  26.653  0.00  0.00    -0.642 OA
ATOM     36  C3  GCD d 400      17.862  -6.849  30.889  0.00  0.00     0.084 C 
ATOM     37  O5  GCD d 400      15.975  -6.631  28.676  0.00  0.00    -0.311 OA
ATOM     38  O3  GCD d 400      18.280  -7.568  32.054  0.00  0.00    -0.389 OA
ATOM     39  O6B GCD d 400      17.726  -9.562  27.571  0.00  0.00    -0.642 OA
ATOM     40  O2  GCD d 400      16.387  -5.384  32.117  0.00  0.00    -0.388 OA
ATOM     41  C4  GCD d 400      17.838  -7.798  29.705  0.00  0.00    -0.034 C 
ATOM     42  C1  GCD d 400      15.952  -5.717  29.785  0.00  0.00     0.165 C 
ATOM     43  C6  GCD d 400      16.880  -8.645  27.560  0.00  0.00     0.233 C 
ATOM     44  H   GCD d 400      15.806  -7.181  31.334  0.00  0.00     0.095 H 
ATOM     45  H   GCD d 400      18.536  -6.033  30.731  0.00  0.00     0.093 H 
ATOM     46  H   GCD d 400      17.677  -8.312  32.210  0.00  0.00     0.210 HD
ATOM     47  H   GCD d 400      16.955  -4.633  31.885  0.00  0.00     0.210 HD
ATOM     48  H   GCD d 400      18.532  -8.559  29.643  0.00  0.00     0.085 H 
ATOM     49  H   GCD d 400      16.596  -4.894  29.557  0.00  0.00     0.134 H 
ENDROOT
TORSDOF 12
ENDMDL
MODEL 41
REMARK VINA RESULT:      -2.2      3.295      8.587
REMARK  0 active torsions:
REMARK  status: ('A' for Active; 'I' for Inactive)
REMARK       I    between atoms: C5_1  and  C6_18 
REMARK       I    between atoms: C5_2  and  C6_30 
REMARK       I    between atoms: O4_3  and  C4_14 
REMARK       I    between atoms: C2_4  and  O2_23 
REMARK       I    between atoms: C7_5  and  C8_27 
REMARK       I    between atoms: C7_5  and  N_24 
REMARK       I    between atoms: S_9  and  O6_13 
REMARK       I    between atoms: O1_12  and  C1_29 
REMARK       I    between atoms: O6_13  and  C6_18 
REMARK       I    between atoms: C3_15  and  O3_28 
REMARK       I    between atoms: C3_16  and  O3_20 
REMARK       I    between atoms: C2_19  and  N_24 
REMARK       I    between atoms: C1_26  and  O3_28 
ROOT
ATOM      1  C5  NG6 d 399      14.380  -3.102  29.334  0.00  0.00     0.090 C 
ATOM      2  O4  NG6 d 399      13.579  -4.531  31.103  0.00  0.00    -0.390 OA
ATOM      3  C7  NG6 d 399      16.908  -0.384  31.931  0.00  0.00     0.214 C 
ATOM      4  O3S NG6 d 399      11.195  -1.770  26.385  0.00  0.00    -0.572 OA
ATOM      5  O7  NG6 d 399      17.782   0.296  32.466  0.00  0.00    -0.274 OA
ATOM      6  O1S NG6 d 399      10.930  -3.969  27.425  0.00  0.00    -0.572 OA
ATOM      7  S   NG6 d 399      11.851  -3.095  26.618  0.00  0.00     0.251 S 
ATOM      8  O5  NG6 d 399      13.649  -2.003  29.866  0.00  0.00    -0.349 OA
ATOM      9  O1  NG6 d 399      13.664  -0.093  31.154  0.00  0.00    -0.369 OA
ATOM     10  O6  NG6 d 399      13.078  -2.891  27.331  0.00  0.00    -0.254 OA
ATOM     11  C4  NG6 d 399      14.765  -4.041  30.466  0.00  0.00     0.089 C 
ATOM     12  C3  NG6 d 399      15.640  -3.302  31.481  0.00  0.00     0.093 C 
ATOM     13  C6  NG6 d 399      13.460  -3.803  28.353  0.00  0.00     0.067 C 
ATOM     14  C2  NG6 d 399      15.027  -1.955  31.897  0.00  0.00     0.087 C 
ATOM     15  O2S NG6 d 399      12.131  -3.773  25.300  0.00  0.00    -0.572 OA
ATOM     16  N   NG6 d 399      16.050  -1.152  32.598  0.00  0.00    -0.349 N 
ATOM     17  C8  NG6 d 399      16.741  -0.403  30.401  0.00  0.00    -0.003 C 
ATOM     18  O3  NG6 d 399      15.752  -4.108  32.648  0.00  0.00    -0.348 OA
ATOM     19  C1  NG6 d 399      14.481  -1.175  30.688  0.00  0.00     0.151 C 
ATOM     20  H   NG6 d 399      15.278  -2.784  28.846  0.00  0.00     0.090 H 
ATOM     21  H   NG6 d 399      13.031  -4.997  30.452  0.00  0.00     0.210 HD
ATOM     22  H   NG6 d 399      13.318   0.401  30.395  0.00  0.00     0.212 HD
ATOM     23  H   NG6 d 399      15.319  -4.867  30.070  0.00  0.00     0.091 H 
ATOM     24  H   NG6 d 399      16.590  -3.119  31.024  0.00  0.00     0.091 H 
ATOM     25  H   NG6 d 399      12.588  -4.150  28.868  0.00  0.00     0.080 H 
ATOM     26  H   NG6 d 399      13.971  -4.636  27.917  0.00  0.00     0.080 H 
ATOM     27  H   NG6 d 399      14.202  -2.150  32.550  0.00  0.00     0.084 H 
ATOM     28  H   NG6 d 399      16.097  -1.185  33.580  0.00  0.00     0.163 HD
ATOM     29  H   NG6 d 399      15.932  -1.051  30.139  0.00  0.00     0.040 H 
ATOM     30  H   NG6 d 399      17.643  -0.758  29.948  0.00  0.00     0.040 H 
ATOM     31  H   NG6 d 399      16.533   0.588  30.054  0.00  0.00     0.040 H 
ATOM     32  H   NG6 d 399      15.320  -0.827  30.122  0.00  0.00     0.132 H 
ATOM     33  C5  GCD d 400      17.354  -7.209  32.540  0.00  0.00     0.147 C 
ATOM     34  C2  GCD d 400      17.457  -4.929  34.061  0.00  0.00     0.111 C 
ATOM     35  O6A GCD d 400      16.132  -8.623  31.099  0.00  0.00    -0.642 OA
ATOM     36  C3  GCD d 400      18.721  -5.779  34.109  0.00  0.00     0.084 C 
ATOM     37  O5  GCD d 400      16.676  -6.123  32.059  0.00  0.00    -0.311 OA
ATOM     38  O3  GCD d 400      19.114  -5.983  35.470  0.00  0.00    -0.389 OA
ATOM     39  O6B GCD d 400      17.643  -9.562  32.402  0.00  0.00    -0.642 OA
ATOM     40  O2  GCD d 400      17.733  -3.619  34.544  0.00  0.00    -0.388 OA
ATOM     41  C4  GCD d 400      18.364  -7.118  33.491  0.00  0.00    -0.034 C 
ATOM     42  C1  GCD d 400      16.971  -4.837  32.627  0.00  0.00     0.165 C 
ATOM     43  C6  GCD d 400      17.009  -8.574  31.980  0.00  0.00     0.233 C 
ATOM     44  H   GCD d 400      16.707  -5.381  34.675  0.00  0.00     0.095 H 
ATOM     45  H   GCD d 400      19.526  -5.303  33.588  0.00  0.00     0.093 H 
ATOM     46  H   GCD d 400      18.393  -6.415  35.954  0.00  0.00     0.210 HD
ATOM     47  H   GCD d 400      18.413  -3.207  33.988  0.00  0.00     0.210 HD
ATOM     48  H   GCD d 400      18.874  -7.968  33.778  0.00  0.00     0.085 H 
ATOM     49  H   GCD d 400      17.740  -4.378  32.042  0.00  0.00     0.134 H 
ENDROOT
TORSDOF 12
ENDMDL
MODEL 42
REMARK VINA RESULT:      -0.8      4.098      6.235
REMARK  0 active torsions:
REMARK  status: ('A' for Active; 'I' for Inactive)
REMARK       I    between atoms: C5_1  and  C6_18 
REMARK       I    between atoms: C5_2  and  C6_30 
REMARK       I    between atoms: O4_3  and  C4_14 
REMARK       I    between atoms: C2_4  and  O2_23 
REMARK       I    between atoms: C7_5  and  C8_27 
REMARK       I    between atoms: C7_5  and  N_24 
REMARK       I    between atoms: S_9  and  O6_13 
REMARK       I    between atoms: O1_12  and  C1_29 
REMARK       I    between atoms: O6_13  and  C6_18 
REMARK       I    between atoms: C3_15  and  O3_28 
REMARK       I    between atoms: C3_16  and  O3_20 
REMARK       I    between atoms: C2_19  and  N_24 
REMARK       I    between atoms: C1_26  and  O3_28 
ROOT
ATOM      1  C5  NG6 d 399      10.746  -0.823  28.828  0.00  0.00     0.090 C 
ATOM      2  O4  NG6 d 399      11.322  -2.252  30.682  0.00  0.00    -0.390 OA
ATOM      3  C7  NG6 d 399      11.971  -3.681  25.534  0.00  0.00     0.214 C 
ATOM      4  O3S NG6 d 399      12.107   3.488  29.264  0.00  0.00    -0.572 OA
ATOM      5  O7  NG6 d 399      12.064  -4.413  24.549  0.00  0.00    -0.274 OA
ATOM      6  O1S NG6 d 399      11.529   2.267  31.305  0.00  0.00    -0.572 OA
ATOM      7  S   NG6 d 399      11.035   2.702  29.953  0.00  0.00     0.251 S 
ATOM      8  O5  NG6 d 399      12.119  -0.704  28.470  0.00  0.00    -0.349 OA
ATOM      9  O1  NG6 d 399      13.852  -1.418  27.131  0.00  0.00    -0.369 OA
ATOM     10  O6  NG6 d 399      10.713   1.553  29.159  0.00  0.00    -0.254 OA
ATOM     11  C4  NG6 d 399      10.519  -2.168  29.498  0.00  0.00     0.089 C 
ATOM     12  C3  NG6 d 399      10.885  -3.298  28.534  0.00  0.00     0.093 C 
ATOM     13  C6  NG6 d 399      10.449   0.308  29.794  0.00  0.00     0.067 C 
ATOM     14  C2  NG6 d 399      12.266  -3.085  27.893  0.00  0.00     0.087 C 
ATOM     15  O2S NG6 d 399       9.805   3.557  30.138  0.00  0.00    -0.572 OA
ATOM     16  N   NG6 d 399      12.416  -4.004  26.746  0.00  0.00    -0.349 N 
ATOM     17  C8  NG6 d 399      11.306  -2.297  25.435  0.00  0.00    -0.003 C 
ATOM     18  O3  NG6 d 399      10.929  -4.518  29.266  0.00  0.00    -0.348 OA
ATOM     19  C1  NG6 d 399      12.467  -1.630  27.433  0.00  0.00     0.151 C 
ATOM     20  H   NG6 d 399      10.105  -0.765  27.973  0.00  0.00     0.090 H 
ATOM     21  H   NG6 d 399      11.084  -1.532  31.287  0.00  0.00     0.210 HD
ATOM     22  H   NG6 d 399      13.982  -0.502  26.841  0.00  0.00     0.212 HD
ATOM     23  H   NG6 d 399       9.488  -2.263  29.765  0.00  0.00     0.091 H 
ATOM     24  H   NG6 d 399      10.148  -3.321  27.759  0.00  0.00     0.091 H 
ATOM     25  H   NG6 d 399      11.070   0.210  30.660  0.00  0.00     0.080 H 
ATOM     26  H   NG6 d 399       9.421   0.267  30.087  0.00  0.00     0.080 H 
ATOM     27  H   NG6 d 399      13.013  -3.293  28.630  0.00  0.00     0.084 H 
ATOM     28  H   NG6 d 399      12.856  -4.874  26.881  0.00  0.00     0.163 HD
ATOM     29  H   NG6 d 399      11.326  -1.822  26.393  0.00  0.00     0.040 H 
ATOM     30  H   NG6 d 399      10.291  -2.410  25.114  0.00  0.00     0.040 H 
ATOM     31  H   NG6 d 399      11.839  -1.696  24.728  0.00  0.00     0.040 H 
ATOM     32  H   NG6 d 399      11.842  -1.472  26.579  0.00  0.00     0.132 H 
ATOM     33  C5  GCD d 400       8.050  -5.827  30.747  0.00  0.00     0.147 C 
ATOM     34  C2  GCD d 400      10.056  -6.706  29.095  0.00  0.00     0.111 C 
ATOM     35  O6A GCD d 400       7.308  -4.307  32.393  0.00  0.00    -0.642 OA
ATOM     36  C3  GCD d 400       8.771  -7.522  29.019  0.00  0.00     0.084 C 
ATOM     37  O5  GCD d 400       8.876  -4.868  30.226  0.00  0.00    -0.311 OA
ATOM     38  O3  GCD d 400       9.077  -8.915  29.137  0.00  0.00    -0.389 OA
ATOM     39  O6B GCD d 400       6.438  -6.332  32.414  0.00  0.00    -0.642 OA
ATOM     40  O2  GCD d 400      10.873  -6.978  27.962  0.00  0.00    -0.388 OA
ATOM     41  C4  GCD d 400       7.922  -7.100  30.205  0.00  0.00    -0.034 C 
ATOM     42  C1  GCD d 400       9.710  -5.228  29.113  0.00  0.00     0.165 C 
ATOM     43  C6  GCD d 400       7.207  -5.466  31.953  0.00  0.00     0.233 C 
ATOM     44  H   GCD d 400      10.587  -6.969  29.986  0.00  0.00     0.095 H 
ATOM     45  H   GCD d 400       8.265  -7.359  28.090  0.00  0.00     0.093 H 
ATOM     46  H   GCD d 400       9.537  -9.076  29.975  0.00  0.00     0.210 HD
ATOM     47  H   GCD d 400      10.393  -6.739  27.153  0.00  0.00     0.210 HD
ATOM     48  H   GCD d 400       7.245  -7.764  30.612  0.00  0.00     0.085 H 
ATOM     49  H   GCD d 400       9.185  -4.997  28.210  0.00  0.00     0.134 H 
ENDROOT
TORSDOF 12
ENDMDL
MODEL 43
REMARK VINA RESULT:       0.0      3.287      7.626
REMARK  0 active torsions:
REMARK  status: ('A' for Active; 'I' for Inactive)
REMARK       I    between atoms: C5_1  and  C6_18 
REMARK       I    between atoms: C5_2  and  C6_30 
REMARK       I    between atoms: O4_3  and  C4_14 
REMARK       I    between atoms: C2_4  and  O2_23 
REMARK       I    between atoms: C7_5  and  C8_27 
REMARK       I    between atoms: C7_5  and  N_24 
REMARK       I    between atoms: S_9  and  O6_13 
REMARK       I    between atoms: O1_12  and  C1_29 
REMARK       I    between atoms: O6_13  and  C6_18 
REMARK       I    between atoms: C3_15  and  O3_28 
REMARK       I    between atoms: C3_16  and  O3_20 
REMARK       I    between atoms: C2_19  and  N_24 
REMARK       I    between atoms: C1_26  and  O3_28 
ROOT
ATOM      1  C5  NG6 d 399      14.592  -2.433  30.247  0.00  0.00     0.090 C 
ATOM      2  O4  NG6 d 399      16.996  -2.259  30.328  0.00  0.00    -0.390 OA
ATOM      3  C7  NG6 d 399      14.403  -6.749  28.884  0.00  0.00     0.214 C 
ATOM      4  O3S NG6 d 399      12.505   1.083  28.272  0.00  0.00    -0.572 OA
ATOM      5  O7  NG6 d 399      14.193  -7.950  28.718  0.00  0.00    -0.274 OA
ATOM      6  O1S NG6 d 399      14.594   1.528  29.467  0.00  0.00    -0.572 OA
ATOM      7  S   NG6 d 399      13.211   0.947  29.585  0.00  0.00     0.251 S 
ATOM      8  O5  NG6 d 399      14.633  -2.572  28.831  0.00  0.00    -0.349 OA
ATOM      9  O1  NG6 d 399      14.604  -3.982  27.009  0.00  0.00    -0.369 OA
ATOM     10  O6  NG6 d 399      13.294  -0.441  29.931  0.00  0.00    -0.254 OA
ATOM     11  C4  NG6 d 399      15.876  -2.992  30.840  0.00  0.00     0.089 C 
ATOM     12  C3  NG6 d 399      16.011  -4.474  30.486  0.00  0.00     0.093 C 
ATOM     13  C6  NG6 d 399      14.477  -0.949  30.535  0.00  0.00     0.067 C 
ATOM     14  C2  NG6 d 399      15.790  -4.731  28.986  0.00  0.00     0.087 C 
ATOM     15  O2S NG6 d 399      12.460   1.698  30.657  0.00  0.00    -0.572 OA
ATOM     16  N   NG6 d 399      15.600  -6.179  28.764  0.00  0.00    -0.349 N 
ATOM     17  C8  NG6 d 399      13.262  -5.788  29.260  0.00  0.00    -0.003 C 
ATOM     18  O3  NG6 d 399      17.331  -4.896  30.809  0.00  0.00    -0.348 OA
ATOM     19  C1  NG6 d 399      14.580  -3.951  28.442  0.00  0.00     0.151 C 
ATOM     20  H   NG6 d 399      13.769  -2.965  30.675  0.00  0.00     0.090 H 
ATOM     21  H   NG6 d 399      16.901  -1.322  30.557  0.00  0.00     0.210 HD
ATOM     22  H   NG6 d 399      13.843  -3.491  26.663  0.00  0.00     0.212 HD
ATOM     23  H   NG6 d 399      15.847  -2.894  31.905  0.00  0.00     0.091 H 
ATOM     24  H   NG6 d 399      15.269  -5.013  31.037  0.00  0.00     0.091 H 
ATOM     25  H   NG6 d 399      15.330  -0.440  30.135  0.00  0.00     0.080 H 
ATOM     26  H   NG6 d 399      14.434  -0.793  31.593  0.00  0.00     0.080 H 
ATOM     27  H   NG6 d 399      16.655  -4.389  28.457  0.00  0.00     0.084 H 
ATOM     28  H   NG6 d 399      16.375  -6.735  28.521  0.00  0.00     0.163 HD
ATOM     29  H   NG6 d 399      13.649  -4.796  29.358  0.00  0.00     0.040 H 
ATOM     30  H   NG6 d 399      12.829  -6.095  30.190  0.00  0.00     0.040 H 
ATOM     31  H   NG6 d 399      12.514  -5.806  28.495  0.00  0.00     0.040 H 
ATOM     32  H   NG6 d 399      13.697  -4.406  28.838  0.00  0.00     0.132 H 
ATOM     33  C5  GCD d 400      18.450  -4.910  34.117  0.00  0.00     0.147 C 
ATOM     34  C2  GCD d 400      18.377  -6.648  31.997  0.00  0.00     0.111 C 
ATOM     35  O6A GCD d 400      18.451  -2.685  34.907  0.00  0.00    -0.642 OA
ATOM     36  C3  GCD d 400      18.498  -7.318  33.360  0.00  0.00     0.084 C 
ATOM     37  O5  GCD d 400      17.685  -4.535  33.046  0.00  0.00    -0.311 OA
ATOM     38  O3  GCD d 400      19.561  -8.277  33.335  0.00  0.00    -0.389 OA
ATOM     39  O6B GCD d 400      19.531  -4.189  36.104  0.00  0.00    -0.642 OA
ATOM     40  O2  GCD d 400      17.963  -7.600  31.023  0.00  0.00    -0.388 OA
ATOM     41  C4  GCD d 400      18.846  -6.221  34.350  0.00  0.00    -0.034 C 
ATOM     42  C1  GCD d 400      17.346  -5.538  32.075  0.00  0.00     0.165 C 
ATOM     43  C6  GCD d 400      18.853  -3.844  35.115  0.00  0.00     0.233 C 
ATOM     44  H   GCD d 400      19.329  -6.247  31.718  0.00  0.00     0.095 H 
ATOM     45  H   GCD d 400      17.591  -7.820  33.626  0.00  0.00     0.093 H 
ATOM     46  H   GCD d 400      20.390  -7.835  33.095  0.00  0.00     0.210 HD
ATOM     47  H   GCD d 400      17.100  -7.964  31.274  0.00  0.00     0.210 HD
ATOM     48  H   GCD d 400      19.380  -6.451  35.203  0.00  0.00     0.085 H 
ATOM     49  H   GCD d 400      16.408  -5.971  32.352  0.00  0.00     0.134 H 
ENDROOT
TORSDOF 12
ENDMDL
MODEL 44
REMARK VINA RESULT:       0.9      2.963      5.441
REMARK  0 active torsions:
REMARK  status: ('A' for Active; 'I' for Inactive)
REMARK       I    between atoms: C5_1  and  C6_18 
REMARK       I    between atoms: C5_2  and  C6_30 
REMARK       I    between atoms: O4_3  and  C4_14 
REMARK       I    between atoms: C2_4  and  O2_23 
REMARK       I    between atoms: C7_5  and  C8_27 
REMARK       I    between atoms: C7_5  and  N_24 
REMARK       I    between atoms: S_9  and  O6_13 
REMARK       I    between atoms: O1_12  and  C1_29 
REMARK       I    between atoms: O6_13  and  C6_18 
REMARK       I    between atoms: C3_15  and  O3_28 
REMARK       I    between atoms: C3_16  and  O3_20 
REMARK       I    between atoms: C2_19  and  N_24 
REMARK       I    between atoms: C1_26  and  O3_28 
ROOT
ATOM      1  C5  NG6 d 399      14.813  -3.918  31.717  0.00  0.00     0.090 C 
ATOM      2  O4  NG6 d 399      14.702  -5.952  30.428  0.00  0.00    -0.390 OA
ATOM      3  C7  NG6 d 399      12.648  -1.270  28.748  0.00  0.00     0.214 C 
ATOM      4  O3S NG6 d 399      18.867  -3.076  33.583  0.00  0.00    -0.572 OA
ATOM      5  O7  NG6 d 399      11.911  -0.490  28.145  0.00  0.00    -0.274 OA
ATOM      6  O1S NG6 d 399      18.210  -5.417  33.303  0.00  0.00    -0.572 OA
ATOM      7  S   NG6 d 399      17.813  -4.093  33.896  0.00  0.00     0.251 S 
ATOM      8  O5  NG6 d 399      15.684  -3.334  30.755  0.00  0.00    -0.349 OA
ATOM      9  O1  NG6 d 399      15.920  -1.957  28.922  0.00  0.00    -0.369 OA
ATOM     10  O6  NG6 d 399      16.566  -3.662  33.335  0.00  0.00    -0.254 OA
ATOM     11  C4  NG6 d 399      13.905  -4.922  31.026  0.00  0.00     0.089 C 
ATOM     12  C3  NG6 d 399      13.068  -4.217  29.956  0.00  0.00     0.093 C 
ATOM     13  C6  NG6 d 399      15.695  -4.613  32.736  0.00  0.00     0.067 C 
ATOM     14  C2  NG6 d 399      13.931  -3.338  29.036  0.00  0.00     0.087 C 
ATOM     15  O2S NG6 d 399      17.674  -4.252  35.389  0.00  0.00    -0.572 OA
ATOM     16  N   NG6 d 399      13.053  -2.440  28.259  0.00  0.00    -0.349 N 
ATOM     17  C8  NG6 d 399      13.169  -0.941  30.158  0.00  0.00    -0.003 C 
ATOM     18  O3  NG6 d 399      12.443  -5.208  29.149  0.00  0.00    -0.348 OA
ATOM     19  C1  NG6 d 399      14.959  -2.513  29.830  0.00  0.00     0.151 C 
ATOM     20  H   NG6 d 399      14.196  -3.184  32.193  0.00  0.00     0.090 H 
ATOM     21  H   NG6 d 399      15.229  -6.392  31.113  0.00  0.00     0.210 HD
ATOM     22  H   NG6 d 399      16.570  -1.437  29.419  0.00  0.00     0.212 HD
ATOM     23  H   NG6 d 399      13.246  -5.360  31.746  0.00  0.00     0.091 H 
ATOM     24  H   NG6 d 399      12.356  -3.594  30.454  0.00  0.00     0.091 H 
ATOM     25  H   NG6 d 399      16.274  -5.371  32.249  0.00  0.00     0.080 H 
ATOM     26  H   NG6 d 399      15.084  -5.063  33.490  0.00  0.00     0.080 H 
ATOM     27  H   NG6 d 399      14.477  -3.979  28.376  0.00  0.00     0.084 H 
ATOM     28  H   NG6 d 399      12.760  -2.713  27.360  0.00  0.00     0.163 HD
ATOM     29  H   NG6 d 399      13.790  -1.740  30.504  0.00  0.00     0.040 H 
ATOM     30  H   NG6 d 399      12.340  -0.818  30.824  0.00  0.00     0.040 H 
ATOM     31  H   NG6 d 399      13.738  -0.035  30.125  0.00  0.00     0.040 H 
ATOM     32  H   NG6 d 399      14.424  -1.753  30.360  0.00  0.00     0.132 H 
ATOM     33  C5  GCD d 400      10.074  -7.389  30.501  0.00  0.00     0.147 C 
ATOM     34  C2  GCD d 400      10.281  -5.712  28.341  0.00  0.00     0.111 C 
ATOM     35  O6A GCD d 400      11.137  -8.710  32.142  0.00  0.00    -0.642 OA
ATOM     36  C3  GCD d 400       8.851  -6.036  28.754  0.00  0.00     0.084 C 
ATOM     37  O5  GCD d 400      11.139  -6.530  30.496  0.00  0.00    -0.311 OA
ATOM     38  O3  GCD d 400       8.097  -6.440  27.607  0.00  0.00    -0.389 OA
ATOM     39  O6B GCD d 400       9.147  -9.358  31.449  0.00  0.00    -0.642 OA
ATOM     40  O2  GCD d 400      10.296  -4.566  27.496  0.00  0.00    -0.388 OA
ATOM     41  C4  GCD d 400       8.937  -7.200  29.725  0.00  0.00    -0.034 C 
ATOM     42  C1  GCD d 400      11.107  -5.422  29.581  0.00  0.00     0.165 C 
ATOM     43  C6  GCD d 400      10.127  -8.587  31.427  0.00  0.00     0.233 C 
ATOM     44  H   GCD d 400      10.692  -6.546  27.813  0.00  0.00     0.095 H 
ATOM     45  H   GCD d 400       8.375  -5.185  29.195  0.00  0.00     0.093 H 
ATOM     46  H   GCD d 400       8.519  -7.211  27.197  0.00  0.00     0.210 HD
ATOM     47  H   GCD d 400       9.924  -3.808  27.973  0.00  0.00     0.210 HD
ATOM     48  H   GCD d 400       8.144  -7.856  29.809  0.00  0.00     0.085 H 
ATOM     49  H   GCD d 400      10.674  -4.583  30.082  0.00  0.00     0.134 H 
ENDROOT
TORSDOF 12
ENDMDL
MODEL 45
REMARK VINA RESULT:       1.1      2.590      5.240
REMARK  0 active torsions:
REMARK  status: ('A' for Active; 'I' for Inactive)
REMARK       I    between atoms: C5_1  and  C6_18 
REMARK       I    between atoms: C5_2  and  C6_30 
REMARK       I    between atoms: O4_3  and  C4_14 
REMARK       I    between atoms: C2_4  and  O2_23 
REMARK       I    between atoms: C7_5  and  C8_27 
REMARK       I    between atoms: C7_5  and  N_24 
REMARK       I    between atoms: S_9  and  O6_13 
REMARK       I    between atoms: O1_12  and  C1_29 
REMARK       I    between atoms: O6_13  and  C6_18 
REMARK       I    between atoms: C3_15  and  O3_28 
REMARK       I    between atoms: C3_16  and  O3_20 
REMARK       I    between atoms: C2_19  and  N_24 
REMARK       I    between atoms: C1_26  and  O3_28 
ROOT
ATOM      1  C5  NG6 d 399      13.386  -5.422  29.901  0.00  0.00     0.090 C 
ATOM      2  O4  NG6 d 399      13.937  -5.614  27.561  0.00  0.00    -0.390 OA
ATOM      3  C7  NG6 d 399      14.323  -1.010  30.323  0.00  0.00     0.214 C 
ATOM      4  O3S NG6 d 399      15.021  -8.759  32.511  0.00  0.00    -0.572 OA
ATOM      5  O7  NG6 d 399      14.338   0.201  30.538  0.00  0.00    -0.274 OA
ATOM      6  O1S NG6 d 399      14.439  -9.308  30.198  0.00  0.00    -0.572 OA
ATOM      7  S   NG6 d 399      13.927  -8.732  31.490  0.00  0.00     0.251 S 
ATOM      8  O5  NG6 d 399      14.751  -5.171  30.220  0.00  0.00    -0.349 OA
ATOM      9  O1  NG6 d 399      16.391  -3.619  30.677  0.00  0.00    -0.369 OA
ATOM     10  O6  NG6 d 399      13.509  -7.376  31.287  0.00  0.00    -0.254 OA
ATOM     11  C4  NG6 d 399      13.102  -4.919  28.495  0.00  0.00     0.089 C 
ATOM     12  C3  NG6 d 399      13.365  -3.414  28.417  0.00  0.00     0.093 C 
ATOM     13  C6  NG6 d 399      13.192  -6.924  29.976  0.00  0.00     0.067 C 
ATOM     14  C2  NG6 d 399      14.734  -3.036  29.007  0.00  0.00     0.087 C 
ATOM     15  O2S NG6 d 399      12.758  -9.562  31.961  0.00  0.00    -0.572 OA
ATOM     16  N   NG6 d 399      14.789  -1.575  29.212  0.00  0.00    -0.349 N 
ATOM     17  C8  NG6 d 399      13.740  -1.993  31.354  0.00  0.00    -0.003 C 
ATOM     18  O3  NG6 d 399      13.360  -3.026  27.048  0.00  0.00    -0.348 OA
ATOM     19  C1  NG6 d 399      15.007  -3.765  30.335  0.00  0.00     0.151 C 
ATOM     20  H   NG6 d 399      12.722  -4.922  30.574  0.00  0.00     0.090 H 
ATOM     21  H   NG6 d 399      13.764  -6.567  27.618  0.00  0.00     0.210 HD
ATOM     22  H   NG6 d 399      16.567  -4.078  31.514  0.00  0.00     0.212 HD
ATOM     23  H   NG6 d 399      12.075  -5.102  28.253  0.00  0.00     0.091 H 
ATOM     24  H   NG6 d 399      12.602  -2.917  28.980  0.00  0.00     0.091 H 
ATOM     25  H   NG6 d 399      13.835  -7.403  29.267  0.00  0.00     0.080 H 
ATOM     26  H   NG6 d 399      12.173  -7.164  29.752  0.00  0.00     0.080 H 
ATOM     27  H   NG6 d 399      15.491  -3.340  28.315  0.00  0.00     0.084 H 
ATOM     28  H   NG6 d 399      15.179  -1.006  28.510  0.00  0.00     0.163 HD
ATOM     29  H   NG6 d 399      13.821  -2.992  30.980  0.00  0.00     0.040 H 
ATOM     30  H   NG6 d 399      12.710  -1.759  31.528  0.00  0.00     0.040 H 
ATOM     31  H   NG6 d 399      14.284  -1.910  32.272  0.00  0.00     0.040 H 
ATOM     32  H   NG6 d 399      14.364  -3.338  31.076  0.00  0.00     0.132 H 
ATOM     33  C5  GCD d 400      10.458  -3.282  25.122  0.00  0.00     0.147 C 
ATOM     34  C2  GCD d 400      12.350  -1.379  25.690  0.00  0.00     0.111 C 
ATOM     35  O6A GCD d 400       9.866  -5.562  24.976  0.00  0.00    -0.642 OA
ATOM     36  C3  GCD d 400      11.016  -0.821  25.208  0.00  0.00     0.084 C 
ATOM     37  O5  GCD d 400      11.323  -3.567  26.144  0.00  0.00    -0.311 OA
ATOM     38  O3  GCD d 400      11.241   0.131  24.163  0.00  0.00    -0.389 OA
ATOM     39  O6B GCD d 400       8.876  -4.165  23.588  0.00  0.00    -0.642 OA
ATOM     40  O2  GCD d 400      13.110  -0.351  26.315  0.00  0.00    -0.388 OA
ATOM     41  C4  GCD d 400      10.235  -1.996  24.647  0.00  0.00    -0.034 C 
ATOM     42  C1  GCD d 400      12.095  -2.487  26.695  0.00  0.00     0.165 C 
ATOM     43  C6  GCD d 400       9.681  -4.426  24.504  0.00  0.00     0.233 C 
ATOM     44  H   GCD d 400      12.894  -1.761  24.852  0.00  0.00     0.095 H 
ATOM     45  H   GCD d 400      10.490  -0.338  26.005  0.00  0.00     0.093 H 
ATOM     46  H   GCD d 400      11.718  -0.294  23.434  0.00  0.00     0.210 HD
ATOM     47  H   GCD d 400      12.619  -0.003  27.075  0.00  0.00     0.210 HD
ATOM     48  H   GCD d 400       9.533  -1.837  23.907  0.00  0.00     0.085 H 
ATOM     49  H   GCD d 400      11.554  -2.073  27.519  0.00  0.00     0.134 H 
ENDROOT
TORSDOF 12
ENDMDL
MODEL 46
REMARK VINA RESULT:       1.4      2.531      5.214
REMARK  0 active torsions:
REMARK  status: ('A' for Active; 'I' for Inactive)
REMARK       I    between atoms: C5_1  and  C6_18 
REMARK       I    between atoms: C5_2  and  C6_30 
REMARK       I    between atoms: O4_3  and  C4_14 
REMARK       I    between atoms: C2_4  and  O2_23 
REMARK       I    between atoms: C7_5  and  C8_27 
REMARK       I    between atoms: C7_5  and  N_24 
REMARK       I    between atoms: S_9  and  O6_13 
REMARK       I    between atoms: O1_12  and  C1_29 
REMARK       I    between atoms: O6_13  and  C6_18 
REMARK       I    between atoms: C3_15  and  O3_28 
REMARK       I    between atoms: C3_16  and  O3_20 
REMARK       I    between atoms: C2_19  and  N_24 
REMARK       I    between atoms: C1_26  and  O3_28 
ROOT
ATOM      1  C5  NG6 d 399      13.637  -2.158  29.691  0.00  0.00     0.090 C 
ATOM      2  O4  NG6 d 399      14.026  -4.296  28.646  0.00  0.00    -0.390 OA
ATOM      3  C7  NG6 d 399      11.168  -0.357  26.346  0.00  0.00     0.214 C 
ATOM      4  O3S NG6 d 399      17.307  -0.289  31.603  0.00  0.00    -0.572 OA
ATOM      5  O7  NG6 d 399      10.327   0.181  25.627  0.00  0.00    -0.274 OA
ATOM      6  O1S NG6 d 399      17.161  -2.732  31.575  0.00  0.00    -0.572 OA
ATOM      7  S   NG6 d 399      16.465  -1.465  31.991  0.00  0.00     0.251 S 
ATOM      8  O5  NG6 d 399      14.429  -1.510  28.701  0.00  0.00    -0.349 OA
ATOM      9  O1  NG6 d 399      14.494  -0.319  26.730  0.00  0.00    -0.369 OA
ATOM     10  O6  NG6 d 399      15.195  -1.368  31.335  0.00  0.00    -0.254 OA
ATOM     11  C4  NG6 d 399      12.999  -3.399  29.087  0.00  0.00     0.089 C 
ATOM     12  C3  NG6 d 399      12.105  -3.004  27.909  0.00  0.00     0.093 C 
ATOM     13  C6  NG6 d 399      14.576  -2.540  30.818  0.00  0.00     0.067 C 
ATOM     14  C2  NG6 d 399      12.826  -2.066  26.927  0.00  0.00     0.087 C 
ATOM     15  O2S NG6 d 399      16.267  -1.489  33.487  0.00  0.00    -0.572 OA
ATOM     16  N   NG6 d 399      11.834  -1.461  26.015  0.00  0.00    -0.349 N 
ATOM     17  C8  NG6 d 399      11.521   0.223  27.727  0.00  0.00    -0.003 C 
ATOM     18  O3  NG6 d 399      11.748  -4.185  27.200  0.00  0.00    -0.348 OA
ATOM     19  C1  NG6 d 399      13.612  -0.964  27.658  0.00  0.00     0.151 C 
ATOM     20  H   NG6 d 399      12.854  -1.524  30.051  0.00  0.00     0.090 H 
ATOM     21  H   NG6 d 399      14.587  -4.540  29.399  0.00  0.00     0.210 HD
ATOM     22  H   NG6 d 399      14.992   0.377  27.188  0.00  0.00     0.212 HD
ATOM     23  H   NG6 d 399      12.399  -3.886  29.827  0.00  0.00     0.091 H 
ATOM     24  H   NG6 d 399      11.250  -2.495  28.302  0.00  0.00     0.091 H 
ATOM     25  H   NG6 d 399      15.327  -3.206  30.447  0.00  0.00     0.080 H 
ATOM     26  H   NG6 d 399      14.023  -3.025  31.595  0.00  0.00     0.080 H 
ATOM     27  H   NG6 d 399      13.532  -2.646  26.369  0.00  0.00     0.084 H 
ATOM     28  H   NG6 d 399      11.660  -1.885  25.144  0.00  0.00     0.163 HD
ATOM     29  H   NG6 d 399      12.269  -0.387  28.190  0.00  0.00     0.040 H 
ATOM     30  H   NG6 d 399      10.644   0.239  28.342  0.00  0.00     0.040 H 
ATOM     31  H   NG6 d 399      11.894   1.219  27.611  0.00  0.00     0.040 H 
ATOM     32  H   NG6 d 399      12.901  -0.281  28.073  0.00  0.00     0.132 H 
ATOM     33  C5  GCD d 400       9.794  -6.658  28.704  0.00  0.00     0.147 C 
ATOM     34  C2  GCD d 400       9.790  -5.215  26.372  0.00  0.00     0.111 C 
ATOM     35  O6A GCD d 400      10.998  -7.543  30.531  0.00  0.00    -0.642 OA
ATOM     36  C3  GCD d 400       8.433  -5.787  26.763  0.00  0.00     0.084 C 
ATOM     37  O5  GCD d 400      10.659  -5.599  28.640  0.00  0.00    -0.311 OA
ATOM     38  O3  GCD d 400       7.852  -6.461  25.642  0.00  0.00    -0.389 OA
ATOM     39  O6B GCD d 400       9.231  -8.665  29.840  0.00  0.00    -0.642 OA
ATOM     40  O2  GCD d 400       9.624  -4.190  25.399  0.00  0.00    -0.388 OA
ATOM     41  C4  GCD d 400       8.694  -6.796  27.867  0.00  0.00    -0.034 C 
ATOM     42  C1  GCD d 400      10.460  -4.628  27.601  0.00  0.00     0.165 C 
ATOM     43  C6  GCD d 400      10.032  -7.712  29.766  0.00  0.00     0.233 C 
ATOM     44  H   GCD d 400      10.395  -5.996  25.962  0.00  0.00     0.095 H 
ATOM     45  H   GCD d 400       7.766  -5.013  27.082  0.00  0.00     0.093 H 
ATOM     46  H   GCD d 400       8.447  -7.166  25.344  0.00  0.00     0.210 HD
ATOM     47  H   GCD d 400       9.076  -3.480  25.768  0.00  0.00     0.210 HD
ATOM     48  H   GCD d 400       8.048  -7.591  27.996  0.00  0.00     0.085 H 
ATOM     49  H   GCD d 400       9.833  -3.849  27.983  0.00  0.00     0.134 H 
ENDROOT
TORSDOF 12
ENDMDL
MODEL 47
REMARK VINA RESULT:       1.6      3.460      4.828
REMARK  0 active torsions:
REMARK  status: ('A' for Active; 'I' for Inactive)
REMARK       I    between atoms: C5_1  and  C6_18 
REMARK       I    between atoms: C5_2  and  C6_30 
REMARK       I    between atoms: O4_3  and  C4_14 
REMARK       I    between atoms: C2_4  and  O2_23 
REMARK       I    between atoms: C7_5  and  C8_27 
REMARK       I    between atoms: C7_5  and  N_24 
REMARK       I    between atoms: S_9  and  O6_13 
REMARK       I    between atoms: O1_12  and  C1_29 
REMARK       I    between atoms: O6_13  and  C6_18 
REMARK       I    between atoms: C3_15  and  O3_28 
REMARK       I    between atoms: C3_16  and  O3_20 
REMARK       I    between atoms: C2_19  and  N_24 
REMARK       I    between atoms: C1_26  and  O3_28 
ROOT
ATOM      1  C5  NG6 d 399      14.169  -7.288  28.956  0.00  0.00     0.090 C 
ATOM      2  O4  NG6 d 399      14.156  -5.034  29.812  0.00  0.00    -0.390 OA
ATOM      3  C7  NG6 d 399      10.067  -8.471  30.470  0.00  0.00     0.214 C 
ATOM      4  O3S NG6 d 399      18.034  -9.562  29.667  0.00  0.00    -0.572 OA
ATOM      5  O7  NG6 d 399       8.912  -8.862  30.634  0.00  0.00    -0.274 OA
ATOM      6  O1S NG6 d 399      18.183  -7.139  29.359  0.00  0.00    -0.572 OA
ATOM      7  S   NG6 d 399      17.695  -8.426  28.753  0.00  0.00     0.251 S 
ATOM      8  O5  NG6 d 399      14.194  -7.810  30.280  0.00  0.00    -0.349 OA
ATOM      9  O1  NG6 d 399      13.011  -8.694  32.048  0.00  0.00    -0.369 OA
ATOM     10  O6  NG6 d 399      16.274  -8.375  28.578  0.00  0.00    -0.254 OA
ATOM     11  C4  NG6 d 399      13.453  -5.947  28.961  0.00  0.00     0.089 C 
ATOM     12  C3  NG6 d 399      12.016  -6.126  29.455  0.00  0.00     0.093 C 
ATOM     13  C6  NG6 d 399      15.614  -7.116  28.529  0.00  0.00     0.067 C 
ATOM     14  C2  NG6 d 399      11.952  -6.933  30.762  0.00  0.00     0.087 C 
ATOM     15  O2S NG6 d 399      18.369  -8.620  27.416  0.00  0.00    -0.572 OA
ATOM     16  N   NG6 d 399      10.558  -7.356  31.005  0.00  0.00    -0.349 N 
ATOM     17  C8  NG6 d 399      11.058  -9.264  29.601  0.00  0.00    -0.003 C 
ATOM     18  O3  NG6 d 399      11.464  -4.840  29.711  0.00  0.00    -0.348 OA
ATOM     19  C1  NG6 d 399      12.877  -8.162  30.724  0.00  0.00     0.151 C 
ATOM     20  H   NG6 d 399      13.652  -7.938  28.281  0.00  0.00     0.090 H 
ATOM     21  H   NG6 d 399      15.065  -4.927  29.491  0.00  0.00     0.210 HD
ATOM     22  H   NG6 d 399      13.594  -9.468  32.028  0.00  0.00     0.212 HD
ATOM     23  H   NG6 d 399      13.428  -5.554  27.966  0.00  0.00     0.091 H 
ATOM     24  H   NG6 d 399      11.472  -6.655  28.701  0.00  0.00     0.091 H 
ATOM     25  H   NG6 d 399      16.102  -6.430  29.191  0.00  0.00     0.080 H 
ATOM     26  H   NG6 d 399      15.648  -6.732  27.531  0.00  0.00     0.080 H 
ATOM     27  H   NG6 d 399      12.290  -6.304  31.560  0.00  0.00     0.084 H 
ATOM     28  H   NG6 d 399       9.979  -6.800  31.576  0.00  0.00     0.163 HD
ATOM     29  H   NG6 d 399      12.001  -8.760  29.586  0.00  0.00     0.040 H 
ATOM     30  H   NG6 d 399      10.677  -9.339  28.603  0.00  0.00     0.040 H 
ATOM     31  H   NG6 d 399      11.184 -10.245  30.009  0.00  0.00     0.040 H 
ATOM     32  H   NG6 d 399      12.444  -8.871  30.050  0.00  0.00     0.132 H 
ATOM     33  C5  GCD d 400      10.983  -2.547  27.121  0.00  0.00     0.147 C 
ATOM     34  C2  GCD d 400       9.513  -3.622  29.171  0.00  0.00     0.111 C 
ATOM     35  O6A GCD d 400      13.094  -1.993  26.222  0.00  0.00    -0.642 OA
ATOM     36  C3  GCD d 400       8.682  -3.065  28.023  0.00  0.00     0.084 C 
ATOM     37  O5  GCD d 400      11.536  -3.616  27.772  0.00  0.00    -0.311 OA
ATOM     38  O3  GCD d 400       7.658  -2.208  28.539  0.00  0.00    -0.389 OA
ATOM     39  O6B GCD d 400      11.387  -0.713  25.668  0.00  0.00    -0.642 OA
ATOM     40  O2  GCD d 400       8.715  -4.483  29.976  0.00  0.00    -0.388 OA
ATOM     41  C4  GCD d 400       9.628  -2.243  27.166  0.00  0.00    -0.034 C 
ATOM     42  C1  GCD d 400      10.680  -4.413  28.607  0.00  0.00     0.165 C 
ATOM     43  C6  GCD d 400      11.893  -1.674  26.280  0.00  0.00     0.233 C 
ATOM     44  H   GCD d 400       9.874  -2.812  29.769  0.00  0.00     0.095 H 
ATOM     45  H   GCD d 400       8.221  -3.851  27.462  0.00  0.00     0.093 H 
ATOM     46  H   GCD d 400       8.063  -1.490  29.050  0.00  0.00     0.210 HD
ATOM     47  H   GCD d 400       8.387  -5.219  29.435  0.00  0.00     0.210 HD
ATOM     48  H   GCD d 400       9.262  -1.452  26.613  0.00  0.00     0.085 H 
ATOM     49  H   GCD d 400      10.287  -5.215  28.019  0.00  0.00     0.134 H 
ENDROOT
TORSDOF 12
ENDMDL
MODEL 48
REMARK VINA RESULT:       1.6      2.442      4.877
REMARK  0 active torsions:
REMARK  status: ('A' for Active; 'I' for Inactive)
REMARK       I    between atoms: C5_1  and  C6_18 
REMARK       I    between atoms: C5_2  and  C6_30 
REMARK       I    between atoms: O4_3  and  C4_14 
REMARK       I    between atoms: C2_4  and  O2_23 
REMARK       I    between atoms: C7_5  and  C8_27 
REMARK       I    between atoms: C7_5  and  N_24 
REMARK       I    between atoms: S_9  and  O6_13 
REMARK       I    between atoms: O1_12  and  C1_29 
REMARK       I    between atoms: O6_13  and  C6_18 
REMARK       I    between atoms: C3_15  and  O3_28 
REMARK       I    between atoms: C3_16  and  O3_20 
REMARK       I    between atoms: C2_19  and  N_24 
REMARK       I    between atoms: C1_26  and  O3_28 
ROOT
ATOM      1  C5  NG6 d 399      13.894  -2.937  30.886  0.00  0.00     0.090 C 
ATOM      2  O4  NG6 d 399      14.470  -4.452  29.100  0.00  0.00    -0.390 OA
ATOM      3  C7  NG6 d 399      12.153   0.337  28.283  0.00  0.00     0.214 C 
ATOM      4  O3S NG6 d 399      17.119  -2.410  34.038  0.00  0.00    -0.572 OA
ATOM      5  O7  NG6 d 399      11.476   1.205  27.735  0.00  0.00    -0.274 OA
ATOM      6  O1S NG6 d 399      16.967  -4.582  32.922  0.00  0.00    -0.572 OA
ATOM      7  S   NG6 d 399      16.210  -3.556  33.719  0.00  0.00     0.251 S 
ATOM      8  O5  NG6 d 399      14.871  -2.006  30.435  0.00  0.00    -0.349 OA
ATOM      9  O1  NG6 d 399      15.336  -0.100  29.228  0.00  0.00    -0.369 OA
ATOM     10  O6  NG6 d 399      15.097  -3.071  32.956  0.00  0.00    -0.254 OA
ATOM     11  C4  NG6 d 399      13.382  -3.737  29.699  0.00  0.00     0.089 C 
ATOM     12  C3  NG6 d 399      12.743  -2.798  28.674  0.00  0.00     0.093 C 
ATOM     13  C6  NG6 d 399      14.587  -3.848  31.880  0.00  0.00     0.067 C 
ATOM     14  C2  NG6 d 399      13.651  -1.602  28.343  0.00  0.00     0.087 C 
ATOM     15  O2S NG6 d 399      15.717  -4.196  34.993  0.00  0.00    -0.572 OA
ATOM     16  N   NG6 d 399      12.865  -0.577  27.628  0.00  0.00    -0.349 N 
ATOM     17  C8  NG6 d 399      12.226   0.237  29.817  0.00  0.00    -0.003 C 
ATOM     18  O3  NG6 d 399      12.527  -3.525  27.470  0.00  0.00    -0.348 OA
ATOM     19  C1  NG6 d 399      14.282  -0.994  29.609  0.00  0.00     0.151 C 
ATOM     20  H   NG6 d 399      13.059  -2.448  31.342  0.00  0.00     0.090 H 
ATOM     21  H   NG6 d 399      14.869  -5.044  29.757  0.00  0.00     0.210 HD
ATOM     22  H   NG6 d 399      15.736   0.285  30.023  0.00  0.00     0.212 HD
ATOM     23  H   NG6 d 399      12.643  -4.436  30.033  0.00  0.00     0.091 H 
ATOM     24  H   NG6 d 399      11.830  -2.428  29.090  0.00  0.00     0.091 H 
ATOM     25  H   NG6 d 399      15.393  -4.359  31.395  0.00  0.00     0.080 H 
ATOM     26  H   NG6 d 399      13.887  -4.565  32.256  0.00  0.00     0.080 H 
ATOM     27  H   NG6 d 399      14.451  -1.950  27.724  0.00  0.00     0.084 H 
ATOM     28  H   NG6 d 399      12.866  -0.570  26.643  0.00  0.00     0.163 HD
ATOM     29  H   NG6 d 399      12.863  -0.577  30.092  0.00  0.00     0.040 H 
ATOM     30  H   NG6 d 399      11.245   0.071  30.211  0.00  0.00     0.040 H 
ATOM     31  H   NG6 d 399      12.621   1.149  30.215  0.00  0.00     0.040 H 
ATOM     32  H   NG6 d 399      13.506  -0.491  30.147  0.00  0.00     0.132 H 
ATOM     33  C5  GCD d 400      10.298  -6.211  27.372  0.00  0.00     0.147 C 
ATOM     34  C2  GCD d 400      10.769  -3.918  25.943  0.00  0.00     0.111 C 
ATOM     35  O6A GCD d 400      11.108  -7.897  28.811  0.00  0.00    -0.642 OA
ATOM     36  C3  GCD d 400       9.358  -4.474  25.799  0.00  0.00     0.084 C 
ATOM     37  O5  GCD d 400      11.164  -5.311  27.930  0.00  0.00    -0.311 OA
ATOM     38  O3  GCD d 400       9.007  -4.549  24.413  0.00  0.00    -0.389 OA
ATOM     39  O6B GCD d 400       9.507  -8.449  27.399  0.00  0.00    -0.642 OA
ATOM     40  O2  GCD d 400      10.806  -2.565  25.502  0.00  0.00    -0.388 OA
ATOM     41  C4  GCD d 400       9.386  -5.877  26.378  0.00  0.00    -0.034 C 
ATOM     42  C1  GCD d 400      11.183  -3.975  27.402  0.00  0.00     0.165 C 
ATOM     43  C6  GCD d 400      10.312  -7.634  27.892  0.00  0.00     0.233 C 
ATOM     44  H   GCD d 400      11.439  -4.502  25.348  0.00  0.00     0.095 H 
ATOM     45  H   GCD d 400       8.645  -3.852  26.299  0.00  0.00     0.093 H 
ATOM     46  H   GCD d 400       9.646  -5.111  23.947  0.00  0.00     0.210 HD
ATOM     47  H   GCD d 400      10.199  -2.033  26.041  0.00  0.00     0.210 HD
ATOM     48  H   GCD d 400       8.723  -6.588  26.031  0.00  0.00     0.085 H 
ATOM     49  H   GCD d 400      10.497  -3.380  27.967  0.00  0.00     0.134 H 
ENDROOT
TORSDOF 12
ENDMDL
