REMARK  0 active torsions:
REMARK  status: ('A' for Active; 'I' for Inactive)
REMARK       I    between atoms: C5_1  and  C6_18 
REMARK       I    between atoms: C5_2  and  C6_30 
REMARK       I    between atoms: O4_3  and  C4_14 
REMARK       I    between atoms: C2_4  and  O2_23 
REMARK       I    between atoms: C7_5  and  C8_27 
REMARK       I    between atoms: C7_5  and  N_24 
REMARK       I    between atoms: S_9  and  O6_13 
REMARK       I    between atoms: O1_12  and  C1_29 
REMARK       I    between atoms: O6_13  and  C6_18 
REMARK       I    between atoms: C3_15  and  O3_28 
REMARK       I    between atoms: C3_16  and  O3_20 
REMARK       I    between atoms: C2_19  and  N_24 
REMARK       I    between atoms: C1_26  and  O3_28 
ROOT
ATOM      1  C5  NG6 d 399      15.303  -2.829  30.317  0.00  0.00     0.090 C 
ATOM      2  O4  NG6 d 399      13.021  -2.053  30.384  0.00  0.00    -0.390 OA
ATOM      3  C7  NG6 d 399      14.413  -7.015  28.832  0.00  0.00     0.214 C 
ATOM      4  O3S NG6 d 399      17.774  -1.764  33.975  0.00  0.00    -0.572 OA
ATOM      5  O7  NG6 d 399      14.347  -8.095  28.246  0.00  0.00    -0.274 OA
ATOM      6  O1S NG6 d 399      16.006  -0.209  33.307  0.00  0.00    -0.572 OA
ATOM      7  S   NG6 d 399      17.243  -0.932  32.849  0.00  0.00     0.251 S 
ATOM      8  O5  NG6 d 399      15.040  -3.749  31.371  0.00  0.00    -0.349 OA
ATOM      9  O1  NG6 d 399      14.527  -5.908  31.990  0.00  0.00    -0.369 OA
ATOM     10  O6  NG6 d 399      16.926  -1.788  31.744  0.00  0.00    -0.254 OA
ATOM     11  C4  NG6 d 399      14.027  -2.601  29.523  0.00  0.00     0.089 C 
ATOM     12  C3  NG6 d 399      13.543  -3.923  28.924  0.00  0.00     0.093 C 
ATOM     13  C6  NG6 d 399      15.759  -1.539  30.970  0.00  0.00     0.067 C 
ATOM     14  C2  NG6 d 399      13.497  -5.048  29.971  0.00  0.00     0.087 C 
ATOM     15  O2S NG6 d 399      18.273   0.087  32.428  0.00  0.00    -0.572 OA
ATOM     16  N   NG6 d 399      13.354  -6.347  29.283  0.00  0.00    -0.349 N 
ATOM     17  C8  NG6 d 399      15.768  -6.333  29.090  0.00  0.00    -0.003 C 
ATOM     18  O3  NG6 d 399      12.222  -3.736  28.429  0.00  0.00    -0.348 OA
ATOM     19  C1  NG6 d 399      14.754  -5.057  30.859  0.00  0.00     0.151 C 
ATOM     20  H   NG6 d 399      16.051  -3.196  29.646  0.00  0.00     0.090 H 
ATOM     21  H   NG6 d 399      13.337  -1.216  30.759  0.00  0.00     0.210 HD
ATOM     22  H   NG6 d 399      15.317  -5.916  32.552  0.00  0.00     0.212 HD
ATOM     23  H   NG6 d 399      14.222  -1.913  28.727  0.00  0.00     0.091 H 
ATOM     24  H   NG6 d 399      14.227  -4.204  28.151  0.00  0.00     0.091 H 
ATOM     25  H   NG6 d 399      14.982  -1.166  31.605  0.00  0.00     0.080 H 
ATOM     26  H   NG6 d 399      15.979  -0.814  30.214  0.00  0.00     0.080 H 
ATOM     27  H   NG6 d 399      12.656  -4.876  30.610  0.00  0.00     0.084 H 
ATOM     28  H   NG6 d 399      12.455  -6.727  29.155  0.00  0.00     0.163 HD
ATOM     29  H   NG6 d 399      15.610  -5.411  29.609  0.00  0.00     0.040 H 
ATOM     30  H   NG6 d 399      16.253  -6.138  28.156  0.00  0.00     0.040 H 
ATOM     31  H   NG6 d 399      16.383  -6.976  29.684  0.00  0.00     0.040 H 
ATOM     32  H   NG6 d 399      15.571  -5.399  30.259  0.00  0.00     0.132 H 
ATOM     33  C5  GCD d 400      11.592  -1.549  25.780  0.00  0.00     0.147 C 
ATOM     34  C2  GCD d 400      11.013  -4.147  26.442  0.00  0.00     0.111 C 
ATOM     35  O6A GCD d 400      12.157   0.635  26.474  0.00  0.00    -0.642 OA
ATOM     36  C3  GCD d 400      10.947  -3.845  24.950  0.00  0.00     0.084 C 
ATOM     37  O5  GCD d 400      12.262  -2.069  26.854  0.00  0.00    -0.311 OA
ATOM     38  O3  GCD d 400       9.717  -4.341  24.411  0.00  0.00    -0.389 OA
ATOM     39  O6B GCD d 400      10.967   0.431  24.629  0.00  0.00    -0.642 OA
ATOM     40  O2  GCD d 400      11.085  -5.553  26.651  0.00  0.00    -0.388 OA
ATOM     41  C4  GCD d 400      10.972  -2.333  24.815  0.00  0.00    -0.034 C 
ATOM     42  C1  GCD d 400      12.251  -3.495  27.030  0.00  0.00     0.165 C 
ATOM     43  C6  GCD d 400      11.558  -0.043  25.620  0.00  0.00     0.233 C 
ATOM     44  H   GCD d 400      10.135  -3.763  26.917  0.00  0.00     0.095 H 
ATOM     45  H   GCD d 400      11.760  -4.304  24.427  0.00  0.00     0.093 H 
ATOM     46  H   GCD d 400       8.971  -3.932  24.877  0.00  0.00     0.210 HD
ATOM     47  H   GCD d 400      11.881  -5.903  26.221  0.00  0.00     0.210 HD
ATOM     48  H   GCD d 400      10.525  -1.884  24.000  0.00  0.00     0.085 H 
ATOM     49  H   GCD d 400      13.109  -3.902  26.538  0.00  0.00     0.134 H 
ENDROOT
TORSDOF 12
