MODEL 1
REMARK VINA RESULT:     -10.3      0.000      0.000
REMARK  0 active torsions:
REMARK  status: ('A' for Active; 'I' for Inactive)
REMARK       I    between atoms: C1_1  and  O3_35 
REMARK       I    between atoms: O18_2  and  C12_24 
REMARK       I    between atoms: O18_2  and  S26_27 
REMARK       I    between atoms: S20_5  and  N14_19 
REMARK       I    between atoms: S20_5  and  O28_18 
REMARK       I    between atoms: S20_5  and  O29_7 
REMARK       I    between atoms: S20_5  and  O30_30 
REMARK       I    between atoms: C27_6  and  C19_33 
REMARK       I    between atoms: O9_8  and  C4_32 
REMARK       I    between atoms: S16_9  and  O11_10 
REMARK       I    between atoms: O11_10  and  C6_15 
REMARK       I    between atoms: O25_14  and  C17_17 
REMARK       I    between atoms: C6_15  and  C2_23 
REMARK       I    between atoms: N14_19  and  C8_29 
REMARK       I    between atoms: C10_22  and  O15_26 
REMARK       I    between atoms: C7_25  and  O3_35 
ROOT
ATOM      1  C1  H1S d 501      36.666   1.461  15.273  0.00  0.00     0.095 C 
ATOM      2  O18 H1S d 501      32.320   2.652  13.863  0.00  0.00    -0.244 OA
ATOM      3  O34 H1S d 501      32.940  -1.882  16.041  0.00  0.00    -0.642 OA
ATOM      4  O35 H1S d 501      32.608  -2.559  13.963  0.00  0.00    -0.642 OA
ATOM      5  S20 H1S d 501      38.873  -0.300  19.486  0.00  0.00     0.156 S 
ATOM      6  C27 H1S d 501      32.907  -1.685  14.808  0.00  0.00     0.233 C 
ATOM      7  O29 H1S d 501      38.994   1.163  19.793  0.00  0.00    -0.296 OA
ATOM      8  O9  H1S d 501      35.385   0.597  17.132  0.00  0.00    -0.391 OA
ATOM      9  S16 H1S d 501      39.691   3.363  11.826  0.00  0.00     0.251 S 
ATOM     10  O11 H1S d 501      39.412   2.457  12.896  0.00  0.00    -0.254 OA
ATOM     11  O32 H1S d 501      32.948   4.954  14.060  0.00  0.00    -0.572 OA
ATOM     12  O5  H1S d 501      39.086   1.599  15.591  0.00  0.00    -0.350 OA
ATOM     13  O23 H1S d 501      40.921   2.914  11.095  0.00  0.00    -0.572 OA
ATOM     14  O25 H1S d 501      34.883   1.255  11.689  0.00  0.00    -0.389 OA
ATOM     15  C6  H1S d 501      38.149   2.504  13.564  0.00  0.00     0.067 C 
ATOM     16  O21 H1S d 501      38.528   3.388  10.878  0.00  0.00    -0.572 OA
ATOM     17  C17 H1S d 501      33.609   1.315  12.337  0.00  0.00     0.086 C 
ATOM     18  O28 H1S d 501      40.200  -0.824  19.024  0.00  0.00    -0.296 OA
ATOM     19  N14 H1S d 501      37.758  -0.532  18.318  0.00  0.00    -0.210 NA
ATOM     20  O31 H1S d 501      30.590   4.300  13.940  0.00  0.00    -0.572 OA
ATOM     21  C24 H1S d 501      33.273  -0.059  12.920  0.00  0.00    -0.034 C 
ATOM     22  C10 H1S d 501      39.095   0.532  16.550  0.00  0.00     0.147 C 
ATOM     23  C2  H1S d 501      38.048   1.399  14.616  0.00  0.00     0.091 C 
ATOM     24  C12 H1S d 501      33.660   2.344  13.469  0.00  0.00     0.135 C 
ATOM     25  C7  H1S d 501      34.382   1.729  14.670  0.00  0.00     0.167 C 
ATOM     26  O15 H1S d 501      39.224  -0.720  15.869  0.00  0.00    -0.369 OA
ATOM     27  S26 H1S d 501      31.975   3.981  13.461  0.00  0.00     0.252 S 
ATOM     28  O22 H1S d 501      39.912   4.739  12.382  0.00  0.00    -0.572 OA
ATOM     29  C8  H1S d 501      37.784   0.565  17.342  0.00  0.00     0.081 C 
ATOM     30  O30 H1S d 501      38.447  -1.036  20.722  0.00  0.00    -0.296 OA
ATOM     31  O13 H1S d 501      33.533   0.695  15.197  0.00  0.00    -0.311 OA
ATOM     32  C4  H1S d 501      36.595   0.417  16.391  0.00  0.00     0.083 C 
ATOM     33  C19 H1S d 501      33.258  -0.287  14.295  0.00  0.00     0.147 C 
ATOM     34  O33 H1S d 501      32.020   4.083  11.965  0.00  0.00    -0.572 OA
ATOM     35  O3  H1S d 501      35.660   1.170  14.269  0.00  0.00    -0.348 OA
ATOM     36  H   H1S d 501      36.495   2.435  15.684  0.00  0.00     0.091 H 
ATOM     37  H   H1S d 501      39.269   1.640  18.995  0.00  0.00     0.231 HD
ATOM     38  H   H1S d 501      34.624   0.505  16.537  0.00  0.00     0.210 HD
ATOM     39  H   H1S d 501      35.099   2.126  11.319  0.00  0.00     0.210 HD
ATOM     40  H   H1S d 501      37.367   2.376  12.844  0.00  0.00     0.080 H 
ATOM     41  H   H1S d 501      38.054   3.452  14.051  0.00  0.00     0.080 H 
ATOM     42  H   H1S d 501      32.860   1.600  11.628  0.00  0.00     0.093 H 
ATOM     43  H   H1S d 501      40.475  -0.347  18.225  0.00  0.00     0.231 HD
ATOM     44  H   H1S d 501      36.832  -0.579  18.745  0.00  0.00     0.140 HD
ATOM     45  H   H1S d 501      33.051  -0.837  12.279  0.00  0.00     0.085 H 
ATOM     46  H   H1S d 501      39.919   0.648  17.223  0.00  0.00     0.131 H 
ATOM     47  H   H1S d 501      38.172   0.435  14.169  0.00  0.00     0.090 H 
ATOM     48  H   H1S d 501      34.172   3.224  13.139  0.00  0.00     0.097 H 
ATOM     49  H   H1S d 501      34.575   2.478  15.411  0.00  0.00     0.134 H 
ATOM     50  H   H1S d 501      38.480  -0.833  15.257  0.00  0.00     0.212 HD
ATOM     51  H   H1S d 501      37.718   1.502  17.855  0.00  0.00     0.076 H 
ATOM     52  H   H1S d 501      38.369  -1.983  20.523  0.00  0.00     0.231 HD
ATOM     53  H   H1S d 501      36.619  -0.557  15.950  0.00  0.00     0.089 H 
ENDROOT
TORSDOF 16
ENDMDL
MODEL 2
REMARK VINA RESULT:     -10.3      2.865      8.315
REMARK  0 active torsions:
REMARK  status: ('A' for Active; 'I' for Inactive)
REMARK       I    between atoms: C1_1  and  O3_35 
REMARK       I    between atoms: O18_2  and  C12_24 
REMARK       I    between atoms: O18_2  and  S26_27 
REMARK       I    between atoms: S20_5  and  N14_19 
REMARK       I    between atoms: S20_5  and  O28_18 
REMARK       I    between atoms: S20_5  and  O29_7 
REMARK       I    between atoms: S20_5  and  O30_30 
REMARK       I    between atoms: C27_6  and  C19_33 
REMARK       I    between atoms: O9_8  and  C4_32 
REMARK       I    between atoms: S16_9  and  O11_10 
REMARK       I    between atoms: O11_10  and  C6_15 
REMARK       I    between atoms: O25_14  and  C17_17 
REMARK       I    between atoms: C6_15  and  C2_23 
REMARK       I    between atoms: N14_19  and  C8_29 
REMARK       I    between atoms: C10_22  and  O15_26 
REMARK       I    between atoms: C7_25  and  O3_35 
ROOT
ATOM      1  C1  H1S d 501      35.521   2.865  13.657  0.00  0.00     0.095 C 
ATOM      2  O18 H1S d 501      40.025   2.218  14.918  0.00  0.00    -0.244 OA
ATOM      3  O34 H1S d 501      39.115   4.677  10.581  0.00  0.00    -0.642 OA
ATOM      4  O35 H1S d 501      39.873   2.783   9.731  0.00  0.00    -0.642 OA
ATOM      5  S20 H1S d 501      32.573   6.722  12.191  0.00  0.00     0.156 S 
ATOM      6  C27 H1S d 501      39.386   3.461  10.664  0.00  0.00     0.233 C 
ATOM      7  O29 H1S d 501      32.352   6.852  13.668  0.00  0.00    -0.296 OA
ATOM      8  O9  H1S d 501      36.432   5.016  13.031  0.00  0.00    -0.391 OA
ATOM      9  S16 H1S d 501      33.189  -1.279  15.083  0.00  0.00     0.251 S 
ATOM     10  O11 H1S d 501      33.275  -0.089  14.295  0.00  0.00    -0.254 OA
ATOM     11  O32 H1S d 501      39.305   2.055  17.196  0.00  0.00    -0.572 OA
ATOM     12  O5  H1S d 501      33.084   2.690  13.707  0.00  0.00    -0.350 OA
ATOM     13  O23 H1S d 501      32.142  -2.186  14.509  0.00  0.00    -0.572 OA
ATOM     14  O25 H1S d 501      37.986  -0.263  13.204  0.00  0.00    -0.389 OA
ATOM     15  C6  H1S d 501      34.379   0.804  14.464  0.00  0.00     0.067 C 
ATOM     16  O21 H1S d 501      34.516  -1.980  15.075  0.00  0.00    -0.572 OA
ATOM     17  C17 H1S d 501      39.104   0.612  13.385  0.00  0.00     0.086 C 
ATOM     18  O28 H1S d 501      31.380   6.065  11.564  0.00  0.00    -0.296 OA
ATOM     19  N14 H1S d 501      33.904   5.824  11.905  0.00  0.00    -0.210 NA
ATOM     20  O31 H1S d 501      41.657   2.463  16.647  0.00  0.00    -0.572 OA
ATOM     21  C24 H1S d 501      39.357   1.384  12.088  0.00  0.00    -0.034 C 
ATOM     22  C10 H1S d 501      32.915   3.732  12.735  0.00  0.00     0.147 C 
ATOM     23  C2  H1S d 501      34.300   1.961  13.467  0.00  0.00     0.091 C 
ATOM     24  C12 H1S d 501      38.799   1.602  14.511  0.00  0.00     0.135 C 
ATOM     25  C7  H1S d 501      37.871   2.696  13.976  0.00  0.00     0.167 C 
ATOM     26  O15 H1S d 501      32.959   3.167  11.421  0.00  0.00    -0.369 OA
ATOM     27  S26 H1S d 501      40.405   1.758  16.219  0.00  0.00     0.252 S 
ATOM     28  O22 H1S d 501      32.823  -0.918  16.493  0.00  0.00    -0.572 OA
ATOM     29  C8  H1S d 501      34.041   4.756  12.904  0.00  0.00     0.081 C 
ATOM     30  O30 H1S d 501      32.765   8.085  11.593  0.00  0.00    -0.296 OA
ATOM     31  O13 H1S d 501      38.627   3.479  13.038  0.00  0.00    -0.311 OA
ATOM     32  C4  H1S d 501      35.399   4.075  12.726  0.00  0.00     0.083 C 
ATOM     33  C19 H1S d 501      39.104   2.751  11.990  0.00  0.00     0.147 C 
ATOM     34  O33 H1S d 501      40.655   0.280  16.179  0.00  0.00    -0.572 OA
ATOM     35  O3  H1S d 501      36.715   2.112  13.322  0.00  0.00    -0.348 OA
ATOM     36  H   H1S d 501      35.579   3.202  14.671  0.00  0.00     0.091 H 
ATOM     37  H   H1S d 501      32.227   5.971  14.055  0.00  0.00     0.231 HD
ATOM     38  H   H1S d 501      37.298   4.593  12.920  0.00  0.00     0.210 HD
ATOM     39  H   H1S d 501      37.824  -0.754  14.025  0.00  0.00     0.210 HD
ATOM     40  H   H1S d 501      35.292   0.267  14.307  0.00  0.00     0.080 H 
ATOM     41  H   H1S d 501      34.348   1.203  15.456  0.00  0.00     0.080 H 
ATOM     42  H   H1S d 501      39.971   0.037  13.638  0.00  0.00     0.093 H 
ATOM     43  H   H1S d 501      31.255   5.185  11.950  0.00  0.00     0.231 HD
ATOM     44  H   H1S d 501      34.727   6.425  11.943  0.00  0.00     0.140 HD
ATOM     45  H   H1S d 501      39.724   0.880  11.265  0.00  0.00     0.085 H 
ATOM     46  H   H1S d 501      31.970   4.215  12.873  0.00  0.00     0.131 H 
ATOM     47  H   H1S d 501      34.296   1.598  12.461  0.00  0.00     0.090 H 
ATOM     48  H   H1S d 501      38.339   1.092  15.331  0.00  0.00     0.097 H 
ATOM     49  H   H1S d 501      37.514   3.305  14.781  0.00  0.00     0.134 H 
ATOM     50  H   H1S d 501      33.813   2.727  11.287  0.00  0.00     0.212 HD
ATOM     51  H   H1S d 501      33.976   5.175  13.886  0.00  0.00     0.076 H 
ATOM     52  H   H1S d 501      32.909   8.001  10.638  0.00  0.00     0.231 HD
ATOM     53  H   H1S d 501      35.491   3.738  11.715  0.00  0.00     0.089 H 
ENDROOT
TORSDOF 16
ENDMDL
MODEL 3
REMARK VINA RESULT:     -10.3      1.624      1.898
REMARK  0 active torsions:
REMARK  status: ('A' for Active; 'I' for Inactive)
REMARK       I    between atoms: C1_1  and  O3_35 
REMARK       I    between atoms: O18_2  and  C12_24 
REMARK       I    between atoms: O18_2  and  S26_27 
REMARK       I    between atoms: S20_5  and  N14_19 
REMARK       I    between atoms: S20_5  and  O28_18 
REMARK       I    between atoms: S20_5  and  O29_7 
REMARK       I    between atoms: S20_5  and  O30_30 
REMARK       I    between atoms: C27_6  and  C19_33 
REMARK       I    between atoms: O9_8  and  C4_32 
REMARK       I    between atoms: S16_9  and  O11_10 
REMARK       I    between atoms: O11_10  and  C6_15 
REMARK       I    between atoms: O25_14  and  C17_17 
REMARK       I    between atoms: C6_15  and  C2_23 
REMARK       I    between atoms: N14_19  and  C8_29 
REMARK       I    between atoms: C10_22  and  O15_26 
REMARK       I    between atoms: C7_25  and  O3_35 
ROOT
ATOM      1  C1  H1S d 501      37.386   1.877  14.745  0.00  0.00     0.095 C 
ATOM      2  O18 H1S d 501      33.906   4.612  13.100  0.00  0.00    -0.244 OA
ATOM      3  O34 H1S d 501      32.714  -0.073  14.619  0.00  0.00    -0.642 OA
ATOM      4  O35 H1S d 501      32.487  -0.368  12.441  0.00  0.00    -0.642 OA
ATOM      5  S20 H1S d 501      38.273  -0.973  18.845  0.00  0.00     0.156 S 
ATOM      6  C27 H1S d 501      32.925   0.255  13.434  0.00  0.00     0.233 C 
ATOM      7  O29 H1S d 501      38.812   0.321  19.380  0.00  0.00    -0.296 OA
ATOM      8  O9  H1S d 501      35.640   1.300  16.313  0.00  0.00    -0.391 OA
ATOM      9  S16 H1S d 501      41.328   3.008  11.947  0.00  0.00     0.251 S 
ATOM     10  O11 H1S d 501      40.621   2.139  12.835  0.00  0.00    -0.254 OA
ATOM     11  O32 H1S d 501      35.205   6.530  13.703  0.00  0.00    -0.572 OA
ATOM     12  O5  H1S d 501      39.648   1.154  15.322  0.00  0.00    -0.350 OA
ATOM     13  O23 H1S d 501      42.442   2.252  11.285  0.00  0.00    -0.572 OA
ATOM     14  O25 H1S d 501      36.173   2.676  11.010  0.00  0.00    -0.389 OA
ATOM     15  C6  H1S d 501      39.357   2.537  13.371  0.00  0.00     0.067 C 
ATOM     16  O21 H1S d 501      40.386   3.527  10.901  0.00  0.00    -0.572 OA
ATOM     17  C17 H1S d 501      34.905   3.092  11.528  0.00  0.00     0.086 C 
ATOM     18  O28 H1S d 501      39.414  -1.860  18.446  0.00  0.00    -0.296 OA
ATOM     19  N14 H1S d 501      37.325  -0.687  17.549  0.00  0.00    -0.210 NA
ATOM     20  O31 H1S d 501      32.806   6.728  13.248  0.00  0.00    -0.572 OA
ATOM     21  C24 H1S d 501      34.064   1.857  11.859  0.00  0.00    -0.034 C 
ATOM     22  C10 H1S d 501      39.175   0.049  16.106  0.00  0.00     0.147 C 
ATOM     23  C2  H1S d 501      38.755   1.423  14.229  0.00  0.00     0.091 C 
ATOM     24  C12 H1S d 501      35.119   3.914  12.800  0.00  0.00     0.135 C 
ATOM     25  C7  H1S d 501      35.423   2.965  13.962  0.00  0.00     0.167 C 
ATOM     26  O15 H1S d 501      38.993  -1.091  15.260  0.00  0.00    -0.369 OA
ATOM     27  S26 H1S d 501      34.069   6.015  12.869  0.00  0.00     0.252 S 
ATOM     28  O22 H1S d 501      41.897   4.160  12.724  0.00  0.00    -0.572 OA
ATOM     29  C8  H1S d 501      37.844   0.437  16.757  0.00  0.00     0.081 C 
ATOM     30  O30 H1S d 501      37.459  -1.652  19.906  0.00  0.00    -0.296 OA
ATOM     31  O13 H1S d 501      34.220   2.227  14.239  0.00  0.00    -0.311 OA
ATOM     32  C4  H1S d 501      36.822   0.803  15.680  0.00  0.00     0.083 C 
ATOM     33  C19 H1S d 501      33.778   1.500  13.176  0.00  0.00     0.147 C 
ATOM     34  O33 H1S d 501      34.362   6.257  11.418  0.00  0.00    -0.572 OA
ATOM     35  O3  H1S d 501      36.497   2.054  13.613  0.00  0.00    -0.348 OA
ATOM     36  H   H1S d 501      37.479   2.800  15.279  0.00  0.00     0.091 H 
ATOM     37  H   H1S d 501      39.338   0.760  18.695  0.00  0.00     0.231 HD
ATOM     38  H   H1S d 501      34.984   1.535  15.637  0.00  0.00     0.210 HD
ATOM     39  H   H1S d 501      36.707   3.458  10.798  0.00  0.00     0.210 HD
ATOM     40  H   H1S d 501      38.688   2.759  12.565  0.00  0.00     0.080 H 
ATOM     41  H   H1S d 501      39.502   3.402  13.984  0.00  0.00     0.080 H 
ATOM     42  H   H1S d 501      34.399   3.688  10.797  0.00  0.00     0.093 H 
ATOM     43  H   H1S d 501      39.941  -1.421  17.760  0.00  0.00     0.231 HD
ATOM     44  H   H1S d 501      36.382  -0.464  17.868  0.00  0.00     0.140 HD
ATOM     45  H   H1S d 501      33.700   1.274  11.089  0.00  0.00     0.085 H 
ATOM     46  H   H1S d 501      39.886  -0.194  16.868  0.00  0.00     0.131 H 
ATOM     47  H   H1S d 501      38.626   0.529  13.657  0.00  0.00     0.090 H 
ATOM     48  H   H1S d 501      35.928   4.600  12.661  0.00  0.00     0.097 H 
ATOM     49  H   H1S d 501      35.736   3.519  14.823  0.00  0.00     0.134 H 
ATOM     50  H   H1S d 501      38.349  -0.879  14.567  0.00  0.00     0.212 HD
ATOM     51  H   H1S d 501      38.009   1.279  17.396  0.00  0.00     0.076 H 
ATOM     52  H   H1S d 501      37.111  -2.489  19.560  0.00  0.00     0.231 HD
ATOM     53  H   H1S d 501      36.596  -0.068  15.102  0.00  0.00     0.089 H 
ENDROOT
TORSDOF 16
ENDMDL
MODEL 4
REMARK VINA RESULT:     -10.2      3.136      5.459
REMARK  0 active torsions:
REMARK  status: ('A' for Active; 'I' for Inactive)
REMARK       I    between atoms: C1_1  and  O3_35 
REMARK       I    between atoms: O18_2  and  C12_24 
REMARK       I    between atoms: O18_2  and  S26_27 
REMARK       I    between atoms: S20_5  and  N14_19 
REMARK       I    between atoms: S20_5  and  O28_18 
REMARK       I    between atoms: S20_5  and  O29_7 
REMARK       I    between atoms: S20_5  and  O30_30 
REMARK       I    between atoms: C27_6  and  C19_33 
REMARK       I    between atoms: O9_8  and  C4_32 
REMARK       I    between atoms: S16_9  and  O11_10 
REMARK       I    between atoms: O11_10  and  C6_15 
REMARK       I    between atoms: O25_14  and  C17_17 
REMARK       I    between atoms: C6_15  and  C2_23 
REMARK       I    between atoms: N14_19  and  C8_29 
REMARK       I    between atoms: C10_22  and  O15_26 
REMARK       I    between atoms: C7_25  and  O3_35 
ROOT
ATOM      1  C1  H1S d 501      36.977   2.730  14.712  0.00  0.00     0.095 C 
ATOM      2  O18 H1S d 501      34.371  -0.853  16.345  0.00  0.00    -0.244 OA
ATOM      3  O34 H1S d 501      37.672   1.310  19.524  0.00  0.00    -0.642 OA
ATOM      4  O35 H1S d 501      38.732  -0.602  19.203  0.00  0.00    -0.642 OA
ATOM      5  S20 H1S d 501      38.122   7.463  16.130  0.00  0.00     0.156 S 
ATOM      6  C27 H1S d 501      37.891   0.266  18.876  0.00  0.00     0.233 C 
ATOM      7  O29 H1S d 501      36.887   7.783  15.342  0.00  0.00    -0.296 OA
ATOM      8  O9  H1S d 501      36.471   3.570  16.922  0.00  0.00    -0.391 OA
ATOM      9  S16 H1S d 501      37.982   1.533  10.000  0.00  0.00     0.251 S 
ATOM     10  O11 H1S d 501      38.245   2.271  11.196  0.00  0.00    -0.254 OA
ATOM     11  O32 H1S d 501      32.730  -0.345  14.677  0.00  0.00    -0.572 OA
ATOM     12  O5  H1S d 501      37.924   4.335  13.130  0.00  0.00    -0.350 OA
ATOM     13  O23 H1S d 501      39.174   1.607   9.093  0.00  0.00    -0.572 OA
ATOM     14  O25 H1S d 501      37.440  -1.241  14.425  0.00  0.00    -0.389 OA
ATOM     15  C6  H1S d 501      37.386   2.127  12.330  0.00  0.00     0.067 C 
ATOM     16  O21 H1S d 501      37.708   0.100  10.349  0.00  0.00    -0.572 OA
ATOM     17  C17 H1S d 501      36.571  -1.407  15.551  0.00  0.00     0.086 C 
ATOM     18  O28 H1S d 501      39.335   7.814  15.321  0.00  0.00    -0.296 OA
ATOM     19  N14 H1S d 501      38.152   5.874  16.495  0.00  0.00    -0.210 NA
ATOM     20  O31 H1S d 501      32.171  -1.750  16.604  0.00  0.00    -0.572 OA
ATOM     21  C24 H1S d 501      37.345  -1.106  16.836  0.00  0.00    -0.034 C 
ATOM     22  C10 H1S d 501      38.492   5.141  14.174  0.00  0.00     0.147 C 
ATOM     23  C2  H1S d 501      37.902   2.949  13.511  0.00  0.00     0.091 C 
ATOM     24  C12 H1S d 501      35.393  -0.438  15.432  0.00  0.00     0.135 C 
ATOM     25  C7  H1S d 501      35.856   0.963  15.839  0.00  0.00     0.167 C 
ATOM     26  O15 H1S d 501      39.795   4.647  14.500  0.00  0.00    -0.369 OA
ATOM     27  S26 H1S d 501      33.250  -1.381  15.630  0.00  0.00     0.252 S 
ATOM     28  O22 H1S d 501      36.786   2.116   9.306  0.00  0.00    -0.572 OA
ATOM     29  C8  H1S d 501      37.582   5.073  15.403  0.00  0.00     0.081 C 
ATOM     30  O30 H1S d 501      38.123   8.257  17.403  0.00  0.00    -0.296 OA
ATOM     31  O13 H1S d 501      36.124   0.933  17.251  0.00  0.00    -0.311 OA
ATOM     32  C4  H1S d 501      37.437   3.624  15.868  0.00  0.00     0.083 C 
ATOM     33  C19 H1S d 501      37.083   0.031  17.598  0.00  0.00     0.147 C 
ATOM     34  O33 H1S d 501      33.668  -2.602  14.865  0.00  0.00    -0.572 OA
ATOM     35  O3  H1S d 501      37.054   1.338  15.112  0.00  0.00    -0.348 OA
ATOM     36  H   H1S d 501      35.969   2.977  14.452  0.00  0.00     0.091 H 
ATOM     37  H   H1S d 501      36.887   7.270  14.519  0.00  0.00     0.231 HD
ATOM     38  H   H1S d 501      36.373   2.653  17.224  0.00  0.00     0.210 HD
ATOM     39  H   H1S d 501      36.951  -1.431  13.609  0.00  0.00     0.210 HD
ATOM     40  H   H1S d 501      37.346   1.095  12.611  0.00  0.00     0.080 H 
ATOM     41  H   H1S d 501      36.410   2.479  12.067  0.00  0.00     0.080 H 
ATOM     42  H   H1S d 501      36.207  -2.413  15.575  0.00  0.00     0.093 H 
ATOM     43  H   H1S d 501      39.334   7.301  14.498  0.00  0.00     0.231 HD
ATOM     44  H   H1S d 501      37.608   5.716  17.344  0.00  0.00     0.140 HD
ATOM     45  H   H1S d 501      38.080  -1.761  17.146  0.00  0.00     0.085 H 
ATOM     46  H   H1S d 501      38.577   6.157  13.849  0.00  0.00     0.131 H 
ATOM     47  H   H1S d 501      38.892   2.647  13.782  0.00  0.00     0.090 H 
ATOM     48  H   H1S d 501      35.025  -0.431  14.428  0.00  0.00     0.097 H 
ATOM     49  H   H1S d 501      35.099   1.685  15.610  0.00  0.00     0.134 H 
ATOM     50  H   H1S d 501      39.726   3.725  14.796  0.00  0.00     0.212 HD
ATOM     51  H   H1S d 501      36.621   5.463  15.139  0.00  0.00     0.076 H 
ATOM     52  H   H1S d 501      38.922   8.050  17.913  0.00  0.00     0.231 HD
ATOM     53  H   H1S d 501      38.385   3.271  16.215  0.00  0.00     0.089 H 
ENDROOT
TORSDOF 16
ENDMDL
MODEL 5
REMARK VINA RESULT:      -9.9      3.294      7.727
REMARK  0 active torsions:
REMARK  status: ('A' for Active; 'I' for Inactive)
REMARK       I    between atoms: C1_1  and  O3_35 
REMARK       I    between atoms: O18_2  and  C12_24 
REMARK       I    between atoms: O18_2  and  S26_27 
REMARK       I    between atoms: S20_5  and  N14_19 
REMARK       I    between atoms: S20_5  and  O28_18 
REMARK       I    between atoms: S20_5  and  O29_7 
REMARK       I    between atoms: S20_5  and  O30_30 
REMARK       I    between atoms: C27_6  and  C19_33 
REMARK       I    between atoms: O9_8  and  C4_32 
REMARK       I    between atoms: S16_9  and  O11_10 
REMARK       I    between atoms: O11_10  and  C6_15 
REMARK       I    between atoms: O25_14  and  C17_17 
REMARK       I    between atoms: C6_15  and  C2_23 
REMARK       I    between atoms: N14_19  and  C8_29 
REMARK       I    between atoms: C10_22  and  O15_26 
REMARK       I    between atoms: C7_25  and  O3_35 
ROOT
ATOM      1  C1  H1S d 501      37.927  -0.372  16.254  0.00  0.00     0.095 C 
ATOM      2  O18 H1S d 501      40.835   3.300  15.655  0.00  0.00    -0.244 OA
ATOM      3  O34 H1S d 501      38.561   1.391  11.548  0.00  0.00    -0.642 OA
ATOM      4  O35 H1S d 501      40.612   0.672  11.150  0.00  0.00    -0.642 OA
ATOM      5  S20 H1S d 501      33.190  -1.633  14.952  0.00  0.00     0.156 S 
ATOM      6  C27 H1S d 501      39.720   1.107  11.913  0.00  0.00     0.233 C 
ATOM      7  O29 H1S d 501      32.867  -0.952  16.248  0.00  0.00    -0.296 OA
ATOM      8  O9  H1S d 501      36.662   0.887  14.623  0.00  0.00    -0.391 OA
ATOM      9  S16 H1S d 501      40.037  -3.101  19.824  0.00  0.00     0.251 S 
ATOM     10  O11 H1S d 501      39.138  -2.944  18.723  0.00  0.00    -0.254 OA
ATOM     11  O32 H1S d 501      40.433   3.917  17.933  0.00  0.00    -0.572 OA
ATOM     12  O5  H1S d 501      36.746  -2.196  17.373  0.00  0.00    -0.350 OA
ATOM     13  O23 H1S d 501      40.264  -4.560  20.082  0.00  0.00    -0.572 OA
ATOM     14  O25 H1S d 501      41.913  -0.169  15.893  0.00  0.00    -0.389 OA
ATOM     15  C6  H1S d 501      38.980  -1.664  18.105  0.00  0.00     0.067 C 
ATOM     16  O21 H1S d 501      41.344  -2.441  19.499  0.00  0.00    -0.572 OA
ATOM     17  C17 H1S d 501      41.777   1.119  15.285  0.00  0.00     0.086 C 
ATOM     18  O28 H1S d 501      33.132  -3.120  15.141  0.00  0.00    -0.296 OA
ATOM     19  N14 H1S d 501      34.684  -1.205  14.456  0.00  0.00    -0.210 NA
ATOM     20  O31 H1S d 501      41.405   5.514  16.350  0.00  0.00    -0.572 OA
ATOM     21  C24 H1S d 501      41.351   0.947  13.825  0.00  0.00    -0.034 C 
ATOM     22  C10 H1S d 501      35.845  -2.386  16.273  0.00  0.00     0.147 C 
ATOM     23  C2  H1S d 501      38.032  -1.753  16.908  0.00  0.00     0.091 C 
ATOM     24  C12 H1S d 501      40.710   1.924  16.030  0.00  0.00     0.135 C 
ATOM     25  C7  H1S d 501      39.325   1.436  15.599  0.00  0.00     0.167 C 
ATOM     26  O15 H1S d 501      36.426  -3.297  15.335  0.00  0.00    -0.369 OA
ATOM     27  S26 H1S d 501      41.342   4.071  16.749  0.00  0.00     0.252 S 
ATOM     28  O22 H1S d 501      39.445  -2.462  21.047  0.00  0.00    -0.572 OA
ATOM     29  C8  H1S d 501      35.588  -1.034  15.602  0.00  0.00     0.081 C 
ATOM     30  O30 H1S d 501      32.193  -1.223  13.909  0.00  0.00    -0.296 OA
ATOM     31  O13 H1S d 501      39.140   1.826  14.228  0.00  0.00    -0.311 OA
ATOM     32  C4  H1S d 501      36.907  -0.434  15.113  0.00  0.00     0.083 C 
ATOM     33  C19 H1S d 501      40.076   1.301  13.389  0.00  0.00     0.147 C 
ATOM     34  O33 H1S d 501      42.718   3.593  17.108  0.00  0.00    -0.572 OA
ATOM     35  O3  H1S d 501      39.228  -0.006  15.726  0.00  0.00    -0.348 OA
ATOM     36  H   H1S d 501      37.611   0.355  16.973  0.00  0.00     0.091 H 
ATOM     37  H   H1S d 501      33.511  -1.218  16.922  0.00  0.00     0.231 HD
ATOM     38  H   H1S d 501      37.494   1.276  14.310  0.00  0.00     0.210 HD
ATOM     39  H   H1S d 501      42.183  -0.062  16.819  0.00  0.00     0.210 HD
ATOM     40  H   H1S d 501      39.935  -1.315  17.772  0.00  0.00     0.080 H 
ATOM     41  H   H1S d 501      38.565  -0.986  18.822  0.00  0.00     0.080 H 
ATOM     42  H   H1S d 501      42.713   1.637  15.330  0.00  0.00     0.093 H 
ATOM     43  H   H1S d 501      33.777  -3.385  15.816  0.00  0.00     0.231 HD
ATOM     44  H   H1S d 501      34.626  -0.325  13.942  0.00  0.00     0.140 HD
ATOM     45  H   H1S d 501      42.026   0.558  13.147  0.00  0.00     0.085 H 
ATOM     46  H   H1S d 501      34.918  -2.792  16.622  0.00  0.00     0.131 H 
ATOM     47  H   H1S d 501      38.398  -2.448  16.182  0.00  0.00     0.090 H 
ATOM     48  H   H1S d 501      40.834   1.805  17.086  0.00  0.00     0.097 H 
ATOM     49  H   H1S d 501      38.569   1.867  16.223  0.00  0.00     0.134 H 
ATOM     50  H   H1S d 501      37.267  -2.937  15.013  0.00  0.00     0.212 HD
ATOM     51  H   H1S d 501      35.139  -0.377  16.317  0.00  0.00     0.076 H 
ATOM     52  H   H1S d 501      32.402  -1.663  13.071  0.00  0.00     0.231 HD
ATOM     53  H   H1S d 501      37.304  -1.051  14.334  0.00  0.00     0.089 H 
ENDROOT
TORSDOF 16
ENDMDL
MODEL 6
REMARK VINA RESULT:      -9.9      3.371      5.486
REMARK  0 active torsions:
REMARK  status: ('A' for Active; 'I' for Inactive)
REMARK       I    between atoms: C1_1  and  O3_35 
REMARK       I    between atoms: O18_2  and  C12_24 
REMARK       I    between atoms: O18_2  and  S26_27 
REMARK       I    between atoms: S20_5  and  N14_19 
REMARK       I    between atoms: S20_5  and  O28_18 
REMARK       I    between atoms: S20_5  and  O29_7 
REMARK       I    between atoms: S20_5  and  O30_30 
REMARK       I    between atoms: C27_6  and  C19_33 
REMARK       I    between atoms: O9_8  and  C4_32 
REMARK       I    between atoms: S16_9  and  O11_10 
REMARK       I    between atoms: O11_10  and  C6_15 
REMARK       I    between atoms: O25_14  and  C17_17 
REMARK       I    between atoms: C6_15  and  C2_23 
REMARK       I    between atoms: N14_19  and  C8_29 
REMARK       I    between atoms: C10_22  and  O15_26 
REMARK       I    between atoms: C7_25  and  O3_35 
ROOT
ATOM      1  C1  H1S d 501      37.588   2.257  15.222  0.00  0.00     0.095 C 
ATOM      2  O18 H1S d 501      34.458  -1.094  16.351  0.00  0.00    -0.244 OA
ATOM      3  O34 H1S d 501      36.480   1.621  20.123  0.00  0.00    -0.642 OA
ATOM      4  O35 H1S d 501      37.522  -0.291  20.500  0.00  0.00    -0.642 OA
ATOM      5  S20 H1S d 501      38.305   7.180  16.207  0.00  0.00     0.156 S 
ATOM      6  C27 H1S d 501      36.881   0.494  19.765  0.00  0.00     0.233 C 
ATOM      7  O29 H1S d 501      37.442   7.342  14.991  0.00  0.00    -0.296 OA
ATOM      8  O9  H1S d 501      36.356   3.417  16.949  0.00  0.00    -0.391 OA
ATOM      9  S16 H1S d 501      40.165   0.366  11.422  0.00  0.00     0.251 S 
ATOM     10  O11 H1S d 501      40.008   1.289  12.504  0.00  0.00    -0.254 OA
ATOM     11  O32 H1S d 501      33.535  -0.893  14.151  0.00  0.00    -0.572 OA
ATOM     12  O5  H1S d 501      39.087   3.619  13.854  0.00  0.00    -0.350 OA
ATOM     13  O23 H1S d 501      41.603   0.329  11.000  0.00  0.00    -0.572 OA
ATOM     14  O25 H1S d 501      37.995  -1.697  15.735  0.00  0.00    -0.389 OA
ATOM     15  C6  H1S d 501      38.798   1.300  13.265  0.00  0.00     0.067 C 
ATOM     16  O21 H1S d 501      39.739  -1.001  11.867  0.00  0.00    -0.572 OA
ATOM     17  C17 H1S d 501      36.778  -1.709  16.488  0.00  0.00     0.086 C 
ATOM     18  O28 H1S d 501      39.737   7.431  15.839  0.00  0.00    -0.296 OA
ATOM     19  N14 H1S d 501      38.152   5.668  16.799  0.00  0.00    -0.210 NA
ATOM     20  O31 H1S d 501      32.282  -1.995  15.944  0.00  0.00    -0.572 OA
ATOM     21  C24 H1S d 501      37.053  -1.192  17.903  0.00  0.00    -0.034 C 
ATOM     22  C10 H1S d 501      39.272   4.591  14.894  0.00  0.00     0.147 C 
ATOM     23  C2  H1S d 501      38.887   2.310  14.411  0.00  0.00     0.091 C 
ATOM     24  C12 H1S d 501      35.750  -0.800  15.810  0.00  0.00     0.135 C 
ATOM     25  C7  H1S d 501      36.083   0.658  16.133  0.00  0.00     0.167 C 
ATOM     26  O15 H1S d 501      40.357   4.188  15.735  0.00  0.00    -0.369 OA
ATOM     27  S26 H1S d 501      33.648  -1.755  15.374  0.00  0.00     0.252 S 
ATOM     28  O22 H1S d 501      39.314   0.804  10.267  0.00  0.00    -0.572 OA
ATOM     29  C8  H1S d 501      37.982   4.693  15.712  0.00  0.00     0.081 C 
ATOM     30  O30 H1S d 501      37.878   8.162  17.257  0.00  0.00    -0.296 OA
ATOM     31  O13 H1S d 501      35.830   0.855  17.535  0.00  0.00    -0.311 OA
ATOM     32  C4  H1S d 501      37.635   3.330  16.313  0.00  0.00     0.083 C 
ATOM     33  C19 H1S d 501      36.573   0.043  18.336  0.00  0.00     0.147 C 
ATOM     34  O33 H1S d 501      34.272  -3.069  15.006  0.00  0.00    -0.572 OA
ATOM     35  O3  H1S d 501      37.473   0.946  15.833  0.00  0.00    -0.348 OA
ATOM     36  H   H1S d 501      36.746   2.434  14.585  0.00  0.00     0.091 H 
ATOM     37  H   H1S d 501      37.718   6.708  14.311  0.00  0.00     0.231 HD
ATOM     38  H   H1S d 501      36.127   2.556  17.334  0.00  0.00     0.210 HD
ATOM     39  H   H1S d 501      37.823  -2.025  14.838  0.00  0.00     0.210 HD
ATOM     40  H   H1S d 501      38.628   0.324  13.669  0.00  0.00     0.080 H 
ATOM     41  H   H1S d 501      37.991   1.582  12.621  0.00  0.00     0.080 H 
ATOM     42  H   H1S d 501      36.397  -2.708  16.537  0.00  0.00     0.093 H 
ATOM     43  H   H1S d 501      40.012   6.797  15.159  0.00  0.00     0.231 HD
ATOM     44  H   H1S d 501      37.337   5.630  17.412  0.00  0.00     0.140 HD
ATOM     45  H   H1S d 501      37.608  -1.772  18.551  0.00  0.00     0.085 H 
ATOM     46  H   H1S d 501      39.499   5.547  14.468  0.00  0.00     0.131 H 
ATOM     47  H   H1S d 501      39.705   2.078  15.060  0.00  0.00     0.090 H 
ATOM     48  H   H1S d 501      35.765  -0.959  14.752  0.00  0.00     0.097 H 
ATOM     49  H   H1S d 501      35.481   1.316  15.541  0.00  0.00     0.134 H 
ATOM     50  H   H1S d 501      40.158   3.322  16.125  0.00  0.00     0.212 HD
ATOM     51  H   H1S d 501      37.191   5.012  15.066  0.00  0.00     0.076 H 
ATOM     52  H   H1S d 501      38.436   8.057  18.043  0.00  0.00     0.231 HD
ATOM     53  H   H1S d 501      38.386   3.060  17.025  0.00  0.00     0.089 H 
ENDROOT
TORSDOF 16
ENDMDL
MODEL 7
REMARK VINA RESULT:      -9.9      3.396      7.384
REMARK  0 active torsions:
REMARK  status: ('A' for Active; 'I' for Inactive)
REMARK       I    between atoms: C1_1  and  O3_35 
REMARK       I    between atoms: O18_2  and  C12_24 
REMARK       I    between atoms: O18_2  and  S26_27 
REMARK       I    between atoms: S20_5  and  N14_19 
REMARK       I    between atoms: S20_5  and  O28_18 
REMARK       I    between atoms: S20_5  and  O29_7 
REMARK       I    between atoms: S20_5  and  O30_30 
REMARK       I    between atoms: C27_6  and  C19_33 
REMARK       I    between atoms: O9_8  and  C4_32 
REMARK       I    between atoms: S16_9  and  O11_10 
REMARK       I    between atoms: O11_10  and  C6_15 
REMARK       I    between atoms: O25_14  and  C17_17 
REMARK       I    between atoms: C6_15  and  C2_23 
REMARK       I    between atoms: N14_19  and  C8_29 
REMARK       I    between atoms: C10_22  and  O15_26 
REMARK       I    between atoms: C7_25  and  O3_35 
ROOT
ATOM      1  C1  H1S d 501      37.809   1.419  13.322  0.00  0.00     0.095 C 
ATOM      2  O18 H1S d 501      37.696   1.256  18.039  0.00  0.00    -0.244 OA
ATOM      3  O34 H1S d 501      35.561   5.247  15.760  0.00  0.00    -0.642 OA
ATOM      4  O35 H1S d 501      37.340   6.259  16.594  0.00  0.00    -0.642 OA
ATOM      5  S20 H1S d 501      34.516   2.136   9.532  0.00  0.00     0.156 S 
ATOM      6  C27 H1S d 501      36.715   5.236  16.235  0.00  0.00     0.233 C 
ATOM      7  O29 H1S d 501      34.373   0.647   9.643  0.00  0.00    -0.296 OA
ATOM      8  O9  H1S d 501      35.565   2.234  13.703  0.00  0.00    -0.391 OA
ATOM      9  S16 H1S d 501      42.217  -0.500  12.084  0.00  0.00     0.251 S 
ATOM     10  O11 H1S d 501      41.056   0.282  11.792  0.00  0.00    -0.254 OA
ATOM     11  O32 H1S d 501      37.891  -1.126  17.905  0.00  0.00    -0.572 OA
ATOM     12  O5  H1S d 501      38.364   0.797  11.024  0.00  0.00    -0.350 OA
ATOM     13  O23 H1S d 501      43.297  -0.186  11.092  0.00  0.00    -0.572 OA
ATOM     14  O25 H1S d 501      40.524   2.451  16.084  0.00  0.00    -0.389 OA
ATOM     15  C6  H1S d 501      39.995   0.374  12.746  0.00  0.00     0.067 C 
ATOM     16  O21 H1S d 501      42.700  -0.178  13.468  0.00  0.00    -0.572 OA
ATOM     17  C17 H1S d 501      39.478   2.535  17.057  0.00  0.00     0.086 C 
ATOM     18  O28 H1S d 501      35.374   2.467   8.347  0.00  0.00    -0.296 OA
ATOM     19  N14 H1S d 501      35.203   2.731  10.886  0.00  0.00    -0.210 NA
ATOM     20  O31 H1S d 501      37.137  -0.041  19.968  0.00  0.00    -0.572 OA
ATOM     21  C24 H1S d 501      38.721   3.852  16.873  0.00  0.00    -0.034 C 
ATOM     22  C10 H1S d 501      37.395   1.699  10.468  0.00  0.00     0.147 C 
ATOM     23  C2  H1S d 501      38.900   1.319  12.251  0.00  0.00     0.091 C 
ATOM     24  C12 H1S d 501      38.510   1.365  16.868  0.00  0.00     0.135 C 
ATOM     25  C7  H1S d 501      37.595   1.662  15.677  0.00  0.00     0.167 C 
ATOM     26  O15 H1S d 501      37.991   2.989  10.295  0.00  0.00    -0.369 OA
ATOM     27  S26 H1S d 501      38.044   0.083  18.781  0.00  0.00     0.252 S 
ATOM     28  O22 H1S d 501      41.870  -1.958  12.003  0.00  0.00    -0.572 OA
ATOM     29  C8  H1S d 501      36.202   1.795  11.422  0.00  0.00     0.081 C 
ATOM     30  O30 H1S d 501      33.161   2.757   9.357  0.00  0.00    -0.296 OA
ATOM     31  O13 H1S d 501      36.735   2.750  16.057  0.00  0.00    -0.311 OA
ATOM     32  C4  H1S d 501      36.666   2.291  12.792  0.00  0.00     0.083 C 
ATOM     33  C19 H1S d 501      37.414   3.883  16.388  0.00  0.00     0.147 C 
ATOM     34  O33 H1S d 501      39.466   0.186  19.249  0.00  0.00    -0.572 OA
ATOM     35  O3  H1S d 501      38.376   2.029  14.510  0.00  0.00    -0.348 OA
ATOM     36  H   H1S d 501      37.432   0.446  13.559  0.00  0.00     0.091 H 
ATOM     37  H   H1S d 501      35.248   0.245   9.755  0.00  0.00     0.231 HD
ATOM     38  H   H1S d 501      35.850   2.547  14.576  0.00  0.00     0.210 HD
ATOM     39  H   H1S d 501      41.006   1.617  16.198  0.00  0.00     0.210 HD
ATOM     40  H   H1S d 501      40.387   0.743  13.671  0.00  0.00     0.080 H 
ATOM     41  H   H1S d 501      39.572  -0.600  12.883  0.00  0.00     0.080 H 
ATOM     42  H   H1S d 501      39.901   2.496  18.040  0.00  0.00     0.093 H 
ATOM     43  H   H1S d 501      36.249   2.065   8.459  0.00  0.00     0.231 HD
ATOM     44  H   H1S d 501      34.479   2.885  11.587  0.00  0.00     0.140 HD
ATOM     45  H   H1S d 501      39.189   4.740  17.115  0.00  0.00     0.085 H 
ATOM     46  H   H1S d 501      37.062   1.340   9.516  0.00  0.00     0.131 H 
ATOM     47  H   H1S d 501      39.293   2.298  12.071  0.00  0.00     0.090 H 
ATOM     48  H   H1S d 501      39.058   0.462  16.699  0.00  0.00     0.097 H 
ATOM     49  H   H1S d 501      37.023   0.794  15.423  0.00  0.00     0.134 H 
ATOM     50  H   H1S d 501      38.296   3.321  11.154  0.00  0.00     0.212 HD
ATOM     51  H   H1S d 501      35.764   0.824  11.521  0.00  0.00     0.076 H 
ATOM     52  H   H1S d 501      33.254   3.719   9.286  0.00  0.00     0.231 HD
ATOM     53  H   H1S d 501      37.019   3.296  12.699  0.00  0.00     0.089 H 
ENDROOT
TORSDOF 16
ENDMDL
MODEL 8
REMARK VINA RESULT:      -9.7      1.452      1.584
REMARK  0 active torsions:
REMARK  status: ('A' for Active; 'I' for Inactive)
REMARK       I    between atoms: C1_1  and  O3_35 
REMARK       I    between atoms: O18_2  and  C12_24 
REMARK       I    between atoms: O18_2  and  S26_27 
REMARK       I    between atoms: S20_5  and  N14_19 
REMARK       I    between atoms: S20_5  and  O28_18 
REMARK       I    between atoms: S20_5  and  O29_7 
REMARK       I    between atoms: S20_5  and  O30_30 
REMARK       I    between atoms: C27_6  and  C19_33 
REMARK       I    between atoms: O9_8  and  C4_32 
REMARK       I    between atoms: S16_9  and  O11_10 
REMARK       I    between atoms: O11_10  and  C6_15 
REMARK       I    between atoms: O25_14  and  C17_17 
REMARK       I    between atoms: C6_15  and  C2_23 
REMARK       I    between atoms: N14_19  and  C8_29 
REMARK       I    between atoms: C10_22  and  O15_26 
REMARK       I    between atoms: C7_25  and  O3_35 
ROOT
ATOM      1  C1  H1S d 501      37.594   1.362  15.424  0.00  0.00     0.095 C 
ATOM      2  O18 H1S d 501      34.000   3.862  13.655  0.00  0.00    -0.244 OA
ATOM      3  O34 H1S d 501      32.919  -0.497  16.003  0.00  0.00    -0.642 OA
ATOM      4  O35 H1S d 501      32.506  -1.133  13.927  0.00  0.00    -0.642 OA
ATOM      5  S20 H1S d 501      38.813  -0.811  19.842  0.00  0.00     0.156 S 
ATOM      6  C27 H1S d 501      33.030  -0.366  14.767  0.00  0.00     0.233 C 
ATOM      7  O29 H1S d 501      39.401   0.541  20.115  0.00  0.00    -0.296 OA
ATOM      8  O9  H1S d 501      35.985   1.075  17.205  0.00  0.00    -0.391 OA
ATOM      9  S16 H1S d 501      41.290   1.957  12.162  0.00  0.00     0.251 S 
ATOM     10  O11 H1S d 501      40.656   1.255  13.235  0.00  0.00    -0.254 OA
ATOM     11  O32 H1S d 501      35.355   5.827  13.832  0.00  0.00    -0.572 OA
ATOM     12  O5  H1S d 501      39.894   0.698  15.920  0.00  0.00    -0.350 OA
ATOM     13  O23 H1S d 501      42.339   1.084  11.541  0.00  0.00    -0.572 OA
ATOM     14  O25 H1S d 501      36.071   1.575  11.723  0.00  0.00    -0.389 OA
ATOM     15  C6  H1S d 501      39.444   1.757  13.803  0.00  0.00     0.067 C 
ATOM     16  O21 H1S d 501      40.264   2.319  11.129  0.00  0.00    -0.572 OA
ATOM     17  C17 H1S d 501      34.854   2.092  12.271  0.00  0.00     0.086 C 
ATOM     18  O28 H1S d 501      39.911  -1.772  19.497  0.00  0.00    -0.296 OA
ATOM     19  N14 H1S d 501      37.759  -0.719  18.600  0.00  0.00    -0.210 NA
ATOM     20  O31 H1S d 501      32.927   5.995  13.552  0.00  0.00    -0.572 OA
ATOM     21  C24 H1S d 501      34.039   0.942  12.866  0.00  0.00    -0.034 C 
ATOM     22  C10 H1S d 501      39.483  -0.258  16.909  0.00  0.00     0.147 C 
ATOM     23  C2  H1S d 501      38.912   0.806  14.876  0.00  0.00     0.091 C 
ATOM     24  C12 H1S d 501      35.180   3.103  13.372  0.00  0.00     0.135 C 
ATOM     25  C7  H1S d 501      35.576   2.346  14.643  0.00  0.00     0.167 C 
ATOM     26  O15 H1S d 501      39.225  -1.515  16.275  0.00  0.00    -0.369 OA
ATOM     27  S26 H1S d 501      34.150   5.206  13.189  0.00  0.00     0.252 S 
ATOM     28  O22 H1S d 501      41.928   3.208  12.693  0.00  0.00    -0.572 OA
ATOM     29  C8  H1S d 501      38.215   0.254  17.597  0.00  0.00     0.081 C 
ATOM     30  O30 H1S d 501      38.089  -1.297  21.062  0.00  0.00    -0.296 OA
ATOM     31  O13 H1S d 501      34.398   1.685  15.133  0.00  0.00    -0.311 OA
ATOM     32  C4  H1S d 501      37.107   0.462  16.564  0.00  0.00     0.083 C 
ATOM     33  C19 H1S d 501      33.864   0.805  14.242  0.00  0.00     0.147 C 
ATOM     34  O33 H1S d 501      34.319   5.208  11.699  0.00  0.00    -0.572 OA
ATOM     35  O3  H1S d 501      36.612   1.371  14.356  0.00  0.00    -0.348 OA
ATOM     36  H   H1S d 501      37.737   2.356  15.793  0.00  0.00     0.091 H 
ATOM     37  H   H1S d 501      39.870   0.855  19.326  0.00  0.00     0.231 HD
ATOM     38  H   H1S d 501      35.275   1.211  16.557  0.00  0.00     0.210 HD
ATOM     39  H   H1S d 501      36.590   2.303  11.345  0.00  0.00     0.210 HD
ATOM     40  H   H1S d 501      38.711   1.860  13.030  0.00  0.00     0.080 H 
ATOM     41  H   H1S d 501      39.644   2.706  14.254  0.00  0.00     0.080 H 
ATOM     42  H   H1S d 501      34.290   2.572  11.498  0.00  0.00     0.093 H 
ATOM     43  H   H1S d 501      40.380  -1.458  18.708  0.00  0.00     0.231 HD
ATOM     44  H   H1S d 501      36.848  -0.430  18.956  0.00  0.00     0.140 HD
ATOM     45  H   H1S d 501      33.608   0.250  12.232  0.00  0.00     0.085 H 
ATOM     46  H   H1S d 501      40.256  -0.389  17.638  0.00  0.00     0.131 H 
ATOM     47  H   H1S d 501      38.730  -0.166  14.468  0.00  0.00     0.090 H 
ATOM     48  H   H1S d 501      35.977   3.742  13.057  0.00  0.00     0.097 H 
ATOM     49  H   H1S d 501      35.965   3.025  15.373  0.00  0.00     0.134 H 
ATOM     50  H   H1S d 501      38.525  -1.405  15.612  0.00  0.00     0.212 HD
ATOM     51  H   H1S d 501      38.437   1.184  18.076  0.00  0.00     0.076 H 
ATOM     52  H   H1S d 501      37.708  -2.171  20.886  0.00  0.00     0.231 HD
ATOM     53  H   H1S d 501      36.827  -0.486  16.154  0.00  0.00     0.089 H 
ENDROOT
TORSDOF 16
ENDMDL
MODEL 9
REMARK VINA RESULT:      -9.6      3.130      7.142
REMARK  0 active torsions:
REMARK  status: ('A' for Active; 'I' for Inactive)
REMARK       I    between atoms: C1_1  and  O3_35 
REMARK       I    between atoms: O18_2  and  C12_24 
REMARK       I    between atoms: O18_2  and  S26_27 
REMARK       I    between atoms: S20_5  and  N14_19 
REMARK       I    between atoms: S20_5  and  O28_18 
REMARK       I    between atoms: S20_5  and  O29_7 
REMARK       I    between atoms: S20_5  and  O30_30 
REMARK       I    between atoms: C27_6  and  C19_33 
REMARK       I    between atoms: O9_8  and  C4_32 
REMARK       I    between atoms: S16_9  and  O11_10 
REMARK       I    between atoms: O11_10  and  C6_15 
REMARK       I    between atoms: O25_14  and  C17_17 
REMARK       I    between atoms: C6_15  and  C2_23 
REMARK       I    between atoms: N14_19  and  C8_29 
REMARK       I    between atoms: C10_22  and  O15_26 
REMARK       I    between atoms: C7_25  and  O3_35 
ROOT
ATOM      1  C1  H1S d 501      35.613   3.468  13.776  0.00  0.00     0.095 C 
ATOM      2  O18 H1S d 501      38.375  -0.306  13.126  0.00  0.00    -0.244 OA
ATOM      3  O34 H1S d 501      33.475  -1.109  14.140  0.00  0.00    -0.642 OA
ATOM      4  O35 H1S d 501      34.321  -1.767  16.072  0.00  0.00    -0.642 OA
ATOM      5  S20 H1S d 501      31.184   5.200  12.014  0.00  0.00     0.156 S 
ATOM      6  C27 H1S d 501      34.390  -1.145  14.988  0.00  0.00     0.233 C 
ATOM      7  O29 H1S d 501      32.069   5.819  10.974  0.00  0.00    -0.296 OA
ATOM      8  O9  H1S d 501      34.110   2.081  12.486  0.00  0.00    -0.391 OA
ATOM      9  S16 H1S d 501      38.477   6.749  16.158  0.00  0.00     0.251 S 
ATOM     10  O11 H1S d 501      37.198   6.247  15.761  0.00  0.00    -0.254 OA
ATOM     11  O32 H1S d 501      39.844   1.064  11.824  0.00  0.00    -0.572 OA
ATOM     12  O5  H1S d 501      34.966   5.809  14.050  0.00  0.00    -0.350 OA
ATOM     13  O23 H1S d 501      38.307   7.715  17.293  0.00  0.00    -0.572 OA
ATOM     14  O25 H1S d 501      38.075   1.515  16.263  0.00  0.00    -0.389 OA
ATOM     15  C6  H1S d 501      37.112   5.112  14.896  0.00  0.00     0.067 C 
ATOM     16  O21 H1S d 501      39.346   5.609  16.599  0.00  0.00    -0.572 OA
ATOM     17  C17 H1S d 501      38.012   0.373  15.403  0.00  0.00     0.086 C 
ATOM     18  O28 H1S d 501      30.770   6.247  13.004  0.00  0.00    -0.296 OA
ATOM     19  N14 H1S d 501      31.984   4.006  12.785  0.00  0.00    -0.210 NA
ATOM     20  O31 H1S d 501      39.966  -1.380  11.702  0.00  0.00    -0.572 OA
ATOM     21  C24 H1S d 501      36.695  -0.368  15.641  0.00  0.00    -0.034 C 
ATOM     22  C10 H1S d 501      33.569   5.517  13.904  0.00  0.00     0.147 C 
ATOM     23  C2  H1S d 501      35.654   4.710  14.671  0.00  0.00     0.091 C 
ATOM     24  C12 H1S d 501      38.079   0.830  13.944  0.00  0.00     0.135 C 
ATOM     25  C7  H1S d 501      36.710   1.373  13.529  0.00  0.00     0.167 C 
ATOM     26  O15 H1S d 501      33.016   5.182  15.180  0.00  0.00    -0.369 OA
ATOM     27  S26 H1S d 501      39.704  -0.211  12.603  0.00  0.00     0.252 S 
ATOM     28  O22 H1S d 501      39.121   7.449  14.997  0.00  0.00    -0.572 OA
ATOM     29  C8  H1S d 501      33.406   4.340  12.937  0.00  0.00     0.081 C 
ATOM     30  O30 H1S d 501      29.965   4.625  11.355  0.00  0.00    -0.296 OA
ATOM     31  O13 H1S d 501      35.800   0.260  13.490  0.00  0.00    -0.311 OA
ATOM     32  C4  H1S d 501      34.153   3.117  13.471  0.00  0.00     0.083 C 
ATOM     33  C19 H1S d 501      35.679  -0.378  14.686  0.00  0.00     0.147 C 
ATOM     34  O33 H1S d 501      40.692  -0.221  13.732  0.00  0.00    -0.572 OA
ATOM     35  O3  H1S d 501      36.242   2.366  14.479  0.00  0.00    -0.348 OA
ATOM     36  H   H1S d 501      36.132   3.655  12.858  0.00  0.00     0.091 H 
ATOM     37  H   H1S d 501      32.857   6.191  11.399  0.00  0.00     0.231 HD
ATOM     38  H   H1S d 501      34.581   1.300  12.817  0.00  0.00     0.210 HD
ATOM     39  H   H1S d 501      38.910   1.986  16.114  0.00  0.00     0.210 HD
ATOM     40  H   H1S d 501      37.638   4.292  15.339  0.00  0.00     0.080 H 
ATOM     41  H   H1S d 501      37.547   5.367  13.952  0.00  0.00     0.080 H 
ATOM     42  H   H1S d 501      38.836  -0.278  15.613  0.00  0.00     0.093 H 
ATOM     43  H   H1S d 501      31.558   6.619  13.430  0.00  0.00     0.231 HD
ATOM     44  H   H1S d 501      31.898   3.144  12.246  0.00  0.00     0.140 HD
ATOM     45  H   H1S d 501      36.555  -0.873  16.530  0.00  0.00     0.085 H 
ATOM     46  H   H1S d 501      33.053   6.370  13.515  0.00  0.00     0.131 H 
ATOM     47  H   H1S d 501      35.175   4.478  15.599  0.00  0.00     0.090 H 
ATOM     48  H   H1S d 501      38.828   1.585  13.832  0.00  0.00     0.097 H 
ATOM     49  H   H1S d 501      36.773   1.847  12.571  0.00  0.00     0.134 H 
ATOM     50  H   H1S d 501      33.478   4.409  15.540  0.00  0.00     0.212 HD
ATOM     51  H   H1S d 501      33.811   4.620  11.987  0.00  0.00     0.076 H 
ATOM     52  H   H1S d 501      29.392   4.224  12.028  0.00  0.00     0.231 HD
ATOM     53  H   H1S d 501      33.686   2.790  14.376  0.00  0.00     0.089 H 
ENDROOT
TORSDOF 16
ENDMDL
MODEL 10
REMARK VINA RESULT:      -9.5      3.453      6.425
REMARK  0 active torsions:
REMARK  status: ('A' for Active; 'I' for Inactive)
REMARK       I    between atoms: C1_1  and  O3_35 
REMARK       I    between atoms: O18_2  and  C12_24 
REMARK       I    between atoms: O18_2  and  S26_27 
REMARK       I    between atoms: S20_5  and  N14_19 
REMARK       I    between atoms: S20_5  and  O28_18 
REMARK       I    between atoms: S20_5  and  O29_7 
REMARK       I    between atoms: S20_5  and  O30_30 
REMARK       I    between atoms: C27_6  and  C19_33 
REMARK       I    between atoms: O9_8  and  C4_32 
REMARK       I    between atoms: S16_9  and  O11_10 
REMARK       I    between atoms: O11_10  and  C6_15 
REMARK       I    between atoms: O25_14  and  C17_17 
REMARK       I    between atoms: C6_15  and  C2_23 
REMARK       I    between atoms: N14_19  and  C8_29 
REMARK       I    between atoms: C10_22  and  O15_26 
REMARK       I    between atoms: C7_25  and  O3_35 
ROOT
ATOM      1  C1  H1S d 501      37.496   3.776  14.525  0.00  0.00     0.095 C 
ATOM      2  O18 H1S d 501      35.015   3.079  10.568  0.00  0.00    -0.244 OA
ATOM      3  O34 H1S d 501      35.654   7.852  12.148  0.00  0.00    -0.642 OA
ATOM      4  O35 H1S d 501      33.508   7.631  12.631  0.00  0.00    -0.642 OA
ATOM      5  S20 H1S d 501      41.405   6.638  16.024  0.00  0.00     0.156 S 
ATOM      6  C27 H1S d 501      34.639   7.160  12.372  0.00  0.00     0.233 C 
ATOM      7  O29 H1S d 501      42.195   5.460  15.539  0.00  0.00    -0.296 OA
ATOM      8  O9  H1S d 501      38.336   5.608  13.190  0.00  0.00    -0.391 OA
ATOM      9  S16 H1S d 501      36.281  -0.025  17.478  0.00  0.00     0.251 S 
ATOM     10  O11 H1S d 501      36.807   1.288  17.265  0.00  0.00    -0.254 OA
ATOM     11  O32 H1S d 501      36.175   1.006  10.273  0.00  0.00    -0.572 OA
ATOM     12  O5  H1S d 501      38.734   3.263  16.568  0.00  0.00    -0.350 OA
ATOM     13  O23 H1S d 501      35.970  -0.212  18.933  0.00  0.00    -0.572 OA
ATOM     14  O25 H1S d 501      33.650   2.816  13.932  0.00  0.00    -0.389 OA
ATOM     15  C6  H1S d 501      36.920   1.807  15.938  0.00  0.00     0.067 C 
ATOM     16  O21 H1S d 501      35.028  -0.198  16.672  0.00  0.00    -0.572 OA
ATOM     17  C17 H1S d 501      33.747   3.319  12.596  0.00  0.00     0.086 C 
ATOM     18  O28 H1S d 501      41.337   6.611  17.522  0.00  0.00    -0.296 OA
ATOM     19  N14 H1S d 501      39.895   6.587  15.409  0.00  0.00    -0.210 NA
ATOM     20  O31 H1S d 501      34.963   2.043   8.415  0.00  0.00    -0.572 OA
ATOM     21  C24 H1S d 501      33.674   4.848  12.624  0.00  0.00    -0.034 C 
ATOM     22  C10 H1S d 501      39.220   4.607  16.700  0.00  0.00     0.147 C 
ATOM     23  C2  H1S d 501      37.432   3.249  15.961  0.00  0.00     0.091 C 
ATOM     24  C12 H1S d 501      35.082   2.888  11.985  0.00  0.00     0.135 C 
ATOM     25  C7  H1S d 501      36.195   3.783  12.535  0.00  0.00     0.167 C 
ATOM     26  O15 H1S d 501      38.270   5.385  17.434  0.00  0.00    -0.369 OA
ATOM     27  S26 H1S d 501      34.970   1.816   9.896  0.00  0.00     0.252 S 
ATOM     28  O22 H1S d 501      37.296  -1.044  17.048  0.00  0.00    -0.572 OA
ATOM     29  C8  H1S d 501      39.418   5.202  15.303  0.00  0.00     0.081 C 
ATOM     30  O30 H1S d 501      42.072   7.905  15.577  0.00  0.00    -0.296 OA
ATOM     31  O13 H1S d 501      35.991   5.101  11.997  0.00  0.00    -0.311 OA
ATOM     32  C4  H1S d 501      38.096   5.185  14.535  0.00  0.00     0.083 C 
ATOM     33  C19 H1S d 501      34.785   5.637  12.331  0.00  0.00     0.147 C 
ATOM     34  O33 H1S d 501      33.725   1.078  10.293  0.00  0.00    -0.572 OA
ATOM     35  O3  H1S d 501      36.150   3.824  13.985  0.00  0.00    -0.348 OA
ATOM     36  H   H1S d 501      38.105   3.135  13.922  0.00  0.00     0.091 H 
ATOM     37  H   H1S d 501      41.764   4.640  15.828  0.00  0.00     0.231 HD
ATOM     38  H   H1S d 501      37.502   5.602  12.694  0.00  0.00     0.210 HD
ATOM     39  H   H1S d 501      33.695   1.847  13.917  0.00  0.00     0.210 HD
ATOM     40  H   H1S d 501      35.958   1.784  15.469  0.00  0.00     0.080 H 
ATOM     41  H   H1S d 501      37.615   1.205  15.393  0.00  0.00     0.080 H 
ATOM     42  H   H1S d 501      32.941   2.930  12.008  0.00  0.00     0.093 H 
ATOM     43  H   H1S d 501      40.906   5.791  17.811  0.00  0.00     0.231 HD
ATOM     44  H   H1S d 501      39.898   7.012  14.482  0.00  0.00     0.140 HD
ATOM     45  H   H1S d 501      32.781   5.305  12.866  0.00  0.00     0.085 H 
ATOM     46  H   H1S d 501      40.153   4.612  17.224  0.00  0.00     0.131 H 
ATOM     47  H   H1S d 501      36.777   3.877  16.527  0.00  0.00     0.090 H 
ATOM     48  H   H1S d 501      35.278   1.863  12.221  0.00  0.00     0.097 H 
ATOM     49  H   H1S d 501      37.153   3.400  12.252  0.00  0.00     0.134 H 
ATOM     50  H   H1S d 501      37.421   5.386  16.965  0.00  0.00     0.212 HD
ATOM     51  H   H1S d 501      40.143   4.613  14.781  0.00  0.00     0.076 H 
ATOM     52  H   H1S d 501      41.562   8.668  15.891  0.00  0.00     0.231 HD
ATOM     53  H   H1S d 501      37.405   5.847  15.014  0.00  0.00     0.089 H 
ENDROOT
TORSDOF 16
ENDMDL
MODEL 11
REMARK VINA RESULT:      -9.5      2.628      8.230
REMARK  0 active torsions:
REMARK  status: ('A' for Active; 'I' for Inactive)
REMARK       I    between atoms: C1_1  and  O3_35 
REMARK       I    between atoms: O18_2  and  C12_24 
REMARK       I    between atoms: O18_2  and  S26_27 
REMARK       I    between atoms: S20_5  and  N14_19 
REMARK       I    between atoms: S20_5  and  O28_18 
REMARK       I    between atoms: S20_5  and  O29_7 
REMARK       I    between atoms: S20_5  and  O30_30 
REMARK       I    between atoms: C27_6  and  C19_33 
REMARK       I    between atoms: O9_8  and  C4_32 
REMARK       I    between atoms: S16_9  and  O11_10 
REMARK       I    between atoms: O11_10  and  C6_15 
REMARK       I    between atoms: O25_14  and  C17_17 
REMARK       I    between atoms: C6_15  and  C2_23 
REMARK       I    between atoms: N14_19  and  C8_29 
REMARK       I    between atoms: C10_22  and  O15_26 
REMARK       I    between atoms: C7_25  and  O3_35 
ROOT
ATOM      1  C1  H1S d 501      35.715   2.494  14.140  0.00  0.00     0.095 C 
ATOM      2  O18 H1S d 501      39.898   1.909  16.252  0.00  0.00    -0.244 OA
ATOM      3  O34 H1S d 501      39.809   4.380  11.828  0.00  0.00    -0.642 OA
ATOM      4  O35 H1S d 501      40.748   2.503  11.136  0.00  0.00    -0.642 OA
ATOM      5  S20 H1S d 501      33.046   6.315  12.139  0.00  0.00     0.156 S 
ATOM      6  C27 H1S d 501      40.078   3.168  11.959  0.00  0.00     0.233 C 
ATOM      7  O29 H1S d 501      32.539   6.432  13.546  0.00  0.00    -0.296 OA
ATOM      8  O9  H1S d 501      36.695   4.662  13.710  0.00  0.00    -0.391 OA
ATOM      9  S16 H1S d 501      33.218  -1.694  15.073  0.00  0.00     0.251 S 
ATOM     10  O11 H1S d 501      33.436  -0.498  14.320  0.00  0.00    -0.254 OA
ATOM     11  O32 H1S d 501      38.750   1.722  18.345  0.00  0.00    -0.572 OA
ATOM     12  O5  H1S d 501      33.318   2.281  13.714  0.00  0.00    -0.350 OA
ATOM     13  O23 H1S d 501      32.317  -2.613  14.304  0.00  0.00    -0.572 OA
ATOM     14  O25 H1S d 501      38.271  -0.593  14.167  0.00  0.00    -0.389 OA
ATOM     15  C6  H1S d 501      34.471   0.411  14.703  0.00  0.00     0.067 C 
ATOM     16  O21 H1S d 501      34.532  -2.374  15.321  0.00  0.00    -0.572 OA
ATOM     17  C17 H1S d 501      39.318   0.298  14.564  0.00  0.00     0.086 C 
ATOM     18  O28 H1S d 501      32.009   5.643  11.290  0.00  0.00    -0.296 OA
ATOM     19  N14 H1S d 501      34.422   5.439  12.115  0.00  0.00    -0.210 NA
ATOM     20  O31 H1S d 501      41.158   2.169  18.266  0.00  0.00    -0.572 OA
ATOM     21  C24 H1S d 501      39.806   1.082  13.344  0.00  0.00    -0.034 C 
ATOM     22  C10 H1S d 501      33.325   3.326  12.730  0.00  0.00     0.147 C 
ATOM     23  C2  H1S d 501      34.569   1.573  13.714  0.00  0.00     0.091 C 
ATOM     24  C12 H1S d 501      38.784   1.277  15.612  0.00  0.00     0.135 C 
ATOM     25  C7  H1S d 501      37.960   2.359  14.910  0.00  0.00     0.167 C 
ATOM     26  O15 H1S d 501      33.633   2.770  11.449  0.00  0.00    -0.369 OA
ATOM     27  S26 H1S d 501      40.024   1.448  17.601  0.00  0.00     0.252 S 
ATOM     28  O22 H1S d 501      32.578  -1.347  16.385  0.00  0.00    -0.572 OA
ATOM     29  C8  H1S d 501      34.379   4.367  13.119  0.00  0.00     0.081 C 
ATOM     30  O30 H1S d 501      33.329   7.684  11.595  0.00  0.00    -0.296 OA
ATOM     31  O13 H1S d 501      38.872   3.160  14.139  0.00  0.00    -0.311 OA
ATOM     32  C4  H1S d 501      35.756   3.708  13.206  0.00  0.00     0.083 C 
ATOM     33  C19 H1S d 501      39.555   2.446  13.203  0.00  0.00     0.147 C 
ATOM     34  O33 H1S d 501      40.301  -0.027  17.606  0.00  0.00    -0.572 OA
ATOM     35  O3  H1S d 501      36.964   1.761  14.041  0.00  0.00    -0.348 OA
ATOM     36  H   H1S d 501      35.569   2.826  15.147  0.00  0.00     0.091 H 
ATOM     37  H   H1S d 501      32.356   5.547  13.898  0.00  0.00     0.231 HD
ATOM     38  H   H1S d 501      37.573   4.253  13.768  0.00  0.00     0.210 HD
ATOM     39  H   H1S d 501      37.961  -1.091  14.939  0.00  0.00     0.210 HD
ATOM     40  H   H1S d 501      35.406  -0.110  14.726  0.00  0.00     0.080 H 
ATOM     41  H   H1S d 501      34.241   0.803  15.672  0.00  0.00     0.080 H 
ATOM     42  H   H1S d 501      40.129  -0.265  14.979  0.00  0.00     0.093 H 
ATOM     43  H   H1S d 501      31.826   4.758  11.642  0.00  0.00     0.231 HD
ATOM     44  H   H1S d 501      35.212   6.052  12.314  0.00  0.00     0.140 HD
ATOM     45  H   H1S d 501      40.334   0.589  12.607  0.00  0.00     0.085 H 
ATOM     46  H   H1S d 501      32.363   3.794  12.684  0.00  0.00     0.131 H 
ATOM     47  H   H1S d 501      34.766   1.216  12.725  0.00  0.00     0.090 H 
ATOM     48  H   H1S d 501      38.181   0.755  16.326  0.00  0.00     0.097 H 
ATOM     49  H   H1S d 501      37.443   2.958  15.631  0.00  0.00     0.134 H 
ATOM     50  H   H1S d 501      34.504   2.344  11.482  0.00  0.00     0.212 HD
ATOM     51  H   H1S d 501      34.118   4.779  14.071  0.00  0.00     0.076 H 
ATOM     52  H   H1S d 501      33.657   7.608  10.685  0.00  0.00     0.231 HD
ATOM     53  H   H1S d 501      36.049   3.378  12.232  0.00  0.00     0.089 H 
ENDROOT
TORSDOF 16
ENDMDL
MODEL 12
REMARK VINA RESULT:      -9.5      2.447      6.020
REMARK  0 active torsions:
REMARK  status: ('A' for Active; 'I' for Inactive)
REMARK       I    between atoms: C1_1  and  O3_35 
REMARK       I    between atoms: O18_2  and  C12_24 
REMARK       I    between atoms: O18_2  and  S26_27 
REMARK       I    between atoms: S20_5  and  N14_19 
REMARK       I    between atoms: S20_5  and  O28_18 
REMARK       I    between atoms: S20_5  and  O29_7 
REMARK       I    between atoms: S20_5  and  O30_30 
REMARK       I    between atoms: C27_6  and  C19_33 
REMARK       I    between atoms: O9_8  and  C4_32 
REMARK       I    between atoms: S16_9  and  O11_10 
REMARK       I    between atoms: O11_10  and  C6_15 
REMARK       I    between atoms: O25_14  and  C17_17 
REMARK       I    between atoms: C6_15  and  C2_23 
REMARK       I    between atoms: N14_19  and  C8_29 
REMARK       I    between atoms: C10_22  and  O15_26 
REMARK       I    between atoms: C7_25  and  O3_35 
ROOT
ATOM      1  C1  H1S d 501      37.222   1.008  15.617  0.00  0.00     0.095 C 
ATOM      2  O18 H1S d 501      37.926   2.490  11.189  0.00  0.00    -0.244 OA
ATOM      3  O34 H1S d 501      38.763   5.786  14.946  0.00  0.00    -0.642 OA
ATOM      4  O35 H1S d 501      36.905   6.672  14.142  0.00  0.00    -0.642 OA
ATOM      5  S20 H1S d 501      39.779   0.987  19.996  0.00  0.00     0.156 S 
ATOM      6  C27 H1S d 501      37.709   5.723  14.280  0.00  0.00     0.233 C 
ATOM      7  O29 H1S d 501      40.285  -0.320  19.463  0.00  0.00    -0.296 OA
ATOM      8  O9  H1S d 501      39.236   2.307  15.938  0.00  0.00    -0.391 OA
ATOM      9  S16 H1S d 501      33.285  -2.003  15.343  0.00  0.00     0.251 S 
ATOM     10  O11 H1S d 501      34.183  -1.167  16.077  0.00  0.00    -0.254 OA
ATOM     11  O32 H1S d 501      38.290   0.213  10.545  0.00  0.00    -0.572 OA
ATOM     12  O5  H1S d 501      36.565  -0.453  17.462  0.00  0.00    -0.350 OA
ATOM     13  O23 H1S d 501      32.052  -2.254  16.159  0.00  0.00    -0.572 OA
ATOM     14  O25 H1S d 501      34.684   2.396  12.842  0.00  0.00    -0.389 OA
ATOM     15  C6  H1S d 501      35.296  -0.559  15.416  0.00  0.00     0.067 C 
ATOM     16  O21 H1S d 501      32.905  -1.324  14.060  0.00  0.00    -0.572 OA
ATOM     17  C17 H1S d 501      35.787   3.001  12.159  0.00  0.00     0.086 C 
ATOM     18  O28 H1S d 501      38.733   0.728  21.040  0.00  0.00    -0.296 OA
ATOM     19  N14 H1S d 501      39.134   1.870  18.786  0.00  0.00    -0.210 NA
ATOM     20  O31 H1S d 501      39.001   2.058   9.098  0.00  0.00    -0.572 OA
ATOM     21  C24 H1S d 501      36.181   4.293  12.879  0.00  0.00    -0.034 C 
ATOM     22  C10 H1S d 501      37.218   0.368  18.442  0.00  0.00     0.147 C 
ATOM     23  C2  H1S d 501      36.068   0.348  16.376  0.00  0.00     0.091 C 
ATOM     24  C12 H1S d 501      36.977   2.039  12.160  0.00  0.00     0.135 C 
ATOM     25  C7  H1S d 501      37.647   2.076  13.536  0.00  0.00     0.167 C 
ATOM     26  O15 H1S d 501      36.316   1.386  18.886  0.00  0.00    -0.369 OA
ATOM     27  S26 H1S d 501      37.957   1.598  10.071  0.00  0.00     0.252 S 
ATOM     28  O22 H1S d 501      33.957  -3.310  15.037  0.00  0.00    -0.572 OA
ATOM     29  C8  H1S d 501      38.458   1.005  17.809  0.00  0.00     0.081 C 
ATOM     30  O30 H1S d 501      40.916   1.752  20.607  0.00  0.00    -0.296 OA
ATOM     31  O13 H1S d 501      38.262   3.368  13.678  0.00  0.00    -0.311 OA
ATOM     32  C4  H1S d 501      38.053   1.843  16.595  0.00  0.00     0.083 C 
ATOM     33  C19 H1S d 501      37.376   4.399  13.589  0.00  0.00     0.147 C 
ATOM     34  O33 H1S d 501      36.617   1.588   9.395  0.00  0.00    -0.572 OA
ATOM     35  O3  H1S d 501      36.670   1.870  14.588  0.00  0.00    -0.348 OA
ATOM     36  H   H1S d 501      37.845   0.263  15.168  0.00  0.00     0.091 H 
ATOM     37  H   H1S d 501      39.550  -0.815  19.068  0.00  0.00     0.231 HD
ATOM     38  H   H1S d 501      38.989   2.840  15.166  0.00  0.00     0.210 HD
ATOM     39  H   H1S d 501      34.432   1.577  12.387  0.00  0.00     0.210 HD
ATOM     40  H   H1S d 501      34.940   0.025  14.593  0.00  0.00     0.080 H 
ATOM     41  H   H1S d 501      35.952  -1.330  15.070  0.00  0.00     0.080 H 
ATOM     42  H   H1S d 501      35.505   3.222  11.150  0.00  0.00     0.093 H 
ATOM     43  H   H1S d 501      37.998   0.233  20.645  0.00  0.00     0.231 HD
ATOM     44  H   H1S d 501      39.878   2.387  18.317  0.00  0.00     0.140 HD
ATOM     45  H   H1S d 501      35.546   5.106  12.838  0.00  0.00     0.085 H 
ATOM     46  H   H1S d 501      37.512  -0.225  19.282  0.00  0.00     0.131 H 
ATOM     47  H   H1S d 501      35.434   1.114  16.770  0.00  0.00     0.090 H 
ATOM     48  H   H1S d 501      36.645   1.047  11.936  0.00  0.00     0.097 H 
ATOM     49  H   H1S d 501      38.376   1.297  13.614  0.00  0.00     0.134 H 
ATOM     50  H   H1S d 501      36.044   1.930  18.130  0.00  0.00     0.212 HD
ATOM     51  H   H1S d 501      39.122   0.226  17.501  0.00  0.00     0.076 H 
ATOM     52  H   H1S d 501      40.588   2.597  20.952  0.00  0.00     0.231 HD
ATOM     53  H   H1S d 501      37.462   2.672  16.924  0.00  0.00     0.089 H 
ENDROOT
TORSDOF 16
ENDMDL
MODEL 13
REMARK VINA RESULT:      -9.2      3.009      8.370
REMARK  0 active torsions:
REMARK  status: ('A' for Active; 'I' for Inactive)
REMARK       I    between atoms: C1_1  and  O3_35 
REMARK       I    between atoms: O18_2  and  C12_24 
REMARK       I    between atoms: O18_2  and  S26_27 
REMARK       I    between atoms: S20_5  and  N14_19 
REMARK       I    between atoms: S20_5  and  O28_18 
REMARK       I    between atoms: S20_5  and  O29_7 
REMARK       I    between atoms: S20_5  and  O30_30 
REMARK       I    between atoms: C27_6  and  C19_33 
REMARK       I    between atoms: O9_8  and  C4_32 
REMARK       I    between atoms: S16_9  and  O11_10 
REMARK       I    between atoms: O11_10  and  C6_15 
REMARK       I    between atoms: O25_14  and  C17_17 
REMARK       I    between atoms: C6_15  and  C2_23 
REMARK       I    between atoms: N14_19  and  C8_29 
REMARK       I    between atoms: C10_22  and  O15_26 
REMARK       I    between atoms: C7_25  and  O3_35 
ROOT
ATOM      1  C1  H1S d 501      36.858   3.055  14.056  0.00  0.00     0.095 C 
ATOM      2  O18 H1S d 501      40.677   1.741  16.502  0.00  0.00    -0.244 OA
ATOM      3  O34 H1S d 501      41.401   4.128  12.090  0.00  0.00    -0.642 OA
ATOM      4  O35 H1S d 501      42.032   2.102  11.474  0.00  0.00    -0.642 OA
ATOM      5  S20 H1S d 501      35.106   7.273  11.851  0.00  0.00     0.156 S 
ATOM      6  C27 H1S d 501      41.432   2.890  12.240  0.00  0.00     0.233 C 
ATOM      7  O29 H1S d 501      34.517   7.499  13.212  0.00  0.00    -0.296 OA
ATOM      8  O9  H1S d 501      38.250   5.001  13.711  0.00  0.00    -0.391 OA
ATOM      9  S16 H1S d 501      33.567  -0.592  14.773  0.00  0.00     0.251 S 
ATOM     10  O11 H1S d 501      34.061   0.534  14.043  0.00  0.00    -0.254 OA
ATOM     11  O32 H1S d 501      39.349   1.795  18.494  0.00  0.00    -0.572 OA
ATOM     12  O5  H1S d 501      34.504   3.279  13.435  0.00  0.00    -0.350 OA
ATOM     13  O23 H1S d 501      32.578  -1.341  13.931  0.00  0.00    -0.572 OA
ATOM     14  O25 H1S d 501      38.793  -0.447  14.285  0.00  0.00    -0.389 OA
ATOM     15  C6  H1S d 501      35.211   1.242  14.511  0.00  0.00     0.067 C 
ATOM     16  O21 H1S d 501      34.709  -1.498  15.127  0.00  0.00    -0.572 OA
ATOM     17  C17 H1S d 501      39.950   0.242  14.769  0.00  0.00     0.086 C 
ATOM     18  O28 H1S d 501      34.035   6.792  10.918  0.00  0.00    -0.296 OA
ATOM     19  N14 H1S d 501      36.294   6.160  11.938  0.00  0.00    -0.210 NA
ATOM     20  O31 H1S d 501      41.796   1.793  18.613  0.00  0.00    -0.572 OA
ATOM     21  C24 H1S d 501      40.671   0.907  13.594  0.00  0.00    -0.034 C 
ATOM     22  C10 H1S d 501      34.782   4.292  12.457  0.00  0.00     0.147 C 
ATOM     23  C2  H1S d 501      35.600   2.354  13.535  0.00  0.00     0.091 C 
ATOM     24  C12 H1S d 501      39.522   1.316  15.772  0.00  0.00     0.135 C 
ATOM     25  C7  H1S d 501      38.970   2.521  15.007  0.00  0.00     0.167 C 
ATOM     26  O15 H1S d 501      35.085   3.673  11.204  0.00  0.00    -0.369 OA
ATOM     27  S26 H1S d 501      40.608   1.282  17.855  0.00  0.00     0.252 S 
ATOM     28  O22 H1S d 501      32.897  -0.117  16.029  0.00  0.00    -0.572 OA
ATOM     29  C8  H1S d 501      35.975   5.127  12.933  0.00  0.00     0.081 C 
ATOM     30  O30 H1S d 501      35.678   8.560  11.334  0.00  0.00    -0.296 OA
ATOM     31  O13 H1S d 501      40.072   3.131  14.314  0.00  0.00    -0.311 OA
ATOM     32  C4  H1S d 501      37.196   4.228  13.131  0.00  0.00     0.083 C 
ATOM     33  C19 H1S d 501      40.686   2.292  13.436  0.00  0.00     0.147 C 
ATOM     34  O33 H1S d 501      40.608  -0.218  17.880  0.00  0.00    -0.572 OA
ATOM     35  O3  H1S d 501      37.954   2.105  14.058  0.00  0.00    -0.348 OA
ATOM     36  H   H1S d 501      36.694   3.421  15.048  0.00  0.00     0.091 H 
ATOM     37  H   H1S d 501      34.147   6.668  13.546  0.00  0.00     0.231 HD
ATOM     38  H   H1S d 501      39.031   4.439  13.841  0.00  0.00     0.210 HD
ATOM     39  H   H1S d 501      38.335  -0.870  15.029  0.00  0.00     0.210 HD
ATOM     40  H   H1S d 501      36.029   0.559  14.609  0.00  0.00     0.080 H 
ATOM     41  H   H1S d 501      34.980   1.683  15.459  0.00  0.00     0.080 H 
ATOM     42  H   H1S d 501      40.607  -0.454  15.248  0.00  0.00     0.093 H 
ATOM     43  H   H1S d 501      33.664   5.960  11.253  0.00  0.00     0.231 HD
ATOM     44  H   H1S d 501      37.165   6.620  12.202  0.00  0.00     0.140 HD
ATOM     45  H   H1S d 501      41.157   0.316  12.902  0.00  0.00     0.085 H 
ATOM     46  H   H1S d 501      33.930   4.928  12.333  0.00  0.00     0.131 H 
ATOM     47  H   H1S d 501      35.807   1.954  12.565  0.00  0.00     0.090 H 
ATOM     48  H   H1S d 501      38.778   0.922  16.432  0.00  0.00     0.097 H 
ATOM     49  H   H1S d 501      38.515   3.214  15.684  0.00  0.00     0.134 H 
ATOM     50  H   H1S d 501      35.858   3.094  11.308  0.00  0.00     0.212 HD
ATOM     51  H   H1S d 501      35.718   5.592  13.861  0.00  0.00     0.076 H 
ATOM     52  H   H1S d 501      36.059   8.414  10.454  0.00  0.00     0.231 HD
ATOM     53  H   H1S d 501      37.501   3.838  12.183  0.00  0.00     0.089 H 
ENDROOT
TORSDOF 16
ENDMDL
MODEL 14
REMARK VINA RESULT:      -9.2      2.828      6.558
REMARK  0 active torsions:
REMARK  status: ('A' for Active; 'I' for Inactive)
REMARK       I    between atoms: C1_1  and  O3_35 
REMARK       I    between atoms: O18_2  and  C12_24 
REMARK       I    between atoms: O18_2  and  S26_27 
REMARK       I    between atoms: S20_5  and  N14_19 
REMARK       I    between atoms: S20_5  and  O28_18 
REMARK       I    between atoms: S20_5  and  O29_7 
REMARK       I    between atoms: S20_5  and  O30_30 
REMARK       I    between atoms: C27_6  and  C19_33 
REMARK       I    between atoms: O9_8  and  C4_32 
REMARK       I    between atoms: S16_9  and  O11_10 
REMARK       I    between atoms: O11_10  and  C6_15 
REMARK       I    between atoms: O25_14  and  C17_17 
REMARK       I    between atoms: C6_15  and  C2_23 
REMARK       I    between atoms: N14_19  and  C8_29 
REMARK       I    between atoms: C10_22  and  O15_26 
REMARK       I    between atoms: C7_25  and  O3_35 
ROOT
ATOM      1  C1  H1S d 501      37.030   1.610  16.017  0.00  0.00     0.095 C 
ATOM      2  O18 H1S d 501      38.087   6.106  15.034  0.00  0.00    -0.244 OA
ATOM      3  O34 H1S d 501      36.591   3.138  11.208  0.00  0.00    -0.642 OA
ATOM      4  O35 H1S d 501      38.728   3.312  10.672  0.00  0.00    -0.642 OA
ATOM      5  S20 H1S d 501      33.195  -1.596  15.162  0.00  0.00     0.156 S 
ATOM      6  C27 H1S d 501      37.781   3.389  11.487  0.00  0.00     0.233 C 
ATOM      7  O29 H1S d 501      32.691  -1.021  16.452  0.00  0.00    -0.296 OA
ATOM      8  O9  H1S d 501      35.261   2.109  14.447  0.00  0.00    -0.391 OA
ATOM      9  S16 H1S d 501      40.294   0.268  19.509  0.00  0.00     0.251 S 
ATOM     10  O11 H1S d 501      39.350  -0.042  18.480  0.00  0.00    -0.254 OA
ATOM     11  O32 H1S d 501      37.595   6.660  17.311  0.00  0.00    -0.572 OA
ATOM     12  O5  H1S d 501      36.792  -0.455  17.303  0.00  0.00    -0.350 OA
ATOM     13  O23 H1S d 501      41.128  -0.943  19.806  0.00  0.00    -0.572 OA
ATOM     14  O25 H1S d 501      40.534   3.427  15.322  0.00  0.00    -0.389 OA
ATOM     15  C6  H1S d 501      38.634   1.008  17.826  0.00  0.00     0.067 C 
ATOM     16  O21 H1S d 501      41.182   1.386  19.051  0.00  0.00    -0.572 OA
ATOM     17  C17 H1S d 501      39.834   4.495  14.676  0.00  0.00     0.086 C 
ATOM     18  O28 H1S d 501      33.778  -2.954  15.415  0.00  0.00    -0.296 OA
ATOM     19  N14 H1S d 501      34.338  -0.621  14.528  0.00  0.00    -0.210 NA
ATOM     20  O31 H1S d 501      37.712   8.400  15.590  0.00  0.00    -0.572 OA
ATOM     21  C24 H1S d 501      39.436   4.058  13.264  0.00  0.00    -0.034 C 
ATOM     22  C10 H1S d 501      35.992  -1.081  16.289  0.00  0.00     0.147 C 
ATOM     23  C2  H1S d 501      37.743   0.449  16.716  0.00  0.00     0.091 C 
ATOM     24  C12 H1S d 501      38.573   4.834  15.473  0.00  0.00     0.135 C 
ATOM     25  C7  H1S d 501      37.498   3.785  15.178  0.00  0.00     0.167 C 
ATOM     26  O15 H1S d 501      36.846  -1.732  15.343  0.00  0.00    -0.369 OA
ATOM     27  S26 H1S d 501      38.285   7.094  16.050  0.00  0.00     0.252 S 
ATOM     28  O22 H1S d 501      39.560   0.687  20.749  0.00  0.00    -0.572 OA
ATOM     29  C8  H1S d 501      35.152  -0.009  15.587  0.00  0.00     0.081 C 
ATOM     30  O30 H1S d 501      32.058  -1.713  14.189  0.00  0.00    -0.296 OA
ATOM     31  O13 H1S d 501      37.088   3.963  13.811  0.00  0.00    -0.311 OA
ATOM     32  C4  H1S d 501      36.067   1.049  14.967  0.00  0.00     0.083 C 
ATOM     33  C19 H1S d 501      38.107   3.818  12.920  0.00  0.00     0.147 C 
ATOM     34  O33 H1S d 501      39.753   7.258  16.314  0.00  0.00    -0.572 OA
ATOM     35  O3  H1S d 501      38.024   2.445  15.369  0.00  0.00    -0.348 OA
ATOM     36  H   H1S d 501      36.480   2.189  16.730  0.00  0.00     0.091 H 
ATOM     37  H   H1S d 501      33.425  -0.946  17.081  0.00  0.00     0.231 HD
ATOM     38  H   H1S d 501      35.833   2.786  14.051  0.00  0.00     0.210 HD
ATOM     39  H   H1S d 501      40.787   3.702  16.217  0.00  0.00     0.210 HD
ATOM     40  H   H1S d 501      39.332   1.698  17.401  0.00  0.00     0.080 H 
ATOM     41  H   H1S d 501      38.015   1.501  18.546  0.00  0.00     0.080 H 
ATOM     42  H   H1S d 501      40.467   5.357  14.622  0.00  0.00     0.093 H 
ATOM     43  H   H1S d 501      34.512  -2.879  16.044  0.00  0.00     0.231 HD
ATOM     44  H   H1S d 501      33.887   0.115  13.986  0.00  0.00     0.140 HD
ATOM     45  H   H1S d 501      40.171   3.938  12.549  0.00  0.00     0.085 H 
ATOM     46  H   H1S d 501      35.343  -1.809  16.729  0.00  0.00     0.131 H 
ATOM     47  H   H1S d 501      38.325  -0.081  15.991  0.00  0.00     0.090 H 
ATOM     48  H   H1S d 501      38.796   4.853  16.519  0.00  0.00     0.097 H 
ATOM     49  H   H1S d 501      36.669   3.905  15.844  0.00  0.00     0.134 H 
ATOM     50  H   H1S d 501      37.438  -1.078  14.939  0.00  0.00     0.212 HD
ATOM     51  H   H1S d 501      34.511   0.450  16.310  0.00  0.00     0.076 H 
ATOM     52  H   H1S d 501      32.384  -2.084  13.355  0.00  0.00     0.231 HD
ATOM     53  H   H1S d 501      36.640   0.600  14.184  0.00  0.00     0.089 H 
ENDROOT
TORSDOF 16
ENDMDL
MODEL 15
REMARK VINA RESULT:      -9.0      2.664      6.204
REMARK  0 active torsions:
REMARK  status: ('A' for Active; 'I' for Inactive)
REMARK       I    between atoms: C1_1  and  O3_35 
REMARK       I    between atoms: O18_2  and  C12_24 
REMARK       I    between atoms: O18_2  and  S26_27 
REMARK       I    between atoms: S20_5  and  N14_19 
REMARK       I    between atoms: S20_5  and  O28_18 
REMARK       I    between atoms: S20_5  and  O29_7 
REMARK       I    between atoms: S20_5  and  O30_30 
REMARK       I    between atoms: C27_6  and  C19_33 
REMARK       I    between atoms: O9_8  and  C4_32 
REMARK       I    between atoms: S16_9  and  O11_10 
REMARK       I    between atoms: O11_10  and  C6_15 
REMARK       I    between atoms: O25_14  and  C17_17 
REMARK       I    between atoms: C6_15  and  C2_23 
REMARK       I    between atoms: N14_19  and  C8_29 
REMARK       I    between atoms: C10_22  and  O15_26 
REMARK       I    between atoms: C7_25  and  O3_35 
ROOT
ATOM      1  C1  H1S d 501      38.005   0.169  15.181  0.00  0.00     0.095 C 
ATOM      2  O18 H1S d 501      38.387   2.193  10.932  0.00  0.00    -0.244 OA
ATOM      3  O34 H1S d 501      40.710   4.437  14.837  0.00  0.00    -0.642 OA
ATOM      4  O35 H1S d 501      39.075   5.896  14.546  0.00  0.00    -0.642 OA
ATOM      5  S20 H1S d 501      41.113  -1.289  18.914  0.00  0.00     0.156 S 
ATOM      6  C27 H1S d 501      39.589   4.765  14.395  0.00  0.00     0.233 C 
ATOM      7  O29 H1S d 501      41.137  -2.564  18.124  0.00  0.00    -0.296 OA
ATOM      8  O9  H1S d 501      40.329   0.832  15.254  0.00  0.00    -0.391 OA
ATOM      9  S16 H1S d 501      33.385  -1.642  15.320  0.00  0.00     0.251 S 
ATOM     10  O11 H1S d 501      34.588  -1.208  15.959  0.00  0.00    -0.254 OA
ATOM     11  O32 H1S d 501      37.984   0.052   9.939  0.00  0.00    -0.572 OA
ATOM     12  O5  H1S d 501      37.263  -1.384  16.916  0.00  0.00    -0.350 OA
ATOM     13  O23 H1S d 501      32.278  -1.713  16.329  0.00  0.00    -0.572 OA
ATOM     14  O25 H1S d 501      35.557   2.632  13.179  0.00  0.00    -0.389 OA
ATOM     15  C6  H1S d 501      35.708  -0.794  15.172  0.00  0.00     0.067 C 
ATOM     16  O21 H1S d 501      33.015  -0.670  14.240  0.00  0.00    -0.572 OA
ATOM     17  C17 H1S d 501      36.663   3.049  12.372  0.00  0.00     0.086 C 
ATOM     18  O28 H1S d 501      40.217  -1.457  20.104  0.00  0.00    -0.296 OA
ATOM     19  N14 H1S d 501      40.561  -0.069  17.983  0.00  0.00    -0.210 NA
ATOM     20  O31 H1S d 501      38.949   1.884   8.629  0.00  0.00    -0.572 OA
ATOM     21  C24 H1S d 501      37.516   4.046  13.158  0.00  0.00    -0.034 C 
ATOM     22  C10 H1S d 501      38.269  -0.946  17.842  0.00  0.00     0.147 C 
ATOM     23  C2  H1S d 501      36.848  -0.302  16.066  0.00  0.00     0.091 C 
ATOM     24  C12 H1S d 501      37.516   1.831  12.008  0.00  0.00     0.135 C 
ATOM     25  C7  H1S d 501      38.379   1.449  13.213  0.00  0.00     0.167 C 
ATOM     26  O15 H1S d 501      37.775   0.171  18.587  0.00  0.00    -0.369 OA
ATOM     27  S26 H1S d 501      37.986   1.538   9.725  0.00  0.00     0.252 S 
ATOM     28  O22 H1S d 501      33.602  -3.000  14.718  0.00  0.00    -0.572 OA
ATOM     29  C8  H1S d 501      39.521  -0.543  17.059  0.00  0.00     0.081 C 
ATOM     30  O30 H1S d 501      42.502  -0.961  19.376  0.00  0.00    -0.296 OA
ATOM     31  O13 H1S d 501      39.349   2.495  13.395  0.00  0.00    -0.311 OA
ATOM     32  C4  H1S d 501      39.183   0.575  16.071  0.00  0.00     0.083 C 
ATOM     33  C19 H1S d 501      38.789   3.715  13.620  0.00  0.00     0.147 C 
ATOM     34  O33 H1S d 501      36.609   1.991   9.338  0.00  0.00    -0.572 OA
ATOM     35  O3  H1S d 501      37.564   1.313  14.405  0.00  0.00    -0.348 OA
ATOM     36  H   H1S d 501      38.312  -0.618  14.523  0.00  0.00     0.091 H 
ATOM     37  H   H1S d 501      40.239  -2.776  17.826  0.00  0.00     0.231 HD
ATOM     38  H   H1S d 501      40.124   1.541  14.623  0.00  0.00     0.210 HD
ATOM     39  H   H1S d 501      35.015   1.999  12.683  0.00  0.00     0.210 HD
ATOM     40  H   H1S d 501      35.405  -0.001  14.520  0.00  0.00     0.080 H 
ATOM     41  H   H1S d 501      36.055  -1.632  14.604  0.00  0.00     0.080 H 
ATOM     42  H   H1S d 501      36.298   3.511  11.478  0.00  0.00     0.093 H 
ATOM     43  H   H1S d 501      39.319  -1.669  19.806  0.00  0.00     0.231 HD
ATOM     44  H   H1S d 501      41.336   0.318  17.444  0.00  0.00     0.140 HD
ATOM     45  H   H1S d 501      37.140   4.988  13.352  0.00  0.00     0.085 H 
ATOM     46  H   H1S d 501      38.513  -1.736  18.521  0.00  0.00     0.131 H 
ATOM     47  H   H1S d 501      36.528   0.517  16.675  0.00  0.00     0.090 H 
ATOM     48  H   H1S d 501      36.885   1.014  11.729  0.00  0.00     0.097 H 
ATOM     49  H   H1S d 501      38.861   0.509  13.041  0.00  0.00     0.134 H 
ATOM     50  H   H1S d 501      37.551   0.892  17.978  0.00  0.00     0.212 HD
ATOM     51  H   H1S d 501      39.880  -1.397  16.525  0.00  0.00     0.076 H 
ATOM     52  H   H1S d 501      42.487  -0.137  19.886  0.00  0.00     0.231 HD
ATOM     53  H   H1S d 501      38.912   1.454  16.616  0.00  0.00     0.089 H 
ENDROOT
TORSDOF 16
ENDMDL
MODEL 16
REMARK VINA RESULT:      -9.0      3.331      4.710
REMARK  0 active torsions:
REMARK  status: ('A' for Active; 'I' for Inactive)
REMARK       I    between atoms: C1_1  and  O3_35 
REMARK       I    between atoms: O18_2  and  C12_24 
REMARK       I    between atoms: O18_2  and  S26_27 
REMARK       I    between atoms: S20_5  and  N14_19 
REMARK       I    between atoms: S20_5  and  O28_18 
REMARK       I    between atoms: S20_5  and  O29_7 
REMARK       I    between atoms: S20_5  and  O30_30 
REMARK       I    between atoms: C27_6  and  C19_33 
REMARK       I    between atoms: O9_8  and  C4_32 
REMARK       I    between atoms: S16_9  and  O11_10 
REMARK       I    between atoms: O11_10  and  C6_15 
REMARK       I    between atoms: O25_14  and  C17_17 
REMARK       I    between atoms: C6_15  and  C2_23 
REMARK       I    between atoms: N14_19  and  C8_29 
REMARK       I    between atoms: C10_22  and  O15_26 
REMARK       I    between atoms: C7_25  and  O3_35 
ROOT
ATOM      1  C1  H1S d 501      38.743   2.233  14.677  0.00  0.00     0.095 C 
ATOM      2  O18 H1S d 501      34.722   0.830  12.636  0.00  0.00    -0.244 OA
ATOM      3  O34 H1S d 501      39.073  -1.001  10.793  0.00  0.00    -0.642 OA
ATOM      4  O35 H1S d 501      38.558   0.356   9.127  0.00  0.00    -0.642 OA
ATOM      5  S20 H1S d 501      42.905   0.068  16.602  0.00  0.00     0.156 S 
ATOM      6  C27 H1S d 501      38.453  -0.031  10.313  0.00  0.00     0.233 C 
ATOM      7  O29 H1S d 501      42.078   0.060  17.853  0.00  0.00    -0.296 OA
ATOM      8  O9  H1S d 501      39.259  -0.102  14.325  0.00  0.00    -0.391 OA
ATOM      9  S16 H1S d 501      37.975   6.991  15.869  0.00  0.00     0.251 S 
ATOM     10  O11 H1S d 501      38.837   5.880  15.609  0.00  0.00    -0.254 OA
ATOM     11  O32 H1S d 501      33.581   1.309  14.686  0.00  0.00    -0.572 OA
ATOM     12  O5  H1S d 501      40.249   3.469  16.153  0.00  0.00    -0.350 OA
ATOM     13  O23 H1S d 501      38.766   8.264  15.814  0.00  0.00    -0.572 OA
ATOM     14  O25 H1S d 501      36.444   3.945  11.875  0.00  0.00    -0.389 OA
ATOM     15  C6  H1S d 501      38.282   4.593  15.330  0.00  0.00     0.067 C 
ATOM     16  O21 H1S d 501      36.889   7.032  14.835  0.00  0.00    -0.572 OA
ATOM     17  C17 H1S d 501      35.867   2.668  11.591  0.00  0.00     0.086 C 
ATOM     18  O28 H1S d 501      43.908   1.181  16.675  0.00  0.00    -0.296 OA
ATOM     19  N14 H1S d 501      41.944   0.283  15.302  0.00  0.00    -0.210 NA
ATOM     20  O31 H1S d 501      32.546  -0.101  12.971  0.00  0.00    -0.572 OA
ATOM     21  C24 H1S d 501      36.835   1.854  10.729  0.00  0.00    -0.034 C 
ATOM     22  C10 H1S d 501      41.357   2.603  15.869  0.00  0.00     0.147 C 
ATOM     23  C2  H1S d 501      39.385   3.583  15.009  0.00  0.00     0.091 C 
ATOM     24  C12 H1S d 501      35.609   1.922  12.902  0.00  0.00     0.135 C 
ATOM     25  C7  H1S d 501      36.931   1.348  13.418  0.00  0.00     0.167 C 
ATOM     26  O15 H1S d 501      42.050   3.081  14.711  0.00  0.00    -0.369 OA
ATOM     27  S26 H1S d 501      33.436   1.082  13.209  0.00  0.00     0.252 S 
ATOM     28  O22 H1S d 501      37.363   6.839  17.231  0.00  0.00    -0.572 OA
ATOM     29  C8  H1S d 501      40.830   1.187  15.617  0.00  0.00     0.081 C 
ATOM     30  O30 H1S d 501      43.622  -1.243  16.469  0.00  0.00    -0.296 OA
ATOM     31  O13 H1S d 501      37.328   0.305  12.512  0.00  0.00    -0.311 OA
ATOM     32  C4  H1S d 501      39.846   1.196  14.446  0.00  0.00     0.083 C 
ATOM     33  C19 H1S d 501      37.502   0.739  11.233  0.00  0.00     0.147 C 
ATOM     34  O33 H1S d 501      32.829   2.298  12.572  0.00  0.00    -0.572 OA
ATOM     35  O3  H1S d 501      37.951   2.379  13.469  0.00  0.00    -0.348 OA
ATOM     36  H   H1S d 501      38.117   1.912  15.483  0.00  0.00     0.091 H 
ATOM     37  H   H1S d 501      41.615   0.907  17.940  0.00  0.00     0.231 HD
ATOM     38  H   H1S d 501      38.633  -0.107  13.583  0.00  0.00     0.210 HD
ATOM     39  H   H1S d 501      35.831   4.463  12.421  0.00  0.00     0.210 HD
ATOM     40  H   H1S d 501      37.621   4.669  14.492  0.00  0.00     0.080 H 
ATOM     41  H   H1S d 501      37.749   4.255  16.194  0.00  0.00     0.080 H 
ATOM     42  H   H1S d 501      34.943   2.801  11.067  0.00  0.00     0.093 H 
ATOM     43  H   H1S d 501      43.444   2.028  16.762  0.00  0.00     0.231 HD
ATOM     44  H   H1S d 501      41.570  -0.620  15.010  0.00  0.00     0.140 HD
ATOM     45  H   H1S d 501      36.999   2.139   9.750  0.00  0.00     0.085 H 
ATOM     46  H   H1S d 501      42.035   2.588  16.697  0.00  0.00     0.131 H 
ATOM     47  H   H1S d 501      39.962   3.904  14.168  0.00  0.00     0.090 H 
ATOM     48  H   H1S d 501      35.186   2.588  13.624  0.00  0.00     0.097 H 
ATOM     49  H   H1S d 501      36.808   0.965  14.410  0.00  0.00     0.134 H 
ATOM     50  H   H1S d 501      41.442   3.097  13.955  0.00  0.00     0.212 HD
ATOM     51  H   H1S d 501      40.332   0.847  16.501  0.00  0.00     0.076 H 
ATOM     52  H   H1S d 501      44.157  -1.238  15.660  0.00  0.00     0.231 HD
ATOM     53  H   H1S d 501      40.372   1.451  13.550  0.00  0.00     0.089 H 
ENDROOT
TORSDOF 16
ENDMDL
MODEL 17
REMARK VINA RESULT:      -8.9      3.497      8.638
REMARK  0 active torsions:
REMARK  status: ('A' for Active; 'I' for Inactive)
REMARK       I    between atoms: C1_1  and  O3_35 
REMARK       I    between atoms: O18_2  and  C12_24 
REMARK       I    between atoms: O18_2  and  S26_27 
REMARK       I    between atoms: S20_5  and  N14_19 
REMARK       I    between atoms: S20_5  and  O28_18 
REMARK       I    between atoms: S20_5  and  O29_7 
REMARK       I    between atoms: S20_5  and  O30_30 
REMARK       I    between atoms: C27_6  and  C19_33 
REMARK       I    between atoms: O9_8  and  C4_32 
REMARK       I    between atoms: S16_9  and  O11_10 
REMARK       I    between atoms: O11_10  and  C6_15 
REMARK       I    between atoms: O25_14  and  C17_17 
REMARK       I    between atoms: C6_15  and  C2_23 
REMARK       I    between atoms: N14_19  and  C8_29 
REMARK       I    between atoms: C10_22  and  O15_26 
REMARK       I    between atoms: C7_25  and  O3_35 
ROOT
ATOM      1  C1  H1S d 501      38.326   3.085  13.540  0.00  0.00     0.095 C 
ATOM      2  O18 H1S d 501      41.578   6.329  14.633  0.00  0.00    -0.244 OA
ATOM      3  O34 H1S d 501      41.959   4.021  10.138  0.00  0.00    -0.642 OA
ATOM      4  O35 H1S d 501      43.675   3.060  11.146  0.00  0.00    -0.642 OA
ATOM      5  S20 H1S d 501      35.207   2.085   9.668  0.00  0.00     0.156 S 
ATOM      6  C27 H1S d 501      42.594   3.691  11.160  0.00  0.00     0.233 C 
ATOM      7  O29 H1S d 501      34.288   2.987  10.436  0.00  0.00    -0.296 OA
ATOM      8  O9  H1S d 501      38.539   4.186  11.397  0.00  0.00    -0.391 OA
ATOM      9  S16 H1S d 501      37.350   0.765  17.819  0.00  0.00     0.251 S 
ATOM     10  O11 H1S d 501      37.341   0.831  16.390  0.00  0.00    -0.254 OA
ATOM     11  O32 H1S d 501      39.995   7.331  16.125  0.00  0.00    -0.572 OA
ATOM     12  O5  H1S d 501      36.420   1.578  13.803  0.00  0.00    -0.350 OA
ATOM     13  O23 H1S d 501      37.122  -0.651  18.257  0.00  0.00    -0.572 OA
ATOM     14  O25 H1S d 501      41.683   2.855  15.716  0.00  0.00    -0.389 OA
ATOM     15  C6  H1S d 501      37.808   2.007  15.725  0.00  0.00     0.067 C 
ATOM     16  O21 H1S d 501      38.677   1.240  18.332  0.00  0.00    -0.572 OA
ATOM     17  C17 H1S d 501      42.163   4.039  15.071  0.00  0.00     0.086 C 
ATOM     18  O28 H1S d 501      34.794   0.658   9.878  0.00  0.00    -0.296 OA
ATOM     19  N14 H1S d 501      36.742   2.288  10.178  0.00  0.00    -0.210 NA
ATOM     20  O31 H1S d 501      41.980   8.562  15.385  0.00  0.00    -0.572 OA
ATOM     21  C24 H1S d 501      42.684   3.681  13.677  0.00  0.00    -0.034 C 
ATOM     22  C10 H1S d 501      36.349   1.303  12.396  0.00  0.00     0.147 C 
ATOM     23  C2  H1S d 501      37.777   1.821  14.207  0.00  0.00     0.091 C 
ATOM     24  C12 H1S d 501      41.020   5.047  14.940  0.00  0.00     0.135 C 
ATOM     25  C7  H1S d 501      40.118   4.630  13.776  0.00  0.00     0.167 C 
ATOM     26  O15 H1S d 501      37.212   0.206  12.083  0.00  0.00    -0.369 OA
ATOM     27  S26 H1S d 501      41.444   7.211  15.752  0.00  0.00     0.252 S 
ATOM     28  O22 H1S d 501      36.260   1.640  18.365  0.00  0.00    -0.572 OA
ATOM     29  C8  H1S d 501      36.784   2.551  11.623  0.00  0.00     0.081 C 
ATOM     30  O30 H1S d 501      35.128   2.418   8.207  0.00  0.00    -0.296 OA
ATOM     31  O13 H1S d 501      40.868   4.815  12.564  0.00  0.00    -0.311 OA
ATOM     32  C4  H1S d 501      38.209   2.940  12.019  0.00  0.00     0.083 C 
ATOM     33  C19 H1S d 501      42.014   4.080  12.522  0.00  0.00     0.147 C 
ATOM     34  O33 H1S d 501      42.218   6.669  16.917  0.00  0.00    -0.572 OA
ATOM     35  O3  H1S d 501      39.720   3.240  13.909  0.00  0.00    -0.348 OA
ATOM     36  H   H1S d 501      37.770   3.943  13.858  0.00  0.00     0.091 H 
ATOM     37  H   H1S d 501      34.338   2.772  11.380  0.00  0.00     0.231 HD
ATOM     38  H   H1S d 501      39.442   4.441  11.643  0.00  0.00     0.210 HD
ATOM     39  H   H1S d 501      41.353   3.081  16.600  0.00  0.00     0.210 HD
ATOM     40  H   H1S d 501      38.813   2.208  16.033  0.00  0.00     0.080 H 
ATOM     41  H   H1S d 501      37.169   2.824  15.983  0.00  0.00     0.080 H 
ATOM     42  H   H1S d 501      42.954   4.467  15.652  0.00  0.00     0.093 H 
ATOM     43  H   H1S d 501      34.844   0.443  10.822  0.00  0.00     0.231 HD
ATOM     44  H   H1S d 501      37.157   3.078   9.683  0.00  0.00     0.140 HD
ATOM     45  H   H1S d 501      43.552   3.129  13.591  0.00  0.00     0.085 H 
ATOM     46  H   H1S d 501      35.347   1.046  12.121  0.00  0.00     0.131 H 
ATOM     47  H   H1S d 501      38.382   0.989  13.912  0.00  0.00     0.090 H 
ATOM     48  H   H1S d 501      40.459   5.084  15.850  0.00  0.00     0.097 H 
ATOM     49  H   H1S d 501      39.226   5.221  13.766  0.00  0.00     0.134 H 
ATOM     50  H   H1S d 501      38.123   0.431  12.329  0.00  0.00     0.212 HD
ATOM     51  H   H1S d 501      36.115   3.351  11.861  0.00  0.00     0.076 H 
ATOM     52  H   H1S d 501      35.722   1.834   7.710  0.00  0.00     0.231 HD
ATOM     53  H   H1S d 501      38.884   2.175  11.697  0.00  0.00     0.089 H 
ENDROOT
TORSDOF 16
ENDMDL
MODEL 18
REMARK VINA RESULT:      -8.9      3.659      7.970
REMARK  0 active torsions:
REMARK  status: ('A' for Active; 'I' for Inactive)
REMARK       I    between atoms: C1_1  and  O3_35 
REMARK       I    between atoms: O18_2  and  C12_24 
REMARK       I    between atoms: O18_2  and  S26_27 
REMARK       I    between atoms: S20_5  and  N14_19 
REMARK       I    between atoms: S20_5  and  O28_18 
REMARK       I    between atoms: S20_5  and  O29_7 
REMARK       I    between atoms: S20_5  and  O30_30 
REMARK       I    between atoms: C27_6  and  C19_33 
REMARK       I    between atoms: O9_8  and  C4_32 
REMARK       I    between atoms: S16_9  and  O11_10 
REMARK       I    between atoms: O11_10  and  C6_15 
REMARK       I    between atoms: O25_14  and  C17_17 
REMARK       I    between atoms: C6_15  and  C2_23 
REMARK       I    between atoms: N14_19  and  C8_29 
REMARK       I    between atoms: C10_22  and  O15_26 
REMARK       I    between atoms: C7_25  and  O3_35 
ROOT
ATOM      1  C1  H1S d 501      36.600   3.987  13.801  0.00  0.00     0.095 C 
ATOM      2  O18 H1S d 501      38.905   2.366  17.590  0.00  0.00    -0.244 OA
ATOM      3  O34 H1S d 501      37.659   7.277  17.502  0.00  0.00    -0.642 OA
ATOM      4  O35 H1S d 501      39.840   7.487  17.207  0.00  0.00    -0.642 OA
ATOM      5  S20 H1S d 501      32.408   6.679  12.850  0.00  0.00     0.156 S 
ATOM      6  C27 H1S d 501      38.778   6.824  17.185  0.00  0.00     0.233 C 
ATOM      7  O29 H1S d 501      31.775   5.320  12.861  0.00  0.00    -0.296 OA
ATOM      8  O9  H1S d 501      35.413   5.177  15.538  0.00  0.00    -0.391 OA
ATOM      9  S16 H1S d 501      38.552   1.512   9.965  0.00  0.00     0.251 S 
ATOM     10  O11 H1S d 501      37.824   2.613  10.515  0.00  0.00    -0.254 OA
ATOM     11  O32 H1S d 501      38.052   0.182  17.104  0.00  0.00    -0.572 OA
ATOM     12  O5  H1S d 501      35.583   4.009  11.579  0.00  0.00    -0.350 OA
ATOM     13  O23 H1S d 501      38.979   1.842   8.566  0.00  0.00    -0.572 OA
ATOM     14  O25 H1S d 501      40.502   3.365  14.475  0.00  0.00    -0.389 OA
ATOM     15  C6  H1S d 501      37.552   2.662  11.918  0.00  0.00     0.067 C 
ATOM     16  O21 H1S d 501      39.765   1.245  10.807  0.00  0.00    -0.572 OA
ATOM     17  C17 H1S d 501      40.247   3.397  15.883  0.00  0.00     0.086 C 
ATOM     18  O28 H1S d 501      32.573   7.142  11.433  0.00  0.00    -0.296 OA
ATOM     19  N14 H1S d 501      33.867   6.618  13.577  0.00  0.00    -0.210 NA
ATOM     20  O31 H1S d 501      38.977   0.709  19.311  0.00  0.00    -0.572 OA
ATOM     21  C24 H1S d 501      40.092   4.850  16.336  0.00  0.00    -0.034 C 
ATOM     22  C10 H1S d 501      34.911   5.254  11.818  0.00  0.00     0.147 C 
ATOM     23  C2  H1S d 501      36.832   3.960  12.287  0.00  0.00     0.091 C 
ATOM     24  C12 H1S d 501      38.956   2.633  16.185  0.00  0.00     0.135 C 
ATOM     25  C7  H1S d 501      37.758   3.514  15.822  0.00  0.00     0.167 C 
ATOM     26  O15 H1S d 501      35.777   6.337  11.465  0.00  0.00    -0.369 OA
ATOM     27  S26 H1S d 501      39.097   0.970  17.839  0.00  0.00     0.252 S 
ATOM     28  O22 H1S d 501      37.676   0.293   9.948  0.00  0.00    -0.572 OA
ATOM     29  C8  H1S d 501      34.539   5.341  13.300  0.00  0.00     0.081 C 
ATOM     30  O30 H1S d 501      31.532   7.644  13.593  0.00  0.00    -0.296 OA
ATOM     31  O13 H1S d 501      37.729   4.604  16.759  0.00  0.00    -0.311 OA
ATOM     32  C4  H1S d 501      35.798   5.241  14.162  0.00  0.00     0.083 C 
ATOM     33  C19 H1S d 501      38.859   5.362  16.739  0.00  0.00     0.147 C 
ATOM     34  O33 H1S d 501      40.460   0.556  17.369  0.00  0.00    -0.572 OA
ATOM     35  O3  H1S d 501      37.887   4.023  14.469  0.00  0.00    -0.348 OA
ATOM     36  H   H1S d 501      36.057   3.117  14.108  0.00  0.00     0.091 H 
ATOM     37  H   H1S d 501      32.341   4.696  12.381  0.00  0.00     0.231 HD
ATOM     38  H   H1S d 501      36.206   5.114  16.094  0.00  0.00     0.210 HD
ATOM     39  H   H1S d 501      40.601   2.444  14.185  0.00  0.00     0.210 HD
ATOM     40  H   H1S d 501      38.475   2.606  12.457  0.00  0.00     0.080 H 
ATOM     41  H   H1S d 501      36.921   1.836  12.174  0.00  0.00     0.080 H 
ATOM     42  H   H1S d 501      41.064   2.941  16.404  0.00  0.00     0.093 H 
ATOM     43  H   H1S d 501      33.139   6.518  10.953  0.00  0.00     0.231 HD
ATOM     44  H   H1S d 501      33.743   6.720  14.584  0.00  0.00     0.140 HD
ATOM     45  H   H1S d 501      40.920   5.466  16.344  0.00  0.00     0.085 H 
ATOM     46  H   H1S d 501      34.022   5.313  11.224  0.00  0.00     0.131 H 
ATOM     47  H   H1S d 501      37.420   4.812  12.016  0.00  0.00     0.090 H 
ATOM     48  H   H1S d 501      38.931   1.722  15.623  0.00  0.00     0.097 H 
ATOM     49  H   H1S d 501      36.852   2.946  15.869  0.00  0.00     0.134 H 
ATOM     50  H   H1S d 501      36.586   6.291  12.000  0.00  0.00     0.212 HD
ATOM     51  H   H1S d 501      33.879   4.532  13.535  0.00  0.00     0.076 H 
ATOM     52  H   H1S d 501      31.942   8.523  13.586  0.00  0.00     0.231 HD
ATOM     53  H   H1S d 501      36.411   6.100  13.988  0.00  0.00     0.089 H 
ENDROOT
TORSDOF 16
ENDMDL
MODEL 19
REMARK VINA RESULT:      -8.9      2.676      7.679
REMARK  0 active torsions:
REMARK  status: ('A' for Active; 'I' for Inactive)
REMARK       I    between atoms: C1_1  and  O3_35 
REMARK       I    between atoms: O18_2  and  C12_24 
REMARK       I    between atoms: O18_2  and  S26_27 
REMARK       I    between atoms: S20_5  and  N14_19 
REMARK       I    between atoms: S20_5  and  O28_18 
REMARK       I    between atoms: S20_5  and  O29_7 
REMARK       I    between atoms: S20_5  and  O30_30 
REMARK       I    between atoms: C27_6  and  C19_33 
REMARK       I    between atoms: O9_8  and  C4_32 
REMARK       I    between atoms: S16_9  and  O11_10 
REMARK       I    between atoms: O11_10  and  C6_15 
REMARK       I    between atoms: O25_14  and  C17_17 
REMARK       I    between atoms: C6_15  and  C2_23 
REMARK       I    between atoms: N14_19  and  C8_29 
REMARK       I    between atoms: C10_22  and  O15_26 
REMARK       I    between atoms: C7_25  and  O3_35 
ROOT
ATOM      1  C1  H1S d 501      37.615   0.765  15.513  0.00  0.00     0.095 C 
ATOM      2  O18 H1S d 501      41.350   3.311  14.148  0.00  0.00    -0.244 OA
ATOM      3  O34 H1S d 501      39.206   0.240  10.733  0.00  0.00    -0.642 OA
ATOM      4  O35 H1S d 501      41.066  -0.902  11.079  0.00  0.00    -0.642 OA
ATOM      5  S20 H1S d 501      32.908  -0.141  13.856  0.00  0.00     0.156 S 
ATOM      6  C27 H1S d 501      40.215  -0.046  11.410  0.00  0.00     0.233 C 
ATOM      7  O29 H1S d 501      32.598   1.067  14.689  0.00  0.00    -0.296 OA
ATOM      8  O9  H1S d 501      36.885   1.402  13.298  0.00  0.00    -0.391 OA
ATOM      9  S16 H1S d 501      38.582  -0.499  20.216  0.00  0.00     0.251 S 
ATOM     10  O11 H1S d 501      37.885  -0.679  18.980  0.00  0.00    -0.254 OA
ATOM     11  O32 H1S d 501      40.830   4.891  15.871  0.00  0.00    -0.572 OA
ATOM     12  O5  H1S d 501      35.915  -0.195  16.983  0.00  0.00    -0.350 OA
ATOM     13  O23 H1S d 501      38.429  -1.727  21.062  0.00  0.00    -0.572 OA
ATOM     14  O25 H1S d 501      41.552   0.145  15.934  0.00  0.00    -0.389 OA
ATOM     15  C6  H1S d 501      38.105   0.226  17.895  0.00  0.00     0.067 C 
ATOM     16  O21 H1S d 501      40.037  -0.261  19.937  0.00  0.00    -0.572 OA
ATOM     17  C17 H1S d 501      41.794   1.058  14.858  0.00  0.00     0.086 C 
ATOM     18  O28 H1S d 501      32.482  -1.376  14.593  0.00  0.00    -0.296 OA
ATOM     19  N14 H1S d 501      34.508  -0.211  13.553  0.00  0.00    -0.210 NA
ATOM     20  O31 H1S d 501      42.332   5.486  14.029  0.00  0.00    -0.572 OA
ATOM     21  C24 H1S d 501      41.520   0.355  13.526  0.00  0.00    -0.034 C 
ATOM     22  C10 H1S d 501      35.133  -0.684  15.883  0.00  0.00     0.147 C 
ATOM     23  C2  H1S d 501      37.315  -0.206  16.659  0.00  0.00     0.091 C 
ATOM     24  C12 H1S d 501      40.863   2.264  14.994  0.00  0.00     0.135 C 
ATOM     25  C7  H1S d 501      39.464   1.872  14.511  0.00  0.00     0.167 C 
ATOM     26  O15 H1S d 501      35.595  -1.988  15.515  0.00  0.00    -0.369 OA
ATOM     27  S26 H1S d 501      41.887   4.379  14.935  0.00  0.00     0.252 S 
ATOM     28  O22 H1S d 501      38.012   0.685  20.942  0.00  0.00    -0.572 OA
ATOM     29  C8  H1S d 501      35.282   0.279  14.702  0.00  0.00     0.081 C 
ATOM     30  O30 H1S d 501      32.167  -0.054  12.554  0.00  0.00    -0.296 OA
ATOM     31  O13 H1S d 501      39.543   1.668  13.090  0.00  0.00    -0.311 OA
ATOM     32  C4  H1S d 501      36.754   0.392  14.302  0.00  0.00     0.083 C 
ATOM     33  C19 H1S d 501      40.425   0.694  12.734  0.00  0.00     0.147 C 
ATOM     34  O33 H1S d 501      43.059   3.881  15.727  0.00  0.00    -0.572 OA
ATOM     35  O3  H1S d 501      39.019   0.656  15.165  0.00  0.00    -0.348 OA
ATOM     36  H   H1S d 501      37.393   1.769  15.810  0.00  0.00     0.091 H 
ATOM     37  H   H1S d 501      33.076   1.012  15.530  0.00  0.00     0.231 HD
ATOM     38  H   H1S d 501      37.816   1.481  13.037  0.00  0.00     0.210 HD
ATOM     39  H   H1S d 501      41.726   0.589  16.779  0.00  0.00     0.210 HD
ATOM     40  H   H1S d 501      39.148   0.241  17.657  0.00  0.00     0.080 H 
ATOM     41  H   H1S d 501      37.777   1.200  18.189  0.00  0.00     0.080 H 
ATOM     42  H   H1S d 501      42.813   1.386  14.890  0.00  0.00     0.093 H 
ATOM     43  H   H1S d 501      32.960  -1.432  15.434  0.00  0.00     0.231 HD
ATOM     44  H   H1S d 501      34.720   0.364  12.738  0.00  0.00     0.140 HD
ATOM     45  H   H1S d 501      42.162  -0.388  13.208  0.00  0.00     0.085 H 
ATOM     46  H   H1S d 501      34.102  -0.747  16.163  0.00  0.00     0.131 H 
ATOM     47  H   H1S d 501      37.594  -1.192  16.353  0.00  0.00     0.090 H 
ATOM     48  H   H1S d 501      40.827   2.585  16.014  0.00  0.00     0.097 H 
ATOM     49  H   H1S d 501      38.760   2.643  14.747  0.00  0.00     0.134 H 
ATOM     50  H   H1S d 501      36.529  -1.939  15.260  0.00  0.00     0.212 HD
ATOM     51  H   H1S d 501      34.916   1.240  14.996  0.00  0.00     0.076 H 
ATOM     52  H   H1S d 501      32.367  -0.836  12.016  0.00  0.00     0.231 HD
ATOM     53  H   H1S d 501      37.088  -0.552  13.925  0.00  0.00     0.089 H 
ENDROOT
TORSDOF 16
ENDMDL
MODEL 20
REMARK VINA RESULT:      -8.8      2.786      6.288
REMARK  0 active torsions:
REMARK  status: ('A' for Active; 'I' for Inactive)
REMARK       I    between atoms: C1_1  and  O3_35 
REMARK       I    between atoms: O18_2  and  C12_24 
REMARK       I    between atoms: O18_2  and  S26_27 
REMARK       I    between atoms: S20_5  and  N14_19 
REMARK       I    between atoms: S20_5  and  O28_18 
REMARK       I    between atoms: S20_5  and  O29_7 
REMARK       I    between atoms: S20_5  and  O30_30 
REMARK       I    between atoms: C27_6  and  C19_33 
REMARK       I    between atoms: O9_8  and  C4_32 
REMARK       I    between atoms: S16_9  and  O11_10 
REMARK       I    between atoms: O11_10  and  C6_15 
REMARK       I    between atoms: O25_14  and  C17_17 
REMARK       I    between atoms: C6_15  and  C2_23 
REMARK       I    between atoms: N14_19  and  C8_29 
REMARK       I    between atoms: C10_22  and  O15_26 
REMARK       I    between atoms: C7_25  and  O3_35 
ROOT
ATOM      1  C1  H1S d 501      37.680  -0.624  15.838  0.00  0.00     0.095 C 
ATOM      2  O18 H1S d 501      38.625   1.952  11.995  0.00  0.00    -0.244 OA
ATOM      3  O34 H1S d 501      40.506   3.538  16.425  0.00  0.00    -0.642 OA
ATOM      4  O35 H1S d 501      38.954   5.088  16.155  0.00  0.00    -0.642 OA
ATOM      5  S20 H1S d 501      40.275  -2.709  19.664  0.00  0.00     0.156 S 
ATOM      6  C27 H1S d 501      39.456   3.968  15.906  0.00  0.00     0.233 C 
ATOM      7  O29 H1S d 501      40.365  -3.862  18.710  0.00  0.00    -0.296 OA
ATOM      8  O9  H1S d 501      39.993  -0.072  16.277  0.00  0.00    -0.391 OA
ATOM      9  S16 H1S d 501      33.036  -2.249  15.175  0.00  0.00     0.251 S 
ATOM     10  O11 H1S d 501      34.162  -1.956  16.006  0.00  0.00    -0.254 OA
ATOM     11  O32 H1S d 501      38.295  -0.013  10.667  0.00  0.00    -0.572 OA
ATOM     12  O5  H1S d 501      36.696  -2.371  17.236  0.00  0.00    -0.350 OA
ATOM     13  O23 H1S d 501      31.813  -2.414  16.027  0.00  0.00    -0.572 OA
ATOM     14  O25 H1S d 501      35.553   2.189  13.934  0.00  0.00    -0.389 OA
ATOM     15  C6  H1S d 501      35.379  -1.483  15.423  0.00  0.00     0.067 C 
ATOM     16  O21 H1S d 501      32.823  -1.122  14.208  0.00  0.00    -0.572 OA
ATOM     17  C17 H1S d 501      36.759   2.669  13.330  0.00  0.00     0.086 C 
ATOM     18  O28 H1S d 501      39.236  -3.004  20.705  0.00  0.00    -0.296 OA
ATOM     19  N14 H1S d 501      39.869  -1.351  18.859  0.00  0.00    -0.210 NA
ATOM     20  O31 H1S d 501      39.456   1.942   9.754  0.00  0.00    -0.572 OA
ATOM     21  C24 H1S d 501      37.533   3.513  14.345  0.00  0.00    -0.034 C 
ATOM     22  C10 H1S d 501      37.591  -2.106  18.326  0.00  0.00     0.147 C 
ATOM     23  C2  H1S d 501      36.413  -1.166  16.505  0.00  0.00     0.091 C 
ATOM     24  C12 H1S d 501      37.621   1.480  12.899  0.00  0.00     0.135 C 
ATOM     25  C7  H1S d 501      38.322   0.900  14.130  0.00  0.00     0.167 C 
ATOM     26  O15 H1S d 501      37.037  -1.084  19.159  0.00  0.00    -0.369 OA
ATOM     27  S26 H1S d 501      38.358   1.487  10.668  0.00  0.00     0.252 S 
ATOM     28  O22 H1S d 501      33.293  -3.517  14.416  0.00  0.00    -0.572 OA
ATOM     29  C8  H1S d 501      38.939  -1.650  17.761  0.00  0.00     0.081 C 
ATOM     30  O30 H1S d 501      41.605  -2.505  20.328  0.00  0.00    -0.296 OA
ATOM     31  O13 H1S d 501      39.286   1.870  14.571  0.00  0.00    -0.311 OA
ATOM     32  C4  H1S d 501      38.750  -0.393  16.909  0.00  0.00     0.083 C 
ATOM     33  C19 H1S d 501      38.732   3.069  14.901  0.00  0.00     0.147 C 
ATOM     34  O33 H1S d 501      37.050   2.044  10.191  0.00  0.00    -0.572 OA
ATOM     35  O3  H1S d 501      37.364   0.633  15.187  0.00  0.00    -0.348 OA
ATOM     36  H   H1S d 501      38.046  -1.324  15.115  0.00  0.00     0.091 H 
ATOM     37  H   H1S d 501      39.505  -3.995  18.281  0.00  0.00     0.231 HD
ATOM     38  H   H1S d 501      39.883   0.725  15.734  0.00  0.00     0.210 HD
ATOM     39  H   H1S d 501      35.061   1.654  13.292  0.00  0.00     0.210 HD
ATOM     40  H   H1S d 501      35.177  -0.596  14.860  0.00  0.00     0.080 H 
ATOM     41  H   H1S d 501      35.773  -2.247  14.786  0.00  0.00     0.080 H 
ATOM     42  H   H1S d 501      36.517   3.265  12.474  0.00  0.00     0.093 H 
ATOM     43  H   H1S d 501      38.377  -3.136  20.276  0.00  0.00     0.231 HD
ATOM     44  H   H1S d 501      40.713  -0.925  18.475  0.00  0.00     0.140 HD
ATOM     45  H   H1S d 501      37.158   4.433  14.625  0.00  0.00     0.085 H 
ATOM     46  H   H1S d 501      37.732  -2.992  18.910  0.00  0.00     0.131 H 
ATOM     47  H   H1S d 501      36.040  -0.427  17.183  0.00  0.00     0.090 H 
ATOM     48  H   H1S d 501      37.010   0.735  12.434  0.00  0.00     0.097 H 
ATOM     49  H   H1S d 501      38.798  -0.026  13.884  0.00  0.00     0.134 H 
ATOM     50  H   H1S d 501      36.906  -0.277  18.637  0.00  0.00     0.212 HD
ATOM     51  H   H1S d 501      39.340  -2.436  17.156  0.00  0.00     0.076 H 
ATOM     52  H   H1S d 501      41.547  -1.760  20.946  0.00  0.00     0.231 HD
ATOM     53  H   H1S d 501      38.435   0.412  17.538  0.00  0.00     0.089 H 
ENDROOT
TORSDOF 16
ENDMDL
MODEL 21
REMARK VINA RESULT:      -8.8      2.195      6.480
REMARK  0 active torsions:
REMARK  status: ('A' for Active; 'I' for Inactive)
REMARK       I    between atoms: C1_1  and  O3_35 
REMARK       I    between atoms: O18_2  and  C12_24 
REMARK       I    between atoms: O18_2  and  S26_27 
REMARK       I    between atoms: S20_5  and  N14_19 
REMARK       I    between atoms: S20_5  and  O28_18 
REMARK       I    between atoms: S20_5  and  O29_7 
REMARK       I    between atoms: S20_5  and  O30_30 
REMARK       I    between atoms: C27_6  and  C19_33 
REMARK       I    between atoms: O9_8  and  C4_32 
REMARK       I    between atoms: S16_9  and  O11_10 
REMARK       I    between atoms: O11_10  and  C6_15 
REMARK       I    between atoms: O25_14  and  C17_17 
REMARK       I    between atoms: C6_15  and  C2_23 
REMARK       I    between atoms: N14_19  and  C8_29 
REMARK       I    between atoms: C10_22  and  O15_26 
REMARK       I    between atoms: C7_25  and  O3_35 
ROOT
ATOM      1  C1  H1S d 501      37.741   1.211  15.482  0.00  0.00     0.095 C 
ATOM      2  O18 H1S d 501      40.245   3.787  12.418  0.00  0.00    -0.244 OA
ATOM      3  O34 H1S d 501      41.502   4.063  17.320  0.00  0.00    -0.642 OA
ATOM      4  O35 H1S d 501      40.596   6.067  17.100  0.00  0.00    -0.642 OA
ATOM      5  S20 H1S d 501      38.671  -2.100  19.210  0.00  0.00     0.156 S 
ATOM      6  C27 H1S d 501      40.774   4.885  16.727  0.00  0.00     0.233 C 
ATOM      7  O29 H1S d 501      38.611  -3.083  18.079  0.00  0.00    -0.296 OA
ATOM      8  O9  H1S d 501      39.957   0.889  16.396  0.00  0.00    -0.391 OA
ATOM      9  S16 H1S d 501      33.087   1.348  13.759  0.00  0.00     0.251 S 
ATOM     10  O11 H1S d 501      34.038   1.134  14.806  0.00  0.00    -0.254 OA
ATOM     11  O32 H1S d 501      39.632   2.236  10.700  0.00  0.00    -0.572 OA
ATOM     12  O5  H1S d 501      35.990  -0.265  16.334  0.00  0.00    -0.350 OA
ATOM     13  O23 H1S d 501      31.717   1.497  14.349  0.00  0.00    -0.572 OA
ATOM     14  O25 H1S d 501      37.046   4.796  13.831  0.00  0.00    -0.389 OA
ATOM     15  C6  H1S d 501      35.438   1.239  14.535  0.00  0.00     0.067 C 
ATOM     16  O21 H1S d 501      33.446   2.595  13.006  0.00  0.00    -0.572 OA
ATOM     17  C17 H1S d 501      38.442   4.914  13.539  0.00  0.00     0.086 C 
ATOM     18  O28 H1S d 501      37.390  -2.158  19.988  0.00  0.00    -0.296 OA
ATOM     19  N14 H1S d 501      38.886  -0.593  18.625  0.00  0.00    -0.210 NA
ATOM     20  O31 H1S d 501      41.504   3.785  10.386  0.00  0.00    -0.572 OA
ATOM     21  C24 H1S d 501      39.195   5.310  14.811  0.00  0.00    -0.034 C 
ATOM     22  C10 H1S d 501      36.661  -0.461  17.588  0.00  0.00     0.147 C 
ATOM     23  C2  H1S d 501      36.255   1.048  15.813  0.00  0.00     0.091 C 
ATOM     24  C12 H1S d 501      38.973   3.570  13.035  0.00  0.00     0.135 C 
ATOM     25  C7  H1S d 501      39.175   2.635  14.230  0.00  0.00     0.167 C 
ATOM     26  O15 H1S d 501      36.276   0.573  18.499  0.00  0.00    -0.369 OA
ATOM     27  S26 H1S d 501      40.147   3.613  11.001  0.00  0.00     0.252 S 
ATOM     28  O22 H1S d 501      33.105   0.175  12.823  0.00  0.00    -0.572 OA
ATOM     29  C8  H1S d 501      38.173  -0.417  17.352  0.00  0.00     0.081 C 
ATOM     30  O30 H1S d 501      39.820  -2.444  20.111  0.00  0.00    -0.296 OA
ATOM     31  O13 H1S d 501      40.269   3.158  15.003  0.00  0.00    -0.311 OA
ATOM     32  C4  H1S d 501      38.569   0.927  16.739  0.00  0.00     0.083 C 
ATOM     33  C19 H1S d 501      40.048   4.421  15.462  0.00  0.00     0.147 C 
ATOM     34  O33 H1S d 501      39.209   4.636  10.431  0.00  0.00    -0.572 OA
ATOM     35  O3  H1S d 501      37.974   2.573  15.042  0.00  0.00    -0.348 OA
ATOM     36  H   H1S d 501      38.026   0.527  14.709  0.00  0.00     0.091 H 
ATOM     37  H   H1S d 501      37.869  -2.862  17.496  0.00  0.00     0.231 HD
ATOM     38  H   H1S d 501      40.217   1.739  16.006  0.00  0.00     0.210 HD
ATOM     39  H   H1S d 501      36.567   4.546  13.026  0.00  0.00     0.210 HD
ATOM     40  H   H1S d 501      35.645   2.207  14.127  0.00  0.00     0.080 H 
ATOM     41  H   H1S d 501      35.709   0.476  13.836  0.00  0.00     0.080 H 
ATOM     42  H   H1S d 501      38.587   5.662  12.786  0.00  0.00     0.093 H 
ATOM     43  H   H1S d 501      36.647  -1.936  19.406  0.00  0.00     0.231 HD
ATOM     44  H   H1S d 501      39.882  -0.432  18.476  0.00  0.00     0.140 HD
ATOM     45  H   H1S d 501      39.066   6.258  15.197  0.00  0.00     0.085 H 
ATOM     46  H   H1S d 501      36.393  -1.409  18.005  0.00  0.00     0.131 H 
ATOM     47  H   H1S d 501      35.987   1.775  16.550  0.00  0.00     0.090 H 
ATOM     48  H   H1S d 501      38.281   3.141  12.341  0.00  0.00     0.097 H 
ATOM     49  H   H1S d 501      39.388   1.642  13.892  0.00  0.00     0.134 H 
ATOM     50  H   H1S d 501      36.516   1.437  18.128  0.00  0.00     0.212 HD
ATOM     51  H   H1S d 501      38.438  -1.208  16.682  0.00  0.00     0.076 H 
ATOM     52  H   H1S d 501      39.858  -1.808  20.842  0.00  0.00     0.231 HD
ATOM     53  H   H1S d 501      38.384   1.704  17.451  0.00  0.00     0.089 H 
ENDROOT
TORSDOF 16
ENDMDL
MODEL 22
REMARK VINA RESULT:      -8.8      2.534      6.912
REMARK  0 active torsions:
REMARK  status: ('A' for Active; 'I' for Inactive)
REMARK       I    between atoms: C1_1  and  O3_35 
REMARK       I    between atoms: O18_2  and  C12_24 
REMARK       I    between atoms: O18_2  and  S26_27 
REMARK       I    between atoms: S20_5  and  N14_19 
REMARK       I    between atoms: S20_5  and  O28_18 
REMARK       I    between atoms: S20_5  and  O29_7 
REMARK       I    between atoms: S20_5  and  O30_30 
REMARK       I    between atoms: C27_6  and  C19_33 
REMARK       I    between atoms: O9_8  and  C4_32 
REMARK       I    between atoms: S16_9  and  O11_10 
REMARK       I    between atoms: O11_10  and  C6_15 
REMARK       I    between atoms: O25_14  and  C17_17 
REMARK       I    between atoms: C6_15  and  C2_23 
REMARK       I    between atoms: N14_19  and  C8_29 
REMARK       I    between atoms: C10_22  and  O15_26 
REMARK       I    between atoms: C7_25  and  O3_35 
ROOT
ATOM      1  C1  H1S d 501      36.694   0.915  14.206  0.00  0.00     0.095 C 
ATOM      2  O18 H1S d 501      41.324   1.221  13.330  0.00  0.00    -0.244 OA
ATOM      3  O34 H1S d 501      39.854  -1.455  17.375  0.00  0.00    -0.642 OA
ATOM      4  O35 H1S d 501      40.709   0.289  18.429  0.00  0.00    -0.642 OA
ATOM      5  S20 H1S d 501      33.304  -2.741  15.135  0.00  0.00     0.156 S 
ATOM      6  C27 H1S d 501      40.239  -0.269  17.411  0.00  0.00     0.233 C 
ATOM      7  O29 H1S d 501      33.190  -2.738  13.640  0.00  0.00    -0.296 OA
ATOM      8  O9  H1S d 501      37.355  -1.353  14.718  0.00  0.00    -0.391 OA
ATOM      9  S16 H1S d 501      34.864   5.358  12.957  0.00  0.00     0.251 S 
ATOM     10  O11 H1S d 501      34.780   4.110  13.649  0.00  0.00    -0.254 OA
ATOM     11  O32 H1S d 501      40.804   1.620  11.027  0.00  0.00    -0.572 OA
ATOM     12  O5  H1S d 501      34.294   1.326  13.994  0.00  0.00    -0.350 OA
ATOM     13  O23 H1S d 501      33.860   6.316  13.525  0.00  0.00    -0.572 OA
ATOM     14  O25 H1S d 501      39.385   3.751  15.088  0.00  0.00    -0.389 OA
ATOM     15  C6  H1S d 501      35.809   3.131  13.488  0.00  0.00     0.067 C 
ATOM     16  O21 H1S d 501      36.243   5.926  13.118  0.00  0.00    -0.572 OA
ATOM     17  C17 H1S d 501      40.431   2.789  14.918  0.00  0.00     0.086 C 
ATOM     18  O28 H1S d 501      32.129  -2.021  15.726  0.00  0.00    -0.296 OA
ATOM     19  N14 H1S d 501      34.683  -1.997  15.589  0.00  0.00    -0.210 NA
ATOM     20  O31 H1S d 501      43.059   0.949  11.709  0.00  0.00    -0.572 OA
ATOM     21  C24 H1S d 501      40.510   1.902  16.163  0.00  0.00    -0.034 C 
ATOM     22  C10 H1S d 501      33.956   0.236  14.863  0.00  0.00     0.147 C 
ATOM     23  C2  H1S d 501      35.547   1.915  14.379  0.00  0.00     0.091 C 
ATOM     24  C12 H1S d 501      40.129   1.919  13.696  0.00  0.00     0.135 C 
ATOM     25  C7  H1S d 501      39.067   0.882  14.071  0.00  0.00     0.167 C 
ATOM     26  O15 H1S d 501      33.945   0.694  16.219  0.00  0.00    -0.369 OA
ATOM     27  S26 H1S d 501      41.846   1.737  12.102  0.00  0.00     0.252 S 
ATOM     28  O22 H1S d 501      34.579   5.140  11.499  0.00  0.00    -0.572 OA
ATOM     29  C8  H1S d 501      34.995  -0.876  14.693  0.00  0.00     0.081 C 
ATOM     30  O30 H1S d 501      33.325  -4.156  15.632  0.00  0.00    -0.296 OA
ATOM     31  O13 H1S d 501      39.673  -0.037  14.996  0.00  0.00    -0.311 OA
ATOM     32  C4  H1S d 501      36.389  -0.343  15.024  0.00  0.00     0.083 C 
ATOM     33  C19 H1S d 501      40.129   0.561  16.130  0.00  0.00     0.147 C 
ATOM     34  O33 H1S d 501      42.223   3.178  12.280  0.00  0.00    -0.572 OA
ATOM     35  O3  H1S d 501      37.920   1.524  14.686  0.00  0.00    -0.348 OA
ATOM     36  H   H1S d 501      36.802   0.651  13.174  0.00  0.00     0.091 H 
ATOM     37  H   H1S d 501      33.176  -1.823  13.319  0.00  0.00     0.231 HD
ATOM     38  H   H1S d 501      38.244  -1.024  14.925  0.00  0.00     0.210 HD
ATOM     39  H   H1S d 501      39.334   4.315  14.300  0.00  0.00     0.210 HD
ATOM     40  H   H1S d 501      36.751   3.564  13.754  0.00  0.00     0.080 H 
ATOM     41  H   H1S d 501      35.821   2.811  12.467  0.00  0.00     0.080 H 
ATOM     42  H   H1S d 501      41.363   3.296  14.777  0.00  0.00     0.093 H 
ATOM     43  H   H1S d 501      32.115  -1.106  15.405  0.00  0.00     0.231 HD
ATOM     44  H   H1S d 501      35.450  -2.670  15.562  0.00  0.00     0.140 HD
ATOM     45  H   H1S d 501      40.854   2.306  17.048  0.00  0.00     0.085 H 
ATOM     46  H   H1S d 501      32.985  -0.143  14.618  0.00  0.00     0.131 H 
ATOM     47  H   H1S d 501      35.495   2.201  15.409  0.00  0.00     0.090 H 
ATOM     48  H   H1S d 501      39.783   2.530  12.889  0.00  0.00     0.097 H 
ATOM     49  H   H1S d 501      38.722   0.372  13.197  0.00  0.00     0.134 H 
ATOM     50  H   H1S d 501      34.822   1.040  16.449  0.00  0.00     0.212 HD
ATOM     51  H   H1S d 501      34.971  -1.213  13.678  0.00  0.00     0.076 H 
ATOM     52  H   H1S d 501      33.399  -4.158  16.599  0.00  0.00     0.231 HD
ATOM     53  H   H1S d 501      36.431  -0.093  16.063  0.00  0.00     0.089 H 
ENDROOT
TORSDOF 16
ENDMDL
MODEL 23
REMARK VINA RESULT:      -8.8      2.757      7.179
REMARK  0 active torsions:
REMARK  status: ('A' for Active; 'I' for Inactive)
REMARK       I    between atoms: C1_1  and  O3_35 
REMARK       I    between atoms: O18_2  and  C12_24 
REMARK       I    between atoms: O18_2  and  S26_27 
REMARK       I    between atoms: S20_5  and  N14_19 
REMARK       I    between atoms: S20_5  and  O28_18 
REMARK       I    between atoms: S20_5  and  O29_7 
REMARK       I    between atoms: S20_5  and  O30_30 
REMARK       I    between atoms: C27_6  and  C19_33 
REMARK       I    between atoms: O9_8  and  C4_32 
REMARK       I    between atoms: S16_9  and  O11_10 
REMARK       I    between atoms: O11_10  and  C6_15 
REMARK       I    between atoms: O25_14  and  C17_17 
REMARK       I    between atoms: C6_15  and  C2_23 
REMARK       I    between atoms: N14_19  and  C8_29 
REMARK       I    between atoms: C10_22  and  O15_26 
REMARK       I    between atoms: C7_25  and  O3_35 
ROOT
ATOM      1  C1  H1S d 501      36.584   0.091  15.423  0.00  0.00     0.095 C 
ATOM      2  O18 H1S d 501      41.168  -0.140  16.535  0.00  0.00    -0.244 OA
ATOM      3  O34 H1S d 501      37.893  -2.657  19.472  0.00  0.00    -0.642 OA
ATOM      4  O35 H1S d 501      38.412  -1.032  20.878  0.00  0.00    -0.642 OA
ATOM      5  S20 H1S d 501      32.755  -3.151  14.683  0.00  0.00     0.156 S 
ATOM      6  C27 H1S d 501      38.349  -1.523  19.728  0.00  0.00     0.233 C 
ATOM      7  O29 H1S d 501      33.269  -3.123  13.275  0.00  0.00    -0.296 OA
ATOM      8  O9  H1S d 501      36.737  -2.243  16.036  0.00  0.00    -0.391 OA
ATOM      9  S16 H1S d 501      35.902   4.727  13.782  0.00  0.00     0.251 S 
ATOM     10  O11 H1S d 501      35.411   3.492  14.310  0.00  0.00    -0.254 OA
ATOM     11  O32 H1S d 501      41.688   0.335  14.247  0.00  0.00    -0.572 OA
ATOM     12  O5  H1S d 501      34.542   0.781  14.272  0.00  0.00    -0.350 OA
ATOM     13  O23 H1S d 501      34.858   5.791  13.942  0.00  0.00    -0.572 OA
ATOM     14  O25 H1S d 501      38.949   2.586  17.484  0.00  0.00    -0.389 OA
ATOM     15  C6  H1S d 501      36.308   2.400  14.530  0.00  0.00     0.067 C 
ATOM     16  O21 H1S d 501      37.143   5.128  14.524  0.00  0.00    -0.572 OA
ATOM     17  C17 H1S d 501      39.866   1.510  17.704  0.00  0.00     0.086 C 
ATOM     18  O28 H1S d 501      31.522  -2.303  14.781  0.00  0.00    -0.296 OA
ATOM     19  N14 H1S d 501      33.892  -2.577  15.702  0.00  0.00    -0.210 NA
ATOM     20  O31 H1S d 501      43.379  -0.600  15.754  0.00  0.00    -0.572 OA
ATOM     21  C24 H1S d 501      39.333   0.610  18.821  0.00  0.00    -0.034 C 
ATOM     22  C10 H1S d 501      33.764  -0.269  14.866  0.00  0.00     0.147 C 
ATOM     23  C2  H1S d 501      35.578   1.217  15.168  0.00  0.00     0.091 C 
ATOM     24  C12 H1S d 501      40.008   0.690  16.419  0.00  0.00     0.135 C 
ATOM     25  C7  H1S d 501      38.784  -0.218  16.270  0.00  0.00     0.167 C 
ATOM     26  O15 H1S d 501      33.243   0.178  16.121  0.00  0.00    -0.369 OA
ATOM     27  S26 H1S d 501      42.200   0.321  15.658  0.00  0.00     0.252 S 
ATOM     28  O22 H1S d 501      36.223   4.554  12.326  0.00  0.00    -0.572 OA
ATOM     29  C8  H1S d 501      34.660  -1.493  15.074  0.00  0.00     0.081 C 
ATOM     30  O30 H1S d 501      32.423  -4.562  15.067  0.00  0.00    -0.296 OA
ATOM     31  O13 H1S d 501      38.856  -1.209  17.309  0.00  0.00    -0.311 OA
ATOM     32  C4  H1S d 501      35.841  -1.129  15.975  0.00  0.00     0.083 C 
ATOM     33  C19 H1S d 501      38.863  -0.676  18.561  0.00  0.00     0.147 C 
ATOM     34  O33 H1S d 501      42.617   1.707  16.054  0.00  0.00    -0.572 OA
ATOM     35  O3  H1S d 501      37.559   0.549  16.396  0.00  0.00    -0.348 OA
ATOM     36  H   H1S d 501      37.080  -0.176  14.513  0.00  0.00     0.091 H 
ATOM     37  H   H1S d 501      33.483  -2.211  13.027  0.00  0.00     0.231 HD
ATOM     38  H   H1S d 501      37.490  -2.022  16.606  0.00  0.00     0.210 HD
ATOM     39  H   H1S d 501      39.286   3.158  16.776  0.00  0.00     0.210 HD
ATOM     40  H   H1S d 501      37.096   2.719  15.181  0.00  0.00     0.080 H 
ATOM     41  H   H1S d 501      36.708   2.089  13.588  0.00  0.00     0.080 H 
ATOM     42  H   H1S d 501      40.821   1.905  17.984  0.00  0.00     0.093 H 
ATOM     43  H   H1S d 501      31.736  -1.390  14.532  0.00  0.00     0.231 HD
ATOM     44  H   H1S d 501      34.528  -3.334  15.953  0.00  0.00     0.140 HD
ATOM     45  H   H1S d 501      39.321   0.964  19.790  0.00  0.00     0.085 H 
ATOM     46  H   H1S d 501      32.948  -0.530  14.224  0.00  0.00     0.131 H 
ATOM     47  H   H1S d 501      35.136   1.499  16.100  0.00  0.00     0.090 H 
ATOM     48  H   H1S d 501      40.090   1.343  15.576  0.00  0.00     0.097 H 
ATOM     49  H   H1S d 501      38.779  -0.678  15.303  0.00  0.00     0.134 H 
ATOM     50  H   H1S d 501      33.977   0.417  16.709  0.00  0.00     0.212 HD
ATOM     51  H   H1S d 501      35.023  -1.817  14.121  0.00  0.00     0.076 H 
ATOM     52  H   H1S d 501      32.090  -4.580  15.978  0.00  0.00     0.231 HD
ATOM     53  H   H1S d 501      35.476  -0.893  16.952  0.00  0.00     0.089 H 
ENDROOT
TORSDOF 16
ENDMDL
MODEL 24
REMARK VINA RESULT:      -8.8      3.197      7.081
REMARK  0 active torsions:
REMARK  status: ('A' for Active; 'I' for Inactive)
REMARK       I    between atoms: C1_1  and  O3_35 
REMARK       I    between atoms: O18_2  and  C12_24 
REMARK       I    between atoms: O18_2  and  S26_27 
REMARK       I    between atoms: S20_5  and  N14_19 
REMARK       I    between atoms: S20_5  and  O28_18 
REMARK       I    between atoms: S20_5  and  O29_7 
REMARK       I    between atoms: S20_5  and  O30_30 
REMARK       I    between atoms: C27_6  and  C19_33 
REMARK       I    between atoms: O9_8  and  C4_32 
REMARK       I    between atoms: S16_9  and  O11_10 
REMARK       I    between atoms: O11_10  and  C6_15 
REMARK       I    between atoms: O25_14  and  C17_17 
REMARK       I    between atoms: C6_15  and  C2_23 
REMARK       I    between atoms: N14_19  and  C8_29 
REMARK       I    between atoms: C10_22  and  O15_26 
REMARK       I    between atoms: C7_25  and  O3_35 
ROOT
ATOM      1  C1  H1S d 501      37.428   3.248  13.835  0.00  0.00     0.095 C 
ATOM      2  O18 H1S d 501      39.918  -0.661  12.930  0.00  0.00    -0.244 OA
ATOM      3  O34 H1S d 501      35.287  -1.213  14.913  0.00  0.00    -0.642 OA
ATOM      4  O35 H1S d 501      36.473  -1.780  16.689  0.00  0.00    -0.642 OA
ATOM      5  S20 H1S d 501      32.788   5.033  12.836  0.00  0.00     0.156 S 
ATOM      6  C27 H1S d 501      36.347  -1.231  15.572  0.00  0.00     0.233 C 
ATOM      7  O29 H1S d 501      33.471   5.552  11.606  0.00  0.00    -0.296 OA
ATOM      8  O9  H1S d 501      35.670   1.842  12.954  0.00  0.00    -0.391 OA
ATOM      9  S16 H1S d 501      40.780   6.561  15.396  0.00  0.00     0.251 S 
ATOM     10  O11 H1S d 501      39.437   6.084  15.286  0.00  0.00    -0.254 OA
ATOM     11  O32 H1S d 501      41.142   0.569  11.281  0.00  0.00    -0.572 OA
ATOM     12  O5  H1S d 501      36.906   5.625  14.067  0.00  0.00    -0.350 OA
ATOM     13  O23 H1S d 501      40.856   7.602  16.473  0.00  0.00    -0.572 OA
ATOM     14  O25 H1S d 501      40.274   1.363  15.935  0.00  0.00    -0.389 OA
ATOM     15  C6  H1S d 501      39.157   4.901  14.533  0.00  0.00     0.067 C 
ATOM     16  O21 H1S d 501      41.689   5.419  15.740  0.00  0.00    -0.572 OA
ATOM     17  C17 H1S d 501      40.018   0.173  15.183  0.00  0.00     0.086 C 
ATOM     18  O28 H1S d 501      32.599   6.155  13.813  0.00  0.00    -0.296 OA
ATOM     19  N14 H1S d 501      33.691   3.861  13.521  0.00  0.00    -0.210 NA
ATOM     20  O31 H1S d 501      41.177  -1.881  11.306  0.00  0.00    -0.572 OA
ATOM     21  C24 H1S d 501      38.753  -0.502  15.718  0.00  0.00    -0.034 C 
ATOM     22  C10 H1S d 501      35.499   5.377  14.210  0.00  0.00     0.147 C 
ATOM     23  C2  H1S d 501      37.672   4.541  14.618  0.00  0.00     0.091 C 
ATOM     24  C12 H1S d 501      39.814   0.535  13.710  0.00  0.00     0.135 C 
ATOM     25  C7  H1S d 501      38.404   1.102  13.527  0.00  0.00     0.167 C 
ATOM     26  O15 H1S d 501      35.195   5.144  15.588  0.00  0.00    -0.369 OA
ATOM     27  S26 H1S d 501      41.122  -0.649  12.158  0.00  0.00     0.252 S 
ATOM     28  O22 H1S d 501      41.205   7.162  14.088  0.00  0.00    -0.572 OA
ATOM     29  C8  H1S d 501      35.124   4.150  13.374  0.00  0.00     0.081 C 
ATOM     30  O30 H1S d 501      31.450   4.465  12.463  0.00  0.00    -0.296 OA
ATOM     31  O13 H1S d 501      37.476   0.024  13.739  0.00  0.00    -0.311 OA
ATOM     32  C4  H1S d 501      35.929   2.935  13.839  0.00  0.00     0.083 C 
ATOM     33  C19 H1S d 501      37.573  -0.533  14.977  0.00  0.00     0.147 C 
ATOM     34  O33 H1S d 501      42.309  -0.625  13.075  0.00  0.00    -0.572 OA
ATOM     35  O3  H1S d 501      38.154   2.169  14.478  0.00  0.00    -0.348 OA
ATOM     36  H   H1S d 501      37.765   3.358  12.825  0.00  0.00     0.091 H 
ATOM     37  H   H1S d 501      34.335   5.920  11.847  0.00  0.00     0.231 HD
ATOM     38  H   H1S d 501      36.177   1.065  13.241  0.00  0.00     0.210 HD
ATOM     39  H   H1S d 501      41.076   1.792  15.597  0.00  0.00     0.210 HD
ATOM     40  H   H1S d 501      39.737   4.091  14.923  0.00  0.00     0.080 H 
ATOM     41  H   H1S d 501      39.408   5.080  13.508  0.00  0.00     0.080 H 
ATOM     42  H   H1S d 501      40.850  -0.495  15.276  0.00  0.00     0.093 H 
ATOM     43  H   H1S d 501      33.463   6.523  14.054  0.00  0.00     0.231 HD
ATOM     44  H   H1S d 501      33.482   2.971  13.068  0.00  0.00     0.140 HD
ATOM     45  H   H1S d 501      38.775  -0.945  16.650  0.00  0.00     0.085 H 
ATOM     46  H   H1S d 501      34.940   6.224  13.869  0.00  0.00     0.131 H 
ATOM     47  H   H1S d 501      37.376   4.387  15.634  0.00  0.00     0.090 H 
ATOM     48  H   H1S d 501      40.545   1.252  13.405  0.00  0.00     0.097 H 
ATOM     49  H   H1S d 501      38.293   1.513  12.545  0.00  0.00     0.134 H 
ATOM     50  H   H1S d 501      35.699   4.378  15.905  0.00  0.00     0.212 HD
ATOM     51  H   H1S d 501      35.345   4.354  12.348  0.00  0.00     0.076 H 
ATOM     52  H   H1S d 501      31.009   4.129  13.258  0.00  0.00     0.231 HD
ATOM     53  H   H1S d 501      35.637   2.682  14.837  0.00  0.00     0.089 H 
ENDROOT
TORSDOF 16
ENDMDL
MODEL 25
REMARK VINA RESULT:      -8.7      2.709      7.530
REMARK  0 active torsions:
REMARK  status: ('A' for Active; 'I' for Inactive)
REMARK       I    between atoms: C1_1  and  O3_35 
REMARK       I    between atoms: O18_2  and  C12_24 
REMARK       I    between atoms: O18_2  and  S26_27 
REMARK       I    between atoms: S20_5  and  N14_19 
REMARK       I    between atoms: S20_5  and  O28_18 
REMARK       I    between atoms: S20_5  and  O29_7 
REMARK       I    between atoms: S20_5  and  O30_30 
REMARK       I    between atoms: C27_6  and  C19_33 
REMARK       I    between atoms: O9_8  and  C4_32 
REMARK       I    between atoms: S16_9  and  O11_10 
REMARK       I    between atoms: O11_10  and  C6_15 
REMARK       I    between atoms: O25_14  and  C17_17 
REMARK       I    between atoms: C6_15  and  C2_23 
REMARK       I    between atoms: N14_19  and  C8_29 
REMARK       I    between atoms: C10_22  and  O15_26 
REMARK       I    between atoms: C7_25  and  O3_35 
ROOT
ATOM      1  C1  H1S d 501      37.246   2.066  15.660  0.00  0.00     0.095 C 
ATOM      2  O18 H1S d 501      40.073   5.775  14.921  0.00  0.00    -0.244 OA
ATOM      3  O34 H1S d 501      39.164   2.679  11.013  0.00  0.00    -0.642 OA
ATOM      4  O35 H1S d 501      41.266   2.115  11.396  0.00  0.00    -0.642 OA
ATOM      5  S20 H1S d 501      33.142   0.012  13.502  0.00  0.00     0.156 S 
ATOM      6  C27 H1S d 501      40.176   2.623  11.742  0.00  0.00     0.233 C 
ATOM      7  O29 H1S d 501      32.431   0.951  14.431  0.00  0.00    -0.296 OA
ATOM      8  O9  H1S d 501      36.469   2.740  13.472  0.00  0.00    -0.391 OA
ATOM      9  S16 H1S d 501      38.315   0.546  20.264  0.00  0.00     0.251 S 
ATOM     10  O11 H1S d 501      37.772   0.328  18.959  0.00  0.00    -0.254 OA
ATOM     11  O32 H1S d 501      39.003   6.884  16.753  0.00  0.00    -0.572 OA
ATOM     12  O5  H1S d 501      35.854   0.455  16.860  0.00  0.00    -0.350 OA
ATOM     13  O23 H1S d 501      38.507  -0.772  20.953  0.00  0.00    -0.572 OA
ATOM     14  O25 H1S d 501      41.154   2.611  16.360  0.00  0.00    -0.389 OA
ATOM     15  C6  H1S d 501      37.757   1.392  18.004  0.00  0.00     0.067 C 
ATOM     16  O21 H1S d 501      39.637   1.245  20.144  0.00  0.00    -0.572 OA
ATOM     17  C17 H1S d 501      41.157   3.688  15.417  0.00  0.00     0.086 C 
ATOM     18  O28 H1S d 501      33.083  -1.380  14.058  0.00  0.00    -0.296 OA
ATOM     19  N14 H1S d 501      34.699   0.467  13.337  0.00  0.00    -0.210 NA
ATOM     20  O31 H1S d 501      40.338   8.141  15.128  0.00  0.00    -0.572 OA
ATOM     21  C24 H1S d 501      41.182   3.117  13.997  0.00  0.00    -0.034 C 
ATOM     22  C10 H1S d 501      35.320  -0.098  15.647  0.00  0.00     0.147 C 
ATOM     23  C2  H1S d 501      37.203   0.909  16.662  0.00  0.00     0.091 C 
ATOM     24  C12 H1S d 501      39.892   4.529  15.600  0.00  0.00     0.135 C 
ATOM     25  C7  H1S d 501      38.710   3.801  14.954  0.00  0.00     0.167 C 
ATOM     26  O15 H1S d 501      36.180  -1.142  15.182  0.00  0.00    -0.369 OA
ATOM     27  S26 H1S d 501      40.212   6.842  15.865  0.00  0.00     0.252 S 
ATOM     28  O22 H1S d 501      37.370   1.396  21.062  0.00  0.00    -0.572 OA
ATOM     29  C8  H1S d 501      35.224   1.012  14.597  0.00  0.00     0.081 C 
ATOM     30  O30 H1S d 501      32.478   0.042  12.157  0.00  0.00    -0.296 OA
ATOM     31  O13 H1S d 501      38.921   3.819  13.532  0.00  0.00    -0.311 OA
ATOM     32  C4  H1S d 501      36.606   1.614  14.344  0.00  0.00     0.083 C 
ATOM     33  C19 H1S d 501      40.078   3.211  13.152  0.00  0.00     0.147 C 
ATOM     34  O33 H1S d 501      41.439   6.621  16.699  0.00  0.00    -0.572 OA
ATOM     35  O3  H1S d 501      38.631   2.432  15.429  0.00  0.00    -0.348 OA
ATOM     36  H   H1S d 501      36.709   2.909  16.045  0.00  0.00     0.091 H 
ATOM     37  H   H1S d 501      32.860   0.931  15.301  0.00  0.00     0.231 HD
ATOM     38  H   H1S d 501      37.342   3.129  13.306  0.00  0.00     0.210 HD
ATOM     39  H   H1S d 501      41.139   2.971  17.261  0.00  0.00     0.210 HD
ATOM     40  H   H1S d 501      38.755   1.751  17.862  0.00  0.00     0.080 H 
ATOM     41  H   H1S d 501      37.128   2.175  18.372  0.00  0.00     0.080 H 
ATOM     42  H   H1S d 501      42.021   4.300  15.575  0.00  0.00     0.093 H 
ATOM     43  H   H1S d 501      33.511  -1.399  14.928  0.00  0.00     0.231 HD
ATOM     44  H   H1S d 501      34.763   1.182  12.611  0.00  0.00     0.140 HD
ATOM     45  H   H1S d 501      42.038   2.650  13.658  0.00  0.00     0.085 H 
ATOM     46  H   H1S d 501      34.346  -0.504  15.826  0.00  0.00     0.131 H 
ATOM     47  H   H1S d 501      37.789   0.101  16.276  0.00  0.00     0.090 H 
ATOM     48  H   H1S d 501      39.706   4.687  16.642  0.00  0.00     0.097 H 
ATOM     49  H   H1S d 501      37.791   4.286  15.210  0.00  0.00     0.134 H 
ATOM     50  H   H1S d 501      37.066  -0.781  15.017  0.00  0.00     0.212 HD
ATOM     51  H   H1S d 501      34.563   1.771  14.960  0.00  0.00     0.076 H 
ATOM     52  H   H1S d 501      32.938  -0.565  11.556  0.00  0.00     0.231 HD
ATOM     53  H   H1S d 501      37.235   0.873  13.897  0.00  0.00     0.089 H 
ENDROOT
TORSDOF 16
ENDMDL
MODEL 26
REMARK VINA RESULT:      -8.7      3.409      5.255
REMARK  0 active torsions:
REMARK  status: ('A' for Active; 'I' for Inactive)
REMARK       I    between atoms: C1_1  and  O3_35 
REMARK       I    between atoms: O18_2  and  C12_24 
REMARK       I    between atoms: O18_2  and  S26_27 
REMARK       I    between atoms: S20_5  and  N14_19 
REMARK       I    between atoms: S20_5  and  O28_18 
REMARK       I    between atoms: S20_5  and  O29_7 
REMARK       I    between atoms: S20_5  and  O30_30 
REMARK       I    between atoms: C27_6  and  C19_33 
REMARK       I    between atoms: O9_8  and  C4_32 
REMARK       I    between atoms: S16_9  and  O11_10 
REMARK       I    between atoms: O11_10  and  C6_15 
REMARK       I    between atoms: O25_14  and  C17_17 
REMARK       I    between atoms: C6_15  and  C2_23 
REMARK       I    between atoms: N14_19  and  C8_29 
REMARK       I    between atoms: C10_22  and  O15_26 
REMARK       I    between atoms: C7_25  and  O3_35 
ROOT
ATOM      1  C1  H1S d 501      37.155   4.048  14.540  0.00  0.00     0.095 C 
ATOM      2  O18 H1S d 501      34.689   0.062  13.970  0.00  0.00    -0.244 OA
ATOM      3  O34 H1S d 501      39.735  -0.301  14.260  0.00  0.00    -0.642 OA
ATOM      4  O35 H1S d 501      39.498  -0.741  12.108  0.00  0.00    -0.642 OA
ATOM      5  S20 H1S d 501      40.773   5.789  17.638  0.00  0.00     0.156 S 
ATOM      6  C27 H1S d 501      39.086  -0.277  13.195  0.00  0.00     0.233 C 
ATOM      7  O29 H1S d 501      39.589   6.207  18.458  0.00  0.00    -0.296 OA
ATOM      8  O9  H1S d 501      38.386   2.593  16.027  0.00  0.00    -0.391 OA
ATOM      9  S16 H1S d 501      34.729   7.444  11.850  0.00  0.00     0.251 S 
ATOM     10  O11 H1S d 501      35.898   6.970  12.524  0.00  0.00    -0.254 OA
ATOM     11  O32 H1S d 501      32.804   1.153  14.965  0.00  0.00    -0.572 OA
ATOM     12  O5  H1S d 501      37.627   6.439  14.722  0.00  0.00    -0.350 OA
ATOM     13  O23 H1S d 501      35.102   8.562  10.924  0.00  0.00    -0.572 OA
ATOM     14  O25 H1S d 501      35.637   2.305  11.265  0.00  0.00    -0.389 OA
ATOM     15  C6  H1S d 501      35.858   5.736  13.245  0.00  0.00     0.067 C 
ATOM     16  O21 H1S d 501      34.120   6.323  11.060  0.00  0.00    -0.572 OA
ATOM     17  C17 H1S d 501      35.577   1.063  11.974  0.00  0.00     0.086 C 
ATOM     18  O28 H1S d 501      41.334   6.983  16.926  0.00  0.00    -0.296 OA
ATOM     19  N14 H1S d 501      40.323   4.664  16.546  0.00  0.00    -0.210 NA
ATOM     20  O31 H1S d 501      32.886  -1.288  14.770  0.00  0.00    -0.572 OA
ATOM     21  C24 H1S d 501      36.974   0.441  12.025  0.00  0.00    -0.034 C 
ATOM     22  C10 H1S d 501      38.956   6.214  15.214  0.00  0.00     0.147 C 
ATOM     23  C2  H1S d 501      37.236   5.395  13.816  0.00  0.00     0.091 C 
ATOM     24  C12 H1S d 501      35.083   1.314  13.400  0.00  0.00     0.135 C 
ATOM     25  C7  H1S d 501      36.235   1.877  14.236  0.00  0.00     0.167 C 
ATOM     26  O15 H1S d 501      39.857   6.090  14.109  0.00  0.00    -0.369 OA
ATOM     27  S26 H1S d 501      33.266   0.006  14.115  0.00  0.00     0.252 S 
ATOM     28  O22 H1S d 501      33.737   7.940  12.862  0.00  0.00    -0.572 OA
ATOM     29  C8  H1S d 501      38.966   4.930  16.048  0.00  0.00     0.081 C 
ATOM     30  O30 H1S d 501      41.822   5.204  18.538  0.00  0.00    -0.296 OA
ATOM     31  O13 H1S d 501      37.202   0.826  14.397  0.00  0.00    -0.311 OA
ATOM     32  C4  H1S d 501      38.507   3.748  15.192  0.00  0.00     0.083 C 
ATOM     33  C19 H1S d 501      37.696   0.363  13.215  0.00  0.00     0.147 C 
ATOM     34  O33 H1S d 501      32.618   0.089  12.764  0.00  0.00    -0.572 OA
ATOM     35  O3  H1S d 501      36.841   3.015  13.570  0.00  0.00    -0.348 OA
ATOM     36  H   H1S d 501      36.396   4.078  15.294  0.00  0.00     0.091 H 
ATOM     37  H   H1S d 501      38.911   6.585  17.877  0.00  0.00     0.231 HD
ATOM     38  H   H1S d 501      38.095   1.836  15.493  0.00  0.00     0.210 HD
ATOM     39  H   H1S d 501      34.752   2.701  11.231  0.00  0.00     0.210 HD
ATOM     40  H   H1S d 501      35.549   4.953  12.584  0.00  0.00     0.080 H 
ATOM     41  H   H1S d 501      35.166   5.834  14.055  0.00  0.00     0.080 H 
ATOM     42  H   H1S d 501      34.904   0.398  11.473  0.00  0.00     0.093 H 
ATOM     43  H   H1S d 501      40.655   7.361  16.345  0.00  0.00     0.231 HD
ATOM     44  H   H1S d 501      40.343   3.744  16.986  0.00  0.00     0.140 HD
ATOM     45  H   H1S d 501      37.393   0.071  11.157  0.00  0.00     0.085 H 
ATOM     46  H   H1S d 501      39.267   7.037  15.824  0.00  0.00     0.131 H 
ATOM     47  H   H1S d 501      37.964   5.320  13.035  0.00  0.00     0.090 H 
ATOM     48  H   H1S d 501      34.263   2.001  13.387  0.00  0.00     0.097 H 
ATOM     49  H   H1S d 501      35.875   2.213  15.186  0.00  0.00     0.134 H 
ATOM     50  H   H1S d 501      39.582   5.345  13.551  0.00  0.00     0.212 HD
ATOM     51  H   H1S d 501      38.300   5.054  16.875  0.00  0.00     0.076 H 
ATOM     52  H   H1S d 501      42.588   4.934  18.007  0.00  0.00     0.231 HD
ATOM     53  H   H1S d 501      39.227   3.574  14.421  0.00  0.00     0.089 H 
ENDROOT
TORSDOF 16
ENDMDL
MODEL 27
REMARK VINA RESULT:      -8.7      3.299      8.094
REMARK  0 active torsions:
REMARK  status: ('A' for Active; 'I' for Inactive)
REMARK       I    between atoms: C1_1  and  O3_35 
REMARK       I    between atoms: O18_2  and  C12_24 
REMARK       I    between atoms: O18_2  and  S26_27 
REMARK       I    between atoms: S20_5  and  N14_19 
REMARK       I    between atoms: S20_5  and  O28_18 
REMARK       I    between atoms: S20_5  and  O29_7 
REMARK       I    between atoms: S20_5  and  O30_30 
REMARK       I    between atoms: C27_6  and  C19_33 
REMARK       I    between atoms: O9_8  and  C4_32 
REMARK       I    between atoms: S16_9  and  O11_10 
REMARK       I    between atoms: O11_10  and  C6_15 
REMARK       I    between atoms: O25_14  and  C17_17 
REMARK       I    between atoms: C6_15  and  C2_23 
REMARK       I    between atoms: N14_19  and  C8_29 
REMARK       I    between atoms: C10_22  and  O15_26 
REMARK       I    between atoms: C7_25  and  O3_35 
ROOT
ATOM      1  C1  H1S d 501      37.597   2.906  13.970  0.00  0.00     0.095 C 
ATOM      2  O18 H1S d 501      41.752   1.166  12.555  0.00  0.00    -0.244 OA
ATOM      3  O34 H1S d 501      38.136   1.789   9.059  0.00  0.00    -0.642 OA
ATOM      4  O35 H1S d 501      38.108  -0.418   9.169  0.00  0.00    -0.642 OA
ATOM      5  S20 H1S d 501      34.447   6.635  12.592  0.00  0.00     0.156 S 
ATOM      6  C27 H1S d 501      38.389   0.710   9.634  0.00  0.00     0.233 C 
ATOM      7  O29 H1S d 501      35.292   7.428  13.545  0.00  0.00    -0.296 OA
ATOM      8  O9  H1S d 501      37.841   4.090  11.876  0.00  0.00    -0.391 OA
ATOM      9  S16 H1S d 501      36.853   0.934  18.465  0.00  0.00     0.251 S 
ATOM     10  O11 H1S d 501      36.381   1.569  17.273  0.00  0.00    -0.254 OA
ATOM     11  O32 H1S d 501      42.775   2.232  14.438  0.00  0.00    -0.572 OA
ATOM     12  O5  H1S d 501      35.846   3.709  15.474  0.00  0.00    -0.350 OA
ATOM     13  O23 H1S d 501      35.693   0.346  19.213  0.00  0.00    -0.572 OA
ATOM     14  O25 H1S d 501      39.086  -0.814  14.046  0.00  0.00    -0.389 OA
ATOM     15  C6  H1S d 501      37.306   1.958  16.255  0.00  0.00     0.067 C 
ATOM     16  O21 H1S d 501      37.817  -0.156  18.101  0.00  0.00    -0.572 OA
ATOM     17  C17 H1S d 501      40.030  -0.440  13.037  0.00  0.00     0.086 C 
ATOM     18  O28 H1S d 501      33.145   6.288  13.251  0.00  0.00    -0.296 OA
ATOM     19  N14 H1S d 501      35.224   5.265  12.168  0.00  0.00    -0.210 NA
ATOM     20  O31 H1S d 501      44.125   1.452  12.548  0.00  0.00    -0.572 OA
ATOM     21  C24 H1S d 501      39.333  -0.423  11.674  0.00  0.00    -0.034 C 
ATOM     22  C10 H1S d 501      35.062   4.243  14.397  0.00  0.00     0.147 C 
ATOM     23  C2  H1S d 501      36.571   2.544  15.048  0.00  0.00     0.091 C 
ATOM     24  C12 H1S d 501      40.576   0.956  13.342  0.00  0.00     0.135 C 
ATOM     25  C7  H1S d 501      39.534   2.000  12.932  0.00  0.00     0.167 C 
ATOM     26  O15 H1S d 501      34.198   3.222  13.888  0.00  0.00    -0.369 OA
ATOM     27  S26 H1S d 501      42.915   1.170  13.388  0.00  0.00     0.252 S 
ATOM     28  O22 H1S d 501      37.545   1.947  19.329  0.00  0.00    -0.572 OA
ATOM     29  C8  H1S d 501      36.004   4.733  13.294  0.00  0.00     0.081 C 
ATOM     30  O30 H1S d 501      34.184   7.450  11.361  0.00  0.00    -0.296 OA
ATOM     31  O13 H1S d 501      39.450   1.980  11.497  0.00  0.00    -0.311 OA
ATOM     32  C4  H1S d 501      36.875   3.578  12.798  0.00  0.00     0.083 C 
ATOM     33  C19 H1S d 501      39.084   0.768  10.995  0.00  0.00     0.147 C 
ATOM     34  O33 H1S d 501      43.068  -0.170  14.047  0.00  0.00    -0.572 OA
ATOM     35  O3  H1S d 501      38.241   1.689  13.512  0.00  0.00    -0.348 OA
ATOM     36  H   H1S d 501      38.330   3.576  14.366  0.00  0.00     0.091 H 
ATOM     37  H   H1S d 501      35.462   6.901  14.341  0.00  0.00     0.231 HD
ATOM     38  H   H1S d 501      38.399   3.363  11.555  0.00  0.00     0.210 HD
ATOM     39  H   H1S d 501      39.526  -0.826  14.911  0.00  0.00     0.210 HD
ATOM     40  H   H1S d 501      37.866   1.101  15.943  0.00  0.00     0.080 H 
ATOM     41  H   H1S d 501      37.960   2.705  16.654  0.00  0.00     0.080 H 
ATOM     42  H   H1S d 501      40.835  -1.145  13.022  0.00  0.00     0.093 H 
ATOM     43  H   H1S d 501      33.315   5.762  14.047  0.00  0.00     0.231 HD
ATOM     44  H   H1S d 501      35.854   5.466  11.391  0.00  0.00     0.140 HD
ATOM     45  H   H1S d 501      39.040  -1.316  11.248  0.00  0.00     0.085 H 
ATOM     46  H   H1S d 501      34.466   5.060  14.746  0.00  0.00     0.131 H 
ATOM     47  H   H1S d 501      35.882   1.834  14.641  0.00  0.00     0.090 H 
ATOM     48  H   H1S d 501      40.796   1.042  14.386  0.00  0.00     0.097 H 
ATOM     49  H   H1S d 501      39.821   2.970  13.283  0.00  0.00     0.134 H 
ATOM     50  H   H1S d 501      34.731   2.477  13.569  0.00  0.00     0.212 HD
ATOM     51  H   H1S d 501      36.626   5.505  13.694  0.00  0.00     0.076 H 
ATOM     52  H   H1S d 501      33.637   6.937  10.745  0.00  0.00     0.231 HD
ATOM     53  H   H1S d 501      36.253   2.852  12.319  0.00  0.00     0.089 H 
ENDROOT
TORSDOF 16
ENDMDL
MODEL 28
REMARK VINA RESULT:      -8.6      3.352      7.623
REMARK  0 active torsions:
REMARK  status: ('A' for Active; 'I' for Inactive)
REMARK       I    between atoms: C1_1  and  O3_35 
REMARK       I    between atoms: O18_2  and  C12_24 
REMARK       I    between atoms: O18_2  and  S26_27 
REMARK       I    between atoms: S20_5  and  N14_19 
REMARK       I    between atoms: S20_5  and  O28_18 
REMARK       I    between atoms: S20_5  and  O29_7 
REMARK       I    between atoms: S20_5  and  O30_30 
REMARK       I    between atoms: C27_6  and  C19_33 
REMARK       I    between atoms: O9_8  and  C4_32 
REMARK       I    between atoms: S16_9  and  O11_10 
REMARK       I    between atoms: O11_10  and  C6_15 
REMARK       I    between atoms: O25_14  and  C17_17 
REMARK       I    between atoms: C6_15  and  C2_23 
REMARK       I    between atoms: N14_19  and  C8_29 
REMARK       I    between atoms: C10_22  and  O15_26 
REMARK       I    between atoms: C7_25  and  O3_35 
ROOT
ATOM      1  C1  H1S d 501      38.028   2.109  14.606  0.00  0.00     0.095 C 
ATOM      2  O18 H1S d 501      41.537  -0.452  16.457  0.00  0.00    -0.244 OA
ATOM      3  O34 H1S d 501      37.044  -2.709  15.821  0.00  0.00    -0.642 OA
ATOM      4  O35 H1S d 501      37.018  -2.544  18.024  0.00  0.00    -0.642 OA
ATOM      5  S20 H1S d 501      34.664   1.659  10.838  0.00  0.00     0.156 S 
ATOM      6  C27 H1S d 501      37.442  -2.212  16.894  0.00  0.00     0.233 C 
ATOM      7  O29 H1S d 501      35.768   2.294  10.046  0.00  0.00    -0.296 OA
ATOM      8  O9  H1S d 501      37.647   0.012  13.465  0.00  0.00    -0.391 OA
ATOM      9  S16 H1S d 501      38.647   6.663  16.482  0.00  0.00     0.251 S 
ATOM     10  O11 H1S d 501      37.847   5.655  15.859  0.00  0.00    -0.254 OA
ATOM     11  O32 H1S d 501      43.097   1.010  15.379  0.00  0.00    -0.572 OA
ATOM     12  O5  H1S d 501      36.826   4.052  13.741  0.00  0.00    -0.350 OA
ATOM     13  O23 H1S d 501      37.760   7.740  17.033  0.00  0.00    -0.572 OA
ATOM     14  O25 H1S d 501      39.418   1.819  18.355  0.00  0.00    -0.389 OA
ATOM     15  C6  H1S d 501      38.428   4.397  15.508  0.00  0.00     0.067 C 
ATOM     16  O21 H1S d 501      39.441   6.052  17.599  0.00  0.00    -0.572 OA
ATOM     17  C17 H1S d 501      40.018   0.564  18.018  0.00  0.00     0.086 C 
ATOM     18  O28 H1S d 501      33.617   2.688  11.145  0.00  0.00    -0.296 OA
ATOM     19  N14 H1S d 501      35.257   1.052  12.230  0.00  0.00    -0.210 NA
ATOM     20  O31 H1S d 501      43.801  -1.181  16.221  0.00  0.00    -0.572 OA
ATOM     21  C24 H1S d 501      38.943  -0.525  18.011  0.00  0.00    -0.034 C 
ATOM     22  C10 H1S d 501      35.761   3.250  13.210  0.00  0.00     0.147 C 
ATOM     23  C2  H1S d 501      37.371   3.454  14.928  0.00  0.00     0.091 C 
ATOM     24  C12 H1S d 501      40.651   0.658  16.628  0.00  0.00     0.135 C 
ATOM     25  C7  H1S d 501      39.549   0.556  15.570  0.00  0.00     0.167 C 
ATOM     26  O15 H1S d 501      34.769   3.048  14.221  0.00  0.00    -0.369 OA
ATOM     27  S26 H1S d 501      42.898  -0.009  16.463  0.00  0.00     0.252 S 
ATOM     28  O22 H1S d 501      39.583   7.255  15.469  0.00  0.00    -0.572 OA
ATOM     29  C8  H1S d 501      36.332   1.903  12.759  0.00  0.00     0.081 C 
ATOM     30  O30 H1S d 501      34.053   0.546  10.040  0.00  0.00    -0.296 OA
ATOM     31  O13 H1S d 501      39.035  -0.786  15.614  0.00  0.00    -0.311 OA
ATOM     32  C4  H1S d 501      36.996   1.194  13.940  0.00  0.00     0.083 C 
ATOM     33  C19 H1S d 501      38.518  -1.125  16.826  0.00  0.00     0.147 C 
ATOM     34  O33 H1S d 501      43.223   0.604  17.793  0.00  0.00    -0.572 OA
ATOM     35  O3  H1S d 501      38.486   1.506  15.844  0.00  0.00    -0.348 OA
ATOM     36  H   H1S d 501      38.857   2.250  13.944  0.00  0.00     0.091 H 
ATOM     37  H   H1S d 501      36.164   3.014  10.561  0.00  0.00     0.231 HD
ATOM     38  H   H1S d 501      38.071  -0.445  14.208  0.00  0.00     0.210 HD
ATOM     39  H   H1S d 501      40.098   2.511  18.360  0.00  0.00     0.210 HD
ATOM     40  H   H1S d 501      38.855   3.950  16.381  0.00  0.00     0.080 H 
ATOM     41  H   H1S d 501      39.182   4.563  14.767  0.00  0.00     0.080 H 
ATOM     42  H   H1S d 501      40.771   0.323  18.740  0.00  0.00     0.093 H 
ATOM     43  H   H1S d 501      34.012   3.408  11.661  0.00  0.00     0.231 HD
ATOM     44  H   H1S d 501      35.626   0.117  12.056  0.00  0.00     0.140 HD
ATOM     45  H   H1S d 501      38.522  -0.823  18.905  0.00  0.00     0.085 H 
ATOM     46  H   H1S d 501      35.309   3.743  12.374  0.00  0.00     0.131 H 
ATOM     47  H   H1S d 501      36.581   3.290  15.630  0.00  0.00     0.090 H 
ATOM     48  H   H1S d 501      41.177   1.584  16.528  0.00  0.00     0.097 H 
ATOM     49  H   H1S d 501      39.943   0.783  14.601  0.00  0.00     0.134 H 
ATOM     50  H   H1S d 501      35.170   2.601  14.983  0.00  0.00     0.212 HD
ATOM     51  H   H1S d 501      37.058   2.079  11.993  0.00  0.00     0.076 H 
ATOM     52  H   H1S d 501      33.339   0.136  10.552  0.00  0.00     0.231 HD
ATOM     53  H   H1S d 501      36.248   0.942  14.662  0.00  0.00     0.089 H 
ENDROOT
TORSDOF 16
ENDMDL
MODEL 29
REMARK VINA RESULT:      -8.6      3.380      7.528
REMARK  0 active torsions:
REMARK  status: ('A' for Active; 'I' for Inactive)
REMARK       I    between atoms: C1_1  and  O3_35 
REMARK       I    between atoms: O18_2  and  C12_24 
REMARK       I    between atoms: O18_2  and  S26_27 
REMARK       I    between atoms: S20_5  and  N14_19 
REMARK       I    between atoms: S20_5  and  O28_18 
REMARK       I    between atoms: S20_5  and  O29_7 
REMARK       I    between atoms: S20_5  and  O30_30 
REMARK       I    between atoms: C27_6  and  C19_33 
REMARK       I    between atoms: O9_8  and  C4_32 
REMARK       I    between atoms: S16_9  and  O11_10 
REMARK       I    between atoms: O11_10  and  C6_15 
REMARK       I    between atoms: O25_14  and  C17_17 
REMARK       I    between atoms: C6_15  and  C2_23 
REMARK       I    between atoms: N14_19  and  C8_29 
REMARK       I    between atoms: C10_22  and  O15_26 
REMARK       I    between atoms: C7_25  and  O3_35 
ROOT
ATOM      1  C1  H1S d 501      38.941   1.559  14.537  0.00  0.00     0.095 C 
ATOM      2  O18 H1S d 501      40.821  -1.261  17.824  0.00  0.00    -0.244 OA
ATOM      3  O34 H1S d 501      35.798  -1.412  17.171  0.00  0.00    -0.642 OA
ATOM      4  O35 H1S d 501      35.844  -0.374  19.121  0.00  0.00    -0.642 OA
ATOM      5  S20 H1S d 501      35.779   1.110  10.598  0.00  0.00     0.156 S 
ATOM      6  C27 H1S d 501      36.379  -0.747  18.053  0.00  0.00     0.233 C 
ATOM      7  O29 H1S d 501      37.055   0.827   9.863  0.00  0.00    -0.296 OA
ATOM      8  O9  H1S d 501      37.621  -0.432  14.166  0.00  0.00    -0.391 OA
ATOM      9  S16 H1S d 501      41.626   5.730  14.749  0.00  0.00     0.251 S 
ATOM     10  O11 H1S d 501      40.448   5.007  14.383  0.00  0.00    -0.254 OA
ATOM     11  O32 H1S d 501      42.890  -1.189  16.621  0.00  0.00    -0.572 OA
ATOM     12  O5  H1S d 501      38.800   3.292  12.819  0.00  0.00    -0.350 OA
ATOM     13  O23 H1S d 501      41.347   7.203  14.695  0.00  0.00    -0.572 OA
ATOM     14  O25 H1S d 501      40.014   2.251  18.336  0.00  0.00    -0.389 OA
ATOM     15  C6  H1S d 501      40.368   3.600  14.623  0.00  0.00     0.067 C 
ATOM     16  O21 H1S d 501      42.033   5.349  16.141  0.00  0.00    -0.572 OA
ATOM     17  C17 H1S d 501      39.953   0.844  18.592  0.00  0.00     0.086 C 
ATOM     18  O28 H1S d 501      35.338   2.514  10.308  0.00  0.00    -0.296 OA
ATOM     19  N14 H1S d 501      36.009   0.931  12.202  0.00  0.00    -0.210 NA
ATOM     20  O31 H1S d 501      42.476  -2.917  18.308  0.00  0.00    -0.572 OA
ATOM     21  C24 H1S d 501      38.492   0.424  18.764  0.00  0.00    -0.034 C 
ATOM     22  C10 H1S d 501      37.485   2.886  12.412  0.00  0.00     0.147 C 
ATOM     23  C2  H1S d 501      38.995   3.057  14.223  0.00  0.00     0.091 C 
ATOM     24  C12 H1S d 501      40.562   0.084  17.412  0.00  0.00     0.135 C 
ATOM     25  C7  H1S d 501      39.547   0.045  16.267  0.00  0.00     0.167 C 
ATOM     26  O15 H1S d 501      36.510   3.559  13.215  0.00  0.00    -0.369 OA
ATOM     27  S26 H1S d 501      42.230  -1.485  17.936  0.00  0.00     0.252 S 
ATOM     28  O22 H1S d 501      42.734   5.394  13.794  0.00  0.00    -0.572 OA
ATOM     29  C8  H1S d 501      37.356   1.370  12.591  0.00  0.00     0.081 C 
ATOM     30  O30 H1S d 501      34.718   0.150  10.146  0.00  0.00    -0.296 OA
ATOM     31  O13 H1S d 501      38.461  -0.799  16.685  0.00  0.00    -0.311 OA
ATOM     32  C4  H1S d 501      37.603   0.994  14.053  0.00  0.00     0.083 C 
ATOM     33  C19 H1S d 501      37.839  -0.359  17.813  0.00  0.00     0.147 C 
ATOM     34  O33 H1S d 501      42.800  -0.590  18.997  0.00  0.00    -0.572 OA
ATOM     35  O3  H1S d 501      39.056   1.379  15.972  0.00  0.00    -0.348 OA
ATOM     36  H   H1S d 501      39.742   1.049  14.043  0.00  0.00     0.091 H 
ATOM     37  H   H1S d 501      37.740   1.447  10.155  0.00  0.00     0.231 HD
ATOM     38  H   H1S d 501      37.777  -0.681  15.091  0.00  0.00     0.210 HD
ATOM     39  H   H1S d 501      40.940   2.520  18.227  0.00  0.00     0.210 HD
ATOM     40  H   H1S d 501      40.531   3.411  15.663  0.00  0.00     0.080 H 
ATOM     41  H   H1S d 501      41.115   3.109  14.034  0.00  0.00     0.080 H 
ATOM     42  H   H1S d 501      40.501   0.620  19.484  0.00  0.00     0.093 H 
ATOM     43  H   H1S d 501      36.024   3.134  10.600  0.00  0.00     0.231 HD
ATOM     44  H   H1S d 501      35.895  -0.053  12.448  0.00  0.00     0.140 HD
ATOM     45  H   H1S d 501      37.977   0.728  19.606  0.00  0.00     0.085 H 
ATOM     46  H   H1S d 501      37.323   3.138  11.385  0.00  0.00     0.131 H 
ATOM     47  H   H1S d 501      38.217   3.549  14.769  0.00  0.00     0.090 H 
ATOM     48  H   H1S d 501      41.463   0.565  17.093  0.00  0.00     0.097 H 
ATOM     49  H   H1S d 501      40.005  -0.335  15.377  0.00  0.00     0.134 H 
ATOM     50  H   H1S d 501      36.650   3.336  14.148  0.00  0.00     0.212 HD
ATOM     51  H   H1S d 501      38.082   0.890  11.970  0.00  0.00     0.076 H 
ATOM     52  H   H1S d 501      33.893   0.333  10.621  0.00  0.00     0.231 HD
ATOM     53  H   H1S d 501      36.821   1.404  14.657  0.00  0.00     0.089 H 
ENDROOT
TORSDOF 16
ENDMDL
MODEL 30
REMARK VINA RESULT:      -8.5      2.699      5.822
REMARK  0 active torsions:
REMARK  status: ('A' for Active; 'I' for Inactive)
REMARK       I    between atoms: C1_1  and  O3_35 
REMARK       I    between atoms: O18_2  and  C12_24 
REMARK       I    between atoms: O18_2  and  S26_27 
REMARK       I    between atoms: S20_5  and  N14_19 
REMARK       I    between atoms: S20_5  and  O28_18 
REMARK       I    between atoms: S20_5  and  O29_7 
REMARK       I    between atoms: S20_5  and  O30_30 
REMARK       I    between atoms: C27_6  and  C19_33 
REMARK       I    between atoms: O9_8  and  C4_32 
REMARK       I    between atoms: S16_9  and  O11_10 
REMARK       I    between atoms: O11_10  and  C6_15 
REMARK       I    between atoms: O25_14  and  C17_17 
REMARK       I    between atoms: C6_15  and  C2_23 
REMARK       I    between atoms: N14_19  and  C8_29 
REMARK       I    between atoms: C10_22  and  O15_26 
REMARK       I    between atoms: C7_25  and  O3_35 
ROOT
ATOM      1  C1  H1S d 501      36.190   1.583  14.665  0.00  0.00     0.095 C 
ATOM      2  O18 H1S d 501      35.336   2.925  10.219  0.00  0.00    -0.244 OA
ATOM      3  O34 H1S d 501      36.645   6.505  13.559  0.00  0.00    -0.642 OA
ATOM      4  O35 H1S d 501      34.512   7.037  13.327  0.00  0.00    -0.642 OA
ATOM      5  S20 H1S d 501      39.859   2.202  18.112  0.00  0.00     0.156 S 
ATOM      6  C27 H1S d 501      35.471   6.238  13.229  0.00  0.00     0.233 C 
ATOM      7  O29 H1S d 501      40.405   0.968  17.458  0.00  0.00    -0.296 OA
ATOM      8  O9  H1S d 501      37.963   3.203  14.382  0.00  0.00    -0.391 OA
ATOM      9  S16 H1S d 501      32.908  -2.032  15.559  0.00  0.00     0.251 S 
ATOM     10  O11 H1S d 501      33.824  -1.025  15.997  0.00  0.00    -0.254 OA
ATOM     11  O32 H1S d 501      35.880   0.706   9.505  0.00  0.00    -0.572 OA
ATOM     12  O5  H1S d 501      36.346   0.134  16.627  0.00  0.00    -0.350 OA
ATOM     13  O23 H1S d 501      32.021  -2.434  16.699  0.00  0.00    -0.572 OA
ATOM     14  O25 H1S d 501      32.768   2.399  12.745  0.00  0.00    -0.389 OA
ATOM     15  C6  H1S d 501      34.581  -0.281  15.039  0.00  0.00     0.067 C 
ATOM     16  O21 H1S d 501      32.068  -1.490  14.440  0.00  0.00    -0.572 OA
ATOM     17  C17 H1S d 501      33.510   3.136  11.768  0.00  0.00     0.086 C 
ATOM     18  O28 H1S d 501      39.215   1.833  19.415  0.00  0.00    -0.296 OA
ATOM     19  N14 H1S d 501      38.755   2.905  17.138  0.00  0.00    -0.210 NA
ATOM     20  O31 H1S d 501      35.825   2.563   7.908  0.00  0.00    -0.572 OA
ATOM     21  C24 H1S d 501      33.870   4.510  12.338  0.00  0.00    -0.034 C 
ATOM     22  C10 H1S d 501      37.103   1.100  17.372  0.00  0.00     0.147 C 
ATOM     23  C2  H1S d 501      35.431   0.786  15.730  0.00  0.00     0.091 C 
ATOM     24  C12 H1S d 501      34.796   2.379  11.426  0.00  0.00     0.135 C 
ATOM     25  C7  H1S d 501      35.816   2.596  12.547  0.00  0.00     0.167 C 
ATOM     26  O15 H1S d 501      36.208   1.981  18.056  0.00  0.00    -0.369 OA
ATOM     27  S26 H1S d 501      35.197   1.992   9.144  0.00  0.00     0.252 S 
ATOM     28  O22 H1S d 501      33.675  -3.228  15.075  0.00  0.00    -0.572 OA
ATOM     29  C8  H1S d 501      37.984   1.893  16.403  0.00  0.00     0.081 C 
ATOM     30  O30 H1S d 501      40.977   3.170  18.363  0.00  0.00    -0.296 OA
ATOM     31  O13 H1S d 501      36.218   3.975  12.501  0.00  0.00    -0.311 OA
ATOM     32  C4  H1S d 501      37.113   2.591  15.357  0.00  0.00     0.083 C 
ATOM     33  C19 H1S d 501      35.183   4.843  12.669  0.00  0.00     0.147 C 
ATOM     34  O33 H1S d 501      33.742   1.732   8.887  0.00  0.00    -0.572 OA
ATOM     35  O3  H1S d 501      35.230   2.290  13.839  0.00  0.00    -0.348 OA
ATOM     36  H   H1S d 501      36.775   0.925  14.057  0.00  0.00     0.091 H 
ATOM     37  H   H1S d 501      39.682   0.341  17.296  0.00  0.00     0.231 HD
ATOM     38  H   H1S d 501      37.419   3.649  13.713  0.00  0.00     0.210 HD
ATOM     39  H   H1S d 501      32.539   1.527  12.385  0.00  0.00     0.210 HD
ATOM     40  H   H1S d 501      33.911   0.194  14.353  0.00  0.00     0.080 H 
ATOM     41  H   H1S d 501      35.231  -0.954  14.519  0.00  0.00     0.080 H 
ATOM     42  H   H1S d 501      32.919   3.256  10.885  0.00  0.00     0.093 H 
ATOM     43  H   H1S d 501      38.493   1.207  19.253  0.00  0.00     0.231 HD
ATOM     44  H   H1S d 501      39.235   3.510  16.471  0.00  0.00     0.140 HD
ATOM     45  H   H1S d 501      33.123   5.207  12.481  0.00  0.00     0.085 H 
ATOM     46  H   H1S d 501      37.722   0.606  18.092  0.00  0.00     0.131 H 
ATOM     47  H   H1S d 501      34.817   1.460  16.289  0.00  0.00     0.090 H 
ATOM     48  H   H1S d 501      34.586   1.337  11.311  0.00  0.00     0.097 H 
ATOM     49  H   H1S d 501      36.658   1.948  12.413  0.00  0.00     0.134 H 
ATOM     50  H   H1S d 501      35.643   2.433  17.410  0.00  0.00     0.212 HD
ATOM     51  H   H1S d 501      38.654   1.216  15.918  0.00  0.00     0.076 H 
ATOM     52  H   H1S d 501      40.624   3.969  18.785  0.00  0.00     0.231 HD
ATOM     53  H   H1S d 501      36.510   3.330  15.840  0.00  0.00     0.089 H 
ENDROOT
TORSDOF 16
ENDMDL
MODEL 31
REMARK VINA RESULT:      -8.5      3.489      7.339
REMARK  0 active torsions:
REMARK  status: ('A' for Active; 'I' for Inactive)
REMARK       I    between atoms: C1_1  and  O3_35 
REMARK       I    between atoms: O18_2  and  C12_24 
REMARK       I    between atoms: O18_2  and  S26_27 
REMARK       I    between atoms: S20_5  and  N14_19 
REMARK       I    between atoms: S20_5  and  O28_18 
REMARK       I    between atoms: S20_5  and  O29_7 
REMARK       I    between atoms: S20_5  and  O30_30 
REMARK       I    between atoms: C27_6  and  C19_33 
REMARK       I    between atoms: O9_8  and  C4_32 
REMARK       I    between atoms: S16_9  and  O11_10 
REMARK       I    between atoms: O11_10  and  C6_15 
REMARK       I    between atoms: O25_14  and  C17_17 
REMARK       I    between atoms: C6_15  and  C2_23 
REMARK       I    between atoms: N14_19  and  C8_29 
REMARK       I    between atoms: C10_22  and  O15_26 
REMARK       I    between atoms: C7_25  and  O3_35 
ROOT
ATOM      1  C1  H1S d 501      39.159   1.153  15.570  0.00  0.00     0.095 C 
ATOM      2  O18 H1S d 501      38.521  -2.432  18.576  0.00  0.00    -0.244 OA
ATOM      3  O34 H1S d 501      34.830  -1.456  15.244  0.00  0.00    -0.642 OA
ATOM      4  O35 H1S d 501      33.818  -0.737  17.072  0.00  0.00    -0.642 OA
ATOM      5  S20 H1S d 501      38.861   1.928  10.567  0.00  0.00     0.156 S 
ATOM      6  C27 H1S d 501      34.842  -1.056  16.426  0.00  0.00     0.233 C 
ATOM      7  O29 H1S d 501      40.297   1.497  10.618  0.00  0.00    -0.296 OA
ATOM      8  O9  H1S d 501      38.139  -0.452  14.077  0.00  0.00    -0.391 OA
ATOM      9  S16 H1S d 501      41.559   4.612  18.201  0.00  0.00     0.251 S 
ATOM     10  O11 H1S d 501      40.759   4.205  17.088  0.00  0.00    -0.254 OA
ATOM     11  O32 H1S d 501      40.900  -2.615  18.774  0.00  0.00    -0.572 OA
ATOM     12  O5  H1S d 501      40.194   3.105  14.525  0.00  0.00    -0.350 OA
ATOM     13  O23 H1S d 501      41.491   6.102  18.350  0.00  0.00    -0.572 OA
ATOM     14  O25 H1S d 501      37.870   1.061  19.364  0.00  0.00    -0.389 OA
ATOM     15  C6  H1S d 501      40.435   2.825  16.906  0.00  0.00     0.067 C 
ATOM     16  O21 H1S d 501      41.044   3.961  19.451  0.00  0.00    -0.572 OA
ATOM     17  C17 H1S d 501      37.551  -0.325  19.205  0.00  0.00     0.086 C 
ATOM     18  O28 H1S d 501      38.793   3.419  10.421  0.00  0.00    -0.296 OA
ATOM     19  N14 H1S d 501      38.097   1.478  11.936  0.00  0.00    -0.210 NA
ATOM     20  O31 H1S d 501      39.435  -4.443  19.489  0.00  0.00    -0.572 OA
ATOM     21  C24 H1S d 501      36.234  -0.457  18.437  0.00  0.00    -0.034 C 
ATOM     22  C10 H1S d 501      39.333   3.039  13.378  0.00  0.00     0.147 C 
ATOM     23  C2  H1S d 501      39.512   2.638  15.700  0.00  0.00     0.091 C 
ATOM     24  C12 H1S d 501      38.666  -1.017  18.419  0.00  0.00     0.135 C 
ATOM     25  C7  H1S d 501      38.510  -0.683  16.933  0.00  0.00     0.167 C 
ATOM     26  O15 H1S d 501      38.135   3.777  13.639  0.00  0.00    -0.369 OA
ATOM     27  S26 H1S d 501      39.575  -2.954  19.391  0.00  0.00     0.252 S 
ATOM     28  O22 H1S d 501      42.983   4.195  17.971  0.00  0.00    -0.572 OA
ATOM     29  C8  H1S d 501      38.996   1.573  13.094  0.00  0.00     0.081 C 
ATOM     30  O30 H1S d 501      38.186   1.280   9.394  0.00  0.00    -0.296 OA
ATOM     31  O13 H1S d 501      37.317  -1.338  16.469  0.00  0.00    -0.311 OA
ATOM     32  C4  H1S d 501      38.311   0.949  14.311  0.00  0.00     0.083 C 
ATOM     33  C19 H1S d 501      36.195  -0.945  17.132  0.00  0.00     0.147 C 
ATOM     34  O33 H1S d 501      39.494  -2.355  20.765  0.00  0.00    -0.572 OA
ATOM     35  O3  H1S d 501      38.400   0.750  16.739  0.00  0.00    -0.348 OA
ATOM     36  H   H1S d 501      40.050   0.565  15.497  0.00  0.00     0.091 H 
ATOM     37  H   H1S d 501      40.734   1.916  11.375  0.00  0.00     0.231 HD
ATOM     38  H   H1S d 501      37.704  -0.857  14.845  0.00  0.00     0.210 HD
ATOM     39  H   H1S d 501      38.704   1.147  19.851  0.00  0.00     0.210 HD
ATOM     40  H   H1S d 501      39.944   2.460  17.784  0.00  0.00     0.080 H 
ATOM     41  H   H1S d 501      41.340   2.280  16.732  0.00  0.00     0.080 H 
ATOM     42  H   H1S d 501      37.455  -0.782  20.169  0.00  0.00     0.093 H 
ATOM     43  H   H1S d 501      39.230   3.838  11.179  0.00  0.00     0.231 HD
ATOM     44  H   H1S d 501      37.777   0.515  11.838  0.00  0.00     0.140 HD
ATOM     45  H   H1S d 501      35.353  -0.177  18.897  0.00  0.00     0.085 H 
ATOM     46  H   H1S d 501      39.823   3.463  12.525  0.00  0.00     0.131 H 
ATOM     47  H   H1S d 501      38.607   3.195  15.823  0.00  0.00     0.090 H 
ATOM     48  H   H1S d 501      39.621  -0.691  18.775  0.00  0.00     0.097 H 
ATOM     49  H   H1S d 501      39.367  -1.018  16.385  0.00  0.00     0.134 H 
ATOM     50  H   H1S d 501      37.685   3.398  14.411  0.00  0.00     0.212 HD
ATOM     51  H   H1S d 501      39.904   1.047  12.885  0.00  0.00     0.076 H 
ATOM     52  H   H1S d 501      37.258   1.559   9.362  0.00  0.00     0.231 HD
ATOM     53  H   H1S d 501      37.362   1.420  14.458  0.00  0.00     0.089 H 
ENDROOT
TORSDOF 16
ENDMDL
MODEL 32
REMARK VINA RESULT:      -8.5      2.719      5.903
REMARK  0 active torsions:
REMARK  status: ('A' for Active; 'I' for Inactive)
REMARK       I    between atoms: C1_1  and  O3_35 
REMARK       I    between atoms: O18_2  and  C12_24 
REMARK       I    between atoms: O18_2  and  S26_27 
REMARK       I    between atoms: S20_5  and  N14_19 
REMARK       I    between atoms: S20_5  and  O28_18 
REMARK       I    between atoms: S20_5  and  O29_7 
REMARK       I    between atoms: S20_5  and  O30_30 
REMARK       I    between atoms: C27_6  and  C19_33 
REMARK       I    between atoms: O9_8  and  C4_32 
REMARK       I    between atoms: S16_9  and  O11_10 
REMARK       I    between atoms: O11_10  and  C6_15 
REMARK       I    between atoms: O25_14  and  C17_17 
REMARK       I    between atoms: C6_15  and  C2_23 
REMARK       I    between atoms: N14_19  and  C8_29 
REMARK       I    between atoms: C10_22  and  O15_26 
REMARK       I    between atoms: C7_25  and  O3_35 
ROOT
ATOM      1  C1  H1S d 501      36.166   0.634  15.301  0.00  0.00     0.095 C 
ATOM      2  O18 H1S d 501      36.681   4.831  13.200  0.00  0.00    -0.244 OA
ATOM      3  O34 H1S d 501      35.887   0.790  10.246  0.00  0.00    -0.642 OA
ATOM      4  O35 H1S d 501      38.015   1.137   9.762  0.00  0.00    -0.642 OA
ATOM      5  S20 H1S d 501      32.870  -3.219  15.185  0.00  0.00     0.156 S 
ATOM      6  C27 H1S d 501      37.009   1.279  10.492  0.00  0.00     0.233 C 
ATOM      7  O29 H1S d 501      32.199  -2.413  16.257  0.00  0.00    -0.296 OA
ATOM      8  O9  H1S d 501      34.468   0.443  13.590  0.00  0.00    -0.391 OA
ATOM      9  S16 H1S d 501      39.310   0.736  19.141  0.00  0.00     0.251 S 
ATOM     10  O11 H1S d 501      38.496   0.035  18.198  0.00  0.00    -0.254 OA
ATOM     11  O32 H1S d 501      35.951   5.872  15.228  0.00  0.00    -0.572 OA
ATOM     12  O5  H1S d 501      36.111  -1.043  17.078  0.00  0.00    -0.350 OA
ATOM     13  O23 H1S d 501      40.274  -0.219  19.779  0.00  0.00    -0.572 OA
ATOM     14  O25 H1S d 501      39.437   2.712  14.278  0.00  0.00    -0.389 OA
ATOM     15  C6  H1S d 501      37.696   0.763  17.262  0.00  0.00     0.067 C 
ATOM     16  O21 H1S d 501      40.072   1.819  18.436  0.00  0.00    -0.572 OA
ATOM     17  C17 H1S d 501      38.651   3.461  13.346  0.00  0.00     0.086 C 
ATOM     18  O28 H1S d 501      33.609  -4.364  15.811  0.00  0.00    -0.296 OA
ATOM     19  N14 H1S d 501      33.917  -2.281  14.358  0.00  0.00    -0.210 NA
ATOM     20  O31 H1S d 501      35.962   7.109  13.113  0.00  0.00    -0.572 OA
ATOM     21  C24 H1S d 501      38.422   2.622  12.087  0.00  0.00    -0.034 C 
ATOM     22  C10 H1S d 501      35.481  -2.020  16.238  0.00  0.00     0.147 C 
ATOM     23  C2  H1S d 501      36.974  -0.189  16.308  0.00  0.00     0.091 C 
ATOM     24  C12 H1S d 501      37.299   3.802  13.978  0.00  0.00     0.135 C 
ATOM     25  C7  H1S d 501      36.400   2.564  13.932  0.00  0.00     0.167 C 
ATOM     26  O15 H1S d 501      36.483  -2.758  15.531  0.00  0.00    -0.369 OA
ATOM     27  S26 H1S d 501      36.669   6.065  13.924  0.00  0.00     0.252 S 
ATOM     28  O22 H1S d 501      38.436   1.347  20.198  0.00  0.00    -0.572 OA
ATOM     29  C8  H1S d 501      34.560  -1.303  15.247  0.00  0.00     0.081 C 
ATOM     30  O30 H1S d 501      31.836  -3.750  14.237  0.00  0.00    -0.296 OA
ATOM     31  O13 H1S d 501      36.073   2.322  12.553  0.00  0.00    -0.311 OA
ATOM     32  C4  H1S d 501      35.368  -0.316  14.403  0.00  0.00     0.083 C 
ATOM     33  C19 H1S d 501      37.166   2.106  11.771  0.00  0.00     0.147 C 
ATOM     34  O33 H1S d 501      38.077   6.509  14.189  0.00  0.00    -0.572 OA
ATOM     35  O3  H1S d 501      37.085   1.413  14.492  0.00  0.00    -0.348 OA
ATOM     36  H   H1S d 501      35.492   1.288  15.813  0.00  0.00     0.091 H 
ATOM     37  H   H1S d 501      32.867  -2.070  16.870  0.00  0.00     0.231 HD
ATOM     38  H   H1S d 501      34.972   1.072  13.050  0.00  0.00     0.210 HD
ATOM     39  H   H1S d 501      39.583   3.243  15.077  0.00  0.00     0.210 HD
ATOM     40  H   H1S d 501      38.326   1.417  16.696  0.00  0.00     0.080 H 
ATOM     41  H   H1S d 501      36.965   1.327  17.803  0.00  0.00     0.080 H 
ATOM     42  H   H1S d 501      39.164   4.364  13.090  0.00  0.00     0.093 H 
ATOM     43  H   H1S d 501      34.278  -4.021  16.424  0.00  0.00     0.231 HD
ATOM     44  H   H1S d 501      33.412  -1.784  13.624  0.00  0.00     0.140 HD
ATOM     45  H   H1S d 501      39.217   2.433  11.457  0.00  0.00     0.085 H 
ATOM     46  H   H1S d 501      34.904  -2.699  16.831  0.00  0.00     0.131 H 
ATOM     47  H   H1S d 501      37.674  -0.795  15.772  0.00  0.00     0.090 H 
ATOM     48  H   H1S d 501      37.439   4.122  14.989  0.00  0.00     0.097 H 
ATOM     49  H   H1S d 501      35.515   2.726  14.511  0.00  0.00     0.134 H 
ATOM     50  H   H1S d 501      37.010  -2.149  14.990  0.00  0.00     0.212 HD
ATOM     51  H   H1S d 501      33.811  -0.774  15.797  0.00  0.00     0.076 H 
ATOM     52  H   H1S d 501      32.270  -4.271  13.544  0.00  0.00     0.231 HD
ATOM     53  H   H1S d 501      36.054  -0.861  13.788  0.00  0.00     0.089 H 
ENDROOT
TORSDOF 16
ENDMDL
MODEL 33
REMARK VINA RESULT:      -8.4      1.771      1.999
REMARK  0 active torsions:
REMARK  status: ('A' for Active; 'I' for Inactive)
REMARK       I    between atoms: C1_1  and  O3_35 
REMARK       I    between atoms: O18_2  and  C12_24 
REMARK       I    between atoms: O18_2  and  S26_27 
REMARK       I    between atoms: S20_5  and  N14_19 
REMARK       I    between atoms: S20_5  and  O28_18 
REMARK       I    between atoms: S20_5  and  O29_7 
REMARK       I    between atoms: S20_5  and  O30_30 
REMARK       I    between atoms: C27_6  and  C19_33 
REMARK       I    between atoms: O9_8  and  C4_32 
REMARK       I    between atoms: S16_9  and  O11_10 
REMARK       I    between atoms: O11_10  and  C6_15 
REMARK       I    between atoms: O25_14  and  C17_17 
REMARK       I    between atoms: C6_15  and  C2_23 
REMARK       I    between atoms: N14_19  and  C8_29 
REMARK       I    between atoms: C10_22  and  O15_26 
REMARK       I    between atoms: C7_25  and  O3_35 
ROOT
ATOM      1  C1  H1S d 501      38.321   2.323  15.343  0.00  0.00     0.095 C 
ATOM      2  O18 H1S d 501      34.273   4.106  13.689  0.00  0.00    -0.244 OA
ATOM      3  O34 H1S d 501      34.053  -0.227  16.309  0.00  0.00    -0.642 OA
ATOM      4  O35 H1S d 501      33.636  -1.039  14.296  0.00  0.00    -0.642 OA
ATOM      5  S20 H1S d 501      40.122   0.634  19.773  0.00  0.00     0.156 S 
ATOM      6  C27 H1S d 501      34.073  -0.151  15.063  0.00  0.00     0.233 C 
ATOM      7  O29 H1S d 501      40.494   2.077  19.943  0.00  0.00    -0.296 OA
ATOM      8  O9  H1S d 501      36.881   1.885  17.235  0.00  0.00    -0.391 OA
ATOM      9  S16 H1S d 501      41.682   3.316  11.827  0.00  0.00     0.251 S 
ATOM     10  O11 H1S d 501      41.233   2.584  12.970  0.00  0.00    -0.254 OA
ATOM     11  O32 H1S d 501      35.295   6.271  13.684  0.00  0.00    -0.572 OA
ATOM     12  O5  H1S d 501      40.722   2.068  15.723  0.00  0.00    -0.350 OA
ATOM     13  O23 H1S d 501      42.825   2.589  11.183  0.00  0.00    -0.572 OA
ATOM     14  O25 H1S d 501      36.581   2.074  11.741  0.00  0.00    -0.389 OA
ATOM     15  C6  H1S d 501      39.988   2.916  13.590  0.00  0.00     0.067 C 
ATOM     16  O21 H1S d 501      40.556   3.448  10.845  0.00  0.00    -0.572 OA
ATOM     17  C17 H1S d 501      35.328   2.419  12.340  0.00  0.00     0.086 C 
ATOM     18  O28 H1S d 501      41.342  -0.156  19.405  0.00  0.00    -0.296 OA
ATOM     19  N14 H1S d 501      39.000   0.484  18.598  0.00  0.00    -0.210 NA
ATOM     20  O31 H1S d 501      32.861   6.029  13.553  0.00  0.00    -0.572 OA
ATOM     21  C24 H1S d 501      34.746   1.189  13.041  0.00  0.00    -0.034 C 
ATOM     22  C10 H1S d 501      40.529   1.117  16.780  0.00  0.00     0.147 C 
ATOM     23  C2  H1S d 501      39.680   1.956  14.740  0.00  0.00     0.091 C 
ATOM     24  C12 H1S d 501      35.544   3.532  13.369  0.00  0.00     0.135 C 
ATOM     25  C7  H1S d 501      36.129   2.923  14.646  0.00  0.00     0.167 C 
ATOM     26  O15 H1S d 501      40.446  -0.199  16.226  0.00  0.00    -0.369 OA
ATOM     27  S26 H1S d 501      34.174   5.428  13.151  0.00  0.00     0.252 S 
ATOM     28  O22 H1S d 501      42.135   4.681  12.256  0.00  0.00    -0.572 OA
ATOM     29  C8  H1S d 501      39.233   1.457  17.523  0.00  0.00     0.081 C 
ATOM     30  O30 H1S d 501      39.555   0.110  21.060  0.00  0.00    -0.296 OA
ATOM     31  O13 H1S d 501      35.104   2.110  15.242  0.00  0.00    -0.311 OA
ATOM     32  C4  H1S d 501      38.051   1.424  16.553  0.00  0.00     0.083 C 
ATOM     33  C19 H1S d 501      34.672   1.106  14.430  0.00  0.00     0.147 C 
ATOM     34  O33 H1S d 501      34.258   5.371  11.654  0.00  0.00    -0.572 OA
ATOM     35  O3  H1S d 501      37.293   2.113  14.341  0.00  0.00    -0.348 OA
ATOM     36  H   H1S d 501      38.319   3.347  15.654  0.00  0.00     0.091 H 
ATOM     37  H   H1S d 501      40.861   2.416  19.111  0.00  0.00     0.231 HD
ATOM     38  H   H1S d 501      36.124   1.867  16.628  0.00  0.00     0.210 HD
ATOM     39  H   H1S d 501      36.952   2.853  11.296  0.00  0.00     0.210 HD
ATOM     40  H   H1S d 501      39.206   2.855  12.862  0.00  0.00     0.080 H 
ATOM     41  H   H1S d 501      40.055   3.910  13.981  0.00  0.00     0.080 H 
ATOM     42  H   H1S d 501      34.651   2.758  11.583  0.00  0.00     0.093 H 
ATOM     43  H   H1S d 501      41.708   0.183  18.574  0.00  0.00     0.231 HD
ATOM     44  H   H1S d 501      38.075   0.642  18.998  0.00  0.00     0.140 HD
ATOM     45  H   H1S d 501      34.400   0.402  12.470  0.00  0.00     0.085 H 
ATOM     46  H   H1S d 501      41.351   1.155  17.464  0.00  0.00     0.131 H 
ATOM     47  H   H1S d 501      39.637   0.945  14.391  0.00  0.00     0.090 H 
ATOM     48  H   H1S d 501      36.207   4.272  12.973  0.00  0.00     0.097 H 
ATOM     49  H   H1S d 501      36.440   3.697  15.317  0.00  0.00     0.134 H 
ATOM     50  H   H1S d 501      39.702  -0.242  15.604  0.00  0.00     0.212 HD
ATOM     51  H   H1S d 501      39.327   2.437  17.941  0.00  0.00     0.076 H 
ATOM     52  H   H1S d 501      39.314  -0.823  20.950  0.00  0.00     0.231 HD
ATOM     53  H   H1S d 501      37.909   0.422  16.209  0.00  0.00     0.089 H 
ENDROOT
TORSDOF 16
ENDMDL
MODEL 34
REMARK VINA RESULT:      -8.4      3.038      7.058
REMARK  0 active torsions:
REMARK  status: ('A' for Active; 'I' for Inactive)
REMARK       I    between atoms: C1_1  and  O3_35 
REMARK       I    between atoms: O18_2  and  C12_24 
REMARK       I    between atoms: O18_2  and  S26_27 
REMARK       I    between atoms: S20_5  and  N14_19 
REMARK       I    between atoms: S20_5  and  O28_18 
REMARK       I    between atoms: S20_5  and  O29_7 
REMARK       I    between atoms: S20_5  and  O30_30 
REMARK       I    between atoms: C27_6  and  C19_33 
REMARK       I    between atoms: O9_8  and  C4_32 
REMARK       I    between atoms: S16_9  and  O11_10 
REMARK       I    between atoms: O11_10  and  C6_15 
REMARK       I    between atoms: O25_14  and  C17_17 
REMARK       I    between atoms: C6_15  and  C2_23 
REMARK       I    between atoms: N14_19  and  C8_29 
REMARK       I    between atoms: C10_22  and  O15_26 
REMARK       I    between atoms: C7_25  and  O3_35 
ROOT
ATOM      1  C1  H1S d 501      36.413   2.148  13.960  0.00  0.00     0.095 C 
ATOM      2  O18 H1S d 501      38.092  -0.962  17.091  0.00  0.00    -0.244 OA
ATOM      3  O34 H1S d 501      33.553  -1.891  15.037  0.00  0.00    -0.642 OA
ATOM      4  O35 H1S d 501      32.886  -1.348  17.072  0.00  0.00    -0.642 OA
ATOM      5  S20 H1S d 501      34.471   2.051   9.275  0.00  0.00     0.156 S 
ATOM      6  C27 H1S d 501      33.732  -1.354  16.149  0.00  0.00     0.233 C 
ATOM      7  O29 H1S d 501      35.914   2.191   8.891  0.00  0.00    -0.296 OA
ATOM      8  O9  H1S d 501      35.740   0.089  12.888  0.00  0.00    -0.391 OA
ATOM      9  S16 H1S d 501      37.881   6.579  15.650  0.00  0.00     0.251 S 
ATOM     10  O11 H1S d 501      37.033   5.755  14.846  0.00  0.00    -0.254 OA
ATOM     11  O32 H1S d 501      40.305  -0.225  16.551  0.00  0.00    -0.572 OA
ATOM     12  O5  H1S d 501      36.265   4.177  12.605  0.00  0.00    -0.350 OA
ATOM     13  O23 H1S d 501      37.275   7.945  15.781  0.00  0.00    -0.572 OA
ATOM     14  O25 H1S d 501      36.362   2.119  17.967  0.00  0.00    -0.389 OA
ATOM     15  C6  H1S d 501      37.242   4.341  14.802  0.00  0.00     0.067 C 
ATOM     16  O21 H1S d 501      38.029   5.966  17.011  0.00  0.00    -0.572 OA
ATOM     17  C17 H1S d 501      36.585   0.706  17.944  0.00  0.00     0.086 C 
ATOM     18  O28 H1S d 501      33.785   3.376   9.126  0.00  0.00    -0.296 OA
ATOM     19  N14 H1S d 501      34.354   1.548  10.822  0.00  0.00    -0.210 NA
ATOM     20  O31 H1S d 501      39.936  -2.345  17.721  0.00  0.00    -0.572 OA
ATOM     21  C24 H1S d 501      35.270  -0.009  17.621  0.00  0.00    -0.034 C 
ATOM     22  C10 H1S d 501      35.221   3.639  11.780  0.00  0.00     0.147 C 
ATOM     23  C2  H1S d 501      36.174   3.661  13.943  0.00  0.00     0.091 C 
ATOM     24  C12 H1S d 501      37.619   0.370  16.867  0.00  0.00     0.135 C 
ATOM     25  C7  H1S d 501      36.942   0.412  15.495  0.00  0.00     0.167 C 
ATOM     26  O15 H1S d 501      33.952   3.912  12.382  0.00  0.00    -0.369 OA
ATOM     27  S26 H1S d 501      39.446  -0.939  17.554  0.00  0.00     0.252 S 
ATOM     28  O22 H1S d 501      39.230   6.689  15.002  0.00  0.00    -0.572 OA
ATOM     29  C8  H1S d 501      35.424   2.128  11.645  0.00  0.00     0.081 C 
ATOM     30  O30 H1S d 501      33.812   1.043   8.382  0.00  0.00    -0.296 OA
ATOM     31  O13 H1S d 501      36.026  -0.695  15.435  0.00  0.00    -0.311 OA
ATOM     32  C4  H1S d 501      35.404   1.472  13.027  0.00  0.00     0.083 C 
ATOM     33  C19 H1S d 501      35.069  -0.654  16.402  0.00  0.00     0.147 C 
ATOM     34  O33 H1S d 501      39.517  -0.226  18.872  0.00  0.00    -0.572 OA
ATOM     35  O3  H1S d 501      36.227   1.662  15.314  0.00  0.00    -0.348 OA
ATOM     36  H   H1S d 501      37.406   1.926  13.629  0.00  0.00     0.091 H 
ATOM     37  H   H1S d 501      36.341   2.843   9.469  0.00  0.00     0.231 HD
ATOM     38  H   H1S d 501      35.729  -0.337  13.760  0.00  0.00     0.210 HD
ATOM     39  H   H1S d 501      37.194   2.574  18.172  0.00  0.00     0.210 HD
ATOM     40  H   H1S d 501      37.196   3.948  15.796  0.00  0.00     0.080 H 
ATOM     41  H   H1S d 501      38.202   4.151  14.370  0.00  0.00     0.080 H 
ATOM     42  H   H1S d 501      36.945   0.384  18.899  0.00  0.00     0.093 H 
ATOM     43  H   H1S d 501      34.211   4.028   9.704  0.00  0.00     0.231 HD
ATOM     44  H   H1S d 501      34.426   0.530  10.849  0.00  0.00     0.140 HD
ATOM     45  H   H1S d 501      34.514  -0.012  18.323  0.00  0.00     0.085 H 
ATOM     46  H   H1S d 501      35.249   4.090  10.810  0.00  0.00     0.131 H 
ATOM     47  H   H1S d 501      35.195   3.857  14.327  0.00  0.00     0.090 H 
ATOM     48  H   H1S d 501      38.426   1.072  16.905  0.00  0.00     0.097 H 
ATOM     49  H   H1S d 501      37.675   0.343  14.717  0.00  0.00     0.134 H 
ATOM     50  H   H1S d 501      33.918   3.506  13.263  0.00  0.00     0.212 HD
ATOM     51  H   H1S d 501      36.370   1.951  11.179  0.00  0.00     0.076 H 
ATOM     52  H   H1S d 501      32.878   0.952   8.630  0.00  0.00     0.231 HD
ATOM     53  H   H1S d 501      34.427   1.576  13.449  0.00  0.00     0.089 H 
ENDROOT
TORSDOF 16
ENDMDL
MODEL 35
REMARK VINA RESULT:      -8.3      3.233      5.079
REMARK  0 active torsions:
REMARK  status: ('A' for Active; 'I' for Inactive)
REMARK       I    between atoms: C1_1  and  O3_35 
REMARK       I    between atoms: O18_2  and  C12_24 
REMARK       I    between atoms: O18_2  and  S26_27 
REMARK       I    between atoms: S20_5  and  N14_19 
REMARK       I    between atoms: S20_5  and  O28_18 
REMARK       I    between atoms: S20_5  and  O29_7 
REMARK       I    between atoms: S20_5  and  O30_30 
REMARK       I    between atoms: C27_6  and  C19_33 
REMARK       I    between atoms: O9_8  and  C4_32 
REMARK       I    between atoms: S16_9  and  O11_10 
REMARK       I    between atoms: O11_10  and  C6_15 
REMARK       I    between atoms: O25_14  and  C17_17 
REMARK       I    between atoms: C6_15  and  C2_23 
REMARK       I    between atoms: N14_19  and  C8_29 
REMARK       I    between atoms: C10_22  and  O15_26 
REMARK       I    between atoms: C7_25  and  O3_35 
ROOT
ATOM      1  C1  H1S d 501      39.274   1.617  16.702  0.00  0.00     0.095 C 
ATOM      2  O18 H1S d 501      35.150  -0.678  16.843  0.00  0.00    -0.244 OA
ATOM      3  O34 H1S d 501      38.169  -0.989  20.902  0.00  0.00    -0.642 OA
ATOM      4  O35 H1S d 501      38.425  -3.050  20.144  0.00  0.00    -0.642 OA
ATOM      5  S20 H1S d 501      41.828   4.887  19.618  0.00  0.00     0.156 S 
ATOM      6  C27 H1S d 501      38.104  -1.849  19.999  0.00  0.00     0.233 C 
ATOM      7  O29 H1S d 501      41.051   5.893  18.822  0.00  0.00    -0.296 OA
ATOM      8  O9  H1S d 501      38.629   2.081  18.985  0.00  0.00    -0.391 OA
ATOM      9  S16 H1S d 501      40.821   1.172  12.005  0.00  0.00     0.251 S 
ATOM     10  O11 H1S d 501      41.059   1.430  13.392  0.00  0.00    -0.254 OA
ATOM     11  O32 H1S d 501      34.300   0.867  15.224  0.00  0.00    -0.572 OA
ATOM     12  O5  H1S d 501      41.131   2.932  15.808  0.00  0.00    -0.350 OA
ATOM     13  O23 H1S d 501      42.124   0.903  11.314  0.00  0.00    -0.572 OA
ATOM     14  O25 H1S d 501      38.175  -1.965  15.280  0.00  0.00    -0.389 OA
ATOM     15  C6  H1S d 501      39.969   1.439  14.316  0.00  0.00     0.067 C 
ATOM     16  O21 H1S d 501      39.925  -0.023  11.866  0.00  0.00    -0.572 OA
ATOM     17  C17 H1S d 501      37.069  -1.969  16.189  0.00  0.00     0.086 C 
ATOM     18  O28 H1S d 501      43.236   4.826  19.106  0.00  0.00    -0.296 OA
ATOM     19  N14 H1S d 501      41.135   3.417  19.484  0.00  0.00    -0.210 NA
ATOM     20  O31 H1S d 501      32.783  -0.525  16.552  0.00  0.00    -0.572 OA
ATOM     21  C24 H1S d 501      37.565  -2.340  17.588  0.00  0.00    -0.034 C 
ATOM     22  C10 H1S d 501      41.703   3.144  17.108  0.00  0.00     0.147 C 
ATOM     23  C2  H1S d 501      40.469   1.657  15.745  0.00  0.00     0.091 C 
ATOM     24  C12 H1S d 501      36.439  -0.575  16.230  0.00  0.00     0.135 C 
ATOM     25  C7  H1S d 501      37.308   0.340  17.095  0.00  0.00     0.167 C 
ATOM     26  O15 H1S d 501      42.582   2.060  17.422  0.00  0.00    -0.369 OA
ATOM     27  S26 H1S d 501      34.118  -0.474  15.873  0.00  0.00     0.252 S 
ATOM     28  O22 H1S d 501      40.160   2.368  11.383  0.00  0.00    -0.572 OA
ATOM     29  C8  H1S d 501      40.575   3.222  18.140  0.00  0.00     0.081 C 
ATOM     30  O30 H1S d 501      41.839   5.293  21.062  0.00  0.00    -0.296 OA
ATOM     31  O13 H1S d 501      37.194  -0.118  18.453  0.00  0.00    -0.311 OA
ATOM     32  C4  H1S d 501      39.759   1.928  18.121  0.00  0.00     0.083 C 
ATOM     33  C19 H1S d 501      37.601  -1.406  18.622  0.00  0.00     0.147 C 
ATOM     34  O33 H1S d 501      34.188  -1.549  14.829  0.00  0.00    -0.572 OA
ATOM     35  O3  H1S d 501      38.693   0.288  16.666  0.00  0.00    -0.348 OA
ATOM     36  H   H1S d 501      38.541   2.340  16.410  0.00  0.00     0.091 H 
ATOM     37  H   H1S d 501      41.045   5.631  17.889  0.00  0.00     0.231 HD
ATOM     38  H   H1S d 501      38.104   1.265  18.980  0.00  0.00     0.210 HD
ATOM     39  H   H1S d 501      37.862  -1.730  14.392  0.00  0.00     0.210 HD
ATOM     40  H   H1S d 501      39.456   0.501  14.264  0.00  0.00     0.080 H 
ATOM     41  H   H1S d 501      39.307   2.239  14.058  0.00  0.00     0.080 H 
ATOM     42  H   H1S d 501      36.341  -2.682  15.863  0.00  0.00     0.093 H 
ATOM     43  H   H1S d 501      43.230   4.565  18.172  0.00  0.00     0.231 HD
ATOM     44  H   H1S d 501      40.387   3.336  20.173  0.00  0.00     0.140 HD
ATOM     45  H   H1S d 501      37.881  -3.306  17.770  0.00  0.00     0.085 H 
ATOM     46  H   H1S d 501      42.260   4.058  17.120  0.00  0.00     0.131 H 
ATOM     47  H   H1S d 501      41.160   0.892  16.028  0.00  0.00     0.090 H 
ATOM     48  H   H1S d 501      36.358  -0.182  15.238  0.00  0.00     0.097 H 
ATOM     49  H   H1S d 501      36.980   1.356  17.007  0.00  0.00     0.134 H 
ATOM     50  H   H1S d 501      42.084   1.227  17.414  0.00  0.00     0.212 HD
ATOM     51  H   H1S d 501      39.942   4.048  17.893  0.00  0.00     0.076 H 
ATOM     52  H   H1S d 501      42.341   4.642  21.577  0.00  0.00     0.231 HD
ATOM     53  H   H1S d 501      40.375   1.121  18.456  0.00  0.00     0.089 H 
ENDROOT
TORSDOF 16
ENDMDL
MODEL 36
REMARK VINA RESULT:      -8.3      4.167      7.859
REMARK  0 active torsions:
REMARK  status: ('A' for Active; 'I' for Inactive)
REMARK       I    between atoms: C1_1  and  O3_35 
REMARK       I    between atoms: O18_2  and  C12_24 
REMARK       I    between atoms: O18_2  and  S26_27 
REMARK       I    between atoms: S20_5  and  N14_19 
REMARK       I    between atoms: S20_5  and  O28_18 
REMARK       I    between atoms: S20_5  and  O29_7 
REMARK       I    between atoms: S20_5  and  O30_30 
REMARK       I    between atoms: C27_6  and  C19_33 
REMARK       I    between atoms: O9_8  and  C4_32 
REMARK       I    between atoms: S16_9  and  O11_10 
REMARK       I    between atoms: O11_10  and  C6_15 
REMARK       I    between atoms: O25_14  and  C17_17 
REMARK       I    between atoms: C6_15  and  C2_23 
REMARK       I    between atoms: N14_19  and  C8_29 
REMARK       I    between atoms: C10_22  and  O15_26 
REMARK       I    between atoms: C7_25  and  O3_35 
ROOT
ATOM      1  C1  H1S d 501      39.268   2.417  15.112  0.00  0.00     0.095 C 
ATOM      2  O18 H1S d 501      41.916   0.229  11.872  0.00  0.00    -0.244 OA
ATOM      3  O34 H1S d 501      38.664   3.768  10.268  0.00  0.00    -0.642 OA
ATOM      4  O35 H1S d 501      37.605   1.983   9.509  0.00  0.00    -0.642 OA
ATOM      5  S20 H1S d 501      38.131   7.189  16.399  0.00  0.00     0.156 S 
ATOM      6  C27 H1S d 501      38.437   2.541  10.260  0.00  0.00     0.233 C 
ATOM      7  O29 H1S d 501      39.350   7.036  17.257  0.00  0.00    -0.296 OA
ATOM      8  O9  H1S d 501      39.810   4.297  13.692  0.00  0.00    -0.391 OA
ATOM      9  S16 H1S d 501      38.185  -1.090  18.455  0.00  0.00     0.251 S 
ATOM     10  O11 H1S d 501      37.941   0.172  17.828  0.00  0.00    -0.254 OA
ATOM     11  O32 H1S d 501      43.526  -0.235  13.583  0.00  0.00    -0.572 OA
ATOM     12  O5  H1S d 501      38.288   2.945  17.287  0.00  0.00    -0.350 OA
ATOM     13  O23 H1S d 501      36.977  -1.500  19.243  0.00  0.00    -0.572 OA
ATOM     14  O25 H1S d 501      38.816  -1.099  13.242  0.00  0.00    -0.389 OA
ATOM     15  C6  H1S d 501      38.820   0.645  16.805  0.00  0.00     0.067 C 
ATOM     16  O21 H1S d 501      38.471  -2.122  17.404  0.00  0.00    -0.572 OA
ATOM     17  C17 H1S d 501      39.705  -0.649  12.215  0.00  0.00     0.086 C 
ATOM     18  O28 H1S d 501      36.902   7.065  17.250  0.00  0.00    -0.296 OA
ATOM     19  N14 H1S d 501      38.113   6.035  15.246  0.00  0.00    -0.210 NA
ATOM     20  O31 H1S d 501      44.124  -0.408  11.214  0.00  0.00    -0.572 OA
ATOM     21  C24 H1S d 501      38.952   0.293  11.271  0.00  0.00    -0.034 C 
ATOM     22  C10 H1S d 501      37.735   4.185  16.820  0.00  0.00     0.147 C 
ATOM     23  C2  H1S d 501      38.321   1.972  16.230  0.00  0.00     0.091 C 
ATOM     24  C12 H1S d 501      40.877   0.103  12.848  0.00  0.00     0.135 C 
ATOM     25  C7  H1S d 501      40.416   1.509  13.238  0.00  0.00     0.167 C 
ATOM     26  O15 H1S d 501      36.441   3.947  16.260  0.00  0.00    -0.369 OA
ATOM     27  S26 H1S d 501      43.027  -0.605  12.217  0.00  0.00     0.252 S 
ATOM     28  O22 H1S d 501      39.366  -0.970  19.373  0.00  0.00    -0.572 OA
ATOM     29  C8  H1S d 501      38.667   4.774  15.758  0.00  0.00     0.081 C 
ATOM     30  O30 H1S d 501      38.149   8.537  15.741  0.00  0.00    -0.296 OA
ATOM     31  O13 H1S d 501      40.173   2.234  12.021  0.00  0.00    -0.311 OA
ATOM     32  C4  H1S d 501      38.826   3.790  14.597  0.00  0.00     0.083 C 
ATOM     33  C19 H1S d 501      39.224   1.659  11.232  0.00  0.00     0.147 C 
ATOM     34  O33 H1S d 501      42.600  -2.043  12.212  0.00  0.00    -0.572 OA
ATOM     35  O3  H1S d 501      39.204   1.449  14.033  0.00  0.00    -0.348 OA
ATOM     36  H   H1S d 501      40.271   2.482  15.480  0.00  0.00     0.091 H 
ATOM     37  H   H1S d 501      39.338   6.164  17.683  0.00  0.00     0.231 HD
ATOM     38  H   H1S d 501      39.917   3.680  12.951  0.00  0.00     0.210 HD
ATOM     39  H   H1S d 501      39.291  -1.696  13.841  0.00  0.00     0.210 HD
ATOM     40  H   H1S d 501      38.869  -0.081  16.020  0.00  0.00     0.080 H 
ATOM     41  H   H1S d 501      39.790   0.799  17.230  0.00  0.00     0.080 H 
ATOM     42  H   H1S d 501      40.073  -1.491  11.666  0.00  0.00     0.093 H 
ATOM     43  H   H1S d 501      36.891   6.194  17.676  0.00  0.00     0.231 HD
ATOM     44  H   H1S d 501      38.672   6.348  14.452  0.00  0.00     0.140 HD
ATOM     45  H   H1S d 501      38.226  -0.094  10.648  0.00  0.00     0.085 H 
ATOM     46  H   H1S d 501      37.641   4.875  17.633  0.00  0.00     0.131 H 
ATOM     47  H   H1S d 501      37.338   1.865  15.823  0.00  0.00     0.090 H 
ATOM     48  H   H1S d 501      41.227  -0.426  13.710  0.00  0.00     0.097 H 
ATOM     49  H   H1S d 501      41.166   1.995  13.828  0.00  0.00     0.134 H 
ATOM     50  H   H1S d 501      36.518   3.322  15.522  0.00  0.00     0.212 HD
ATOM     51  H   H1S d 501      39.622   4.958  16.204  0.00  0.00     0.076 H 
ATOM     52  H   H1S d 501      37.360   8.636  15.185  0.00  0.00     0.231 HD
ATOM     53  H   H1S d 501      37.885   3.681  14.100  0.00  0.00     0.089 H 
ENDROOT
TORSDOF 16
ENDMDL
MODEL 37
REMARK VINA RESULT:      -8.2      2.335      6.775
REMARK  0 active torsions:
REMARK  status: ('A' for Active; 'I' for Inactive)
REMARK       I    between atoms: C1_1  and  O3_35 
REMARK       I    between atoms: O18_2  and  C12_24 
REMARK       I    between atoms: O18_2  and  S26_27 
REMARK       I    between atoms: S20_5  and  N14_19 
REMARK       I    between atoms: S20_5  and  O28_18 
REMARK       I    between atoms: S20_5  and  O29_7 
REMARK       I    between atoms: S20_5  and  O30_30 
REMARK       I    between atoms: C27_6  and  C19_33 
REMARK       I    between atoms: O9_8  and  C4_32 
REMARK       I    between atoms: S16_9  and  O11_10 
REMARK       I    between atoms: O11_10  and  C6_15 
REMARK       I    between atoms: O25_14  and  C17_17 
REMARK       I    between atoms: C6_15  and  C2_23 
REMARK       I    between atoms: N14_19  and  C8_29 
REMARK       I    between atoms: C10_22  and  O15_26 
REMARK       I    between atoms: C7_25  and  O3_35 
ROOT
ATOM      1  C1  H1S d 501      35.210   1.440  13.479  0.00  0.00     0.095 C 
ATOM      2  O18 H1S d 501      39.456   3.170  12.351  0.00  0.00    -0.244 OA
ATOM      3  O34 H1S d 501      38.990   0.746  16.778  0.00  0.00    -0.642 OA
ATOM      4  O35 H1S d 501      39.197   2.806  17.552  0.00  0.00    -0.642 OA
ATOM      5  S20 H1S d 501      33.274  -2.979  15.041  0.00  0.00     0.156 S 
ATOM      6  C27 H1S d 501      38.946   1.986  16.640  0.00  0.00     0.233 C 
ATOM      7  O29 H1S d 501      33.166  -3.224  13.565  0.00  0.00    -0.296 OA
ATOM      8  O9  H1S d 501      36.606  -0.375  14.253  0.00  0.00    -0.391 OA
ATOM      9  S16 H1S d 501      31.972   4.781  11.747  0.00  0.00     0.251 S 
ATOM     10  O11 H1S d 501      32.319   3.688  12.601  0.00  0.00    -0.254 OA
ATOM     11  O32 H1S d 501      38.832   3.044  10.043  0.00  0.00    -0.572 OA
ATOM     12  O5  H1S d 501      32.814   0.981  13.330  0.00  0.00    -0.350 OA
ATOM     13  O23 H1S d 501      30.701   5.412  12.232  0.00  0.00    -0.572 OA
ATOM     14  O25 H1S d 501      36.770   5.113  13.853  0.00  0.00    -0.389 OA
ATOM     15  C6  H1S d 501      33.621   3.103  12.521  0.00  0.00     0.067 C 
ATOM     16  O21 H1S d 501      33.074   5.799  11.766  0.00  0.00    -0.572 OA
ATOM     17  C17 H1S d 501      38.081   4.548  13.761  0.00  0.00     0.086 C 
ATOM     18  O28 H1S d 501      31.923  -2.625  15.588  0.00  0.00    -0.296 OA
ATOM     19  N14 H1S d 501      34.316  -1.757  15.327  0.00  0.00    -0.210 NA
ATOM     20  O31 H1S d 501      41.180   3.278  10.699  0.00  0.00    -0.572 OA
ATOM     21  C24 H1S d 501      38.459   3.923  15.106  0.00  0.00    -0.034 C 
ATOM     22  C10 H1S d 501      32.869  -0.027  14.350  0.00  0.00     0.147 C 
ATOM     23  C2  H1S d 501      33.790   2.007  13.575  0.00  0.00     0.091 C 
ATOM     24  C12 H1S d 501      38.095   3.466  12.679  0.00  0.00     0.135 C 
ATOM     25  C7  H1S d 501      37.452   2.194  13.237  0.00  0.00     0.167 C 
ATOM     26  O15 H1S d 501      32.702   0.586  15.632  0.00  0.00    -0.369 OA
ATOM     27  S26 H1S d 501      39.771   3.655  11.042  0.00  0.00     0.252 S 
ATOM     28  O22 H1S d 501      31.779   4.278  10.346  0.00  0.00    -0.572 OA
ATOM     29  C8  H1S d 501      34.225  -0.734  14.277  0.00  0.00     0.081 C 
ATOM     30  O30 H1S d 501      33.777  -4.220  15.718  0.00  0.00    -0.296 OA
ATOM     31  O13 H1S d 501      38.335   1.673  14.244  0.00  0.00    -0.311 OA
ATOM     32  C4  H1S d 501      35.354   0.281  14.469  0.00  0.00     0.083 C 
ATOM     33  C19 H1S d 501      38.559   2.542  15.268  0.00  0.00     0.147 C 
ATOM     34  O33 H1S d 501      39.633   5.149  11.012  0.00  0.00    -0.572 OA
ATOM     35  O3  H1S d 501      36.154   2.489  13.817  0.00  0.00    -0.348 OA
ATOM     36  H   H1S d 501      35.402   1.087  12.487  0.00  0.00     0.091 H 
ATOM     37  H   H1S d 501      32.840  -2.422  13.128  0.00  0.00     0.231 HD
ATOM     38  H   H1S d 501      37.330   0.261  14.372  0.00  0.00     0.210 HD
ATOM     39  H   H1S d 501      36.529   5.511  13.001  0.00  0.00     0.210 HD
ATOM     40  H   H1S d 501      34.358   3.862  12.682  0.00  0.00     0.080 H 
ATOM     41  H   H1S d 501      33.742   2.667  11.551  0.00  0.00     0.080 H 
ATOM     42  H   H1S d 501      38.784   5.316  13.510  0.00  0.00     0.093 H 
ATOM     43  H   H1S d 501      31.597  -1.823  15.150  0.00  0.00     0.231 HD
ATOM     44  H   H1S d 501      35.266  -2.128  15.352  0.00  0.00     0.140 HD
ATOM     45  H   H1S d 501      38.644   4.539  15.913  0.00  0.00     0.085 H 
ATOM     46  H   H1S d 501      32.086  -0.742  14.203  0.00  0.00     0.131 H 
ATOM     47  H   H1S d 501      33.644   2.400  14.559  0.00  0.00     0.090 H 
ATOM     48  H   H1S d 501      37.561   3.805  11.817  0.00  0.00     0.097 H 
ATOM     49  H   H1S d 501      37.301   1.480  12.455  0.00  0.00     0.134 H 
ATOM     50  H   H1S d 501      33.408   1.236  15.774  0.00  0.00     0.212 HD
ATOM     51  H   H1S d 501      34.318  -1.196  13.318  0.00  0.00     0.076 H 
ATOM     52  H   H1S d 501      33.847  -4.062  16.672  0.00  0.00     0.231 HD
ATOM     53  H   H1S d 501      35.307   0.673  15.463  0.00  0.00     0.089 H 
ENDROOT
TORSDOF 16
ENDMDL
MODEL 38
REMARK VINA RESULT:      -8.1      3.152      8.246
REMARK  0 active torsions:
REMARK  status: ('A' for Active; 'I' for Inactive)
REMARK       I    between atoms: C1_1  and  O3_35 
REMARK       I    between atoms: O18_2  and  C12_24 
REMARK       I    between atoms: O18_2  and  S26_27 
REMARK       I    between atoms: S20_5  and  N14_19 
REMARK       I    between atoms: S20_5  and  O28_18 
REMARK       I    between atoms: S20_5  and  O29_7 
REMARK       I    between atoms: S20_5  and  O30_30 
REMARK       I    between atoms: C27_6  and  C19_33 
REMARK       I    between atoms: O9_8  and  C4_32 
REMARK       I    between atoms: S16_9  and  O11_10 
REMARK       I    between atoms: O11_10  and  C6_15 
REMARK       I    between atoms: O25_14  and  C17_17 
REMARK       I    between atoms: C6_15  and  C2_23 
REMARK       I    between atoms: N14_19  and  C8_29 
REMARK       I    between atoms: C10_22  and  O15_26 
REMARK       I    between atoms: C7_25  and  O3_35 
ROOT
ATOM      1  C1  H1S d 501      37.774   2.844  14.512  0.00  0.00     0.095 C 
ATOM      2  O18 H1S d 501      41.176   6.081  15.011  0.00  0.00    -0.244 OA
ATOM      3  O34 H1S d 501      40.943   3.554  10.625  0.00  0.00    -0.642 OA
ATOM      4  O35 H1S d 501      42.765   2.613  11.448  0.00  0.00    -0.642 OA
ATOM      5  S20 H1S d 501      34.166   1.712  11.132  0.00  0.00     0.156 S 
ATOM      6  C27 H1S d 501      41.702   3.262  11.571  0.00  0.00     0.233 C 
ATOM      7  O29 H1S d 501      33.366   2.666  11.967  0.00  0.00    -0.296 OA
ATOM      8  O9  H1S d 501      37.717   3.837  12.308  0.00  0.00    -0.391 OA
ATOM      9  S16 H1S d 501      37.340   0.749  18.991  0.00  0.00     0.251 S 
ATOM     10  O11 H1S d 501      37.145   0.746  17.575  0.00  0.00    -0.254 OA
ATOM     11  O32 H1S d 501      39.812   7.180  16.644  0.00  0.00    -0.572 OA
ATOM     12  O5  H1S d 501      35.903   1.384  15.095  0.00  0.00    -0.350 OA
ATOM     13  O23 H1S d 501      37.157  -0.641  19.525  0.00  0.00    -0.572 OA
ATOM     14  O25 H1S d 501      41.384   2.662  16.243  0.00  0.00    -0.389 OA
ATOM     15  C6  H1S d 501      37.535   1.880  16.796  0.00  0.00     0.067 C 
ATOM     16  O21 H1S d 501      38.728   1.225  19.303  0.00  0.00    -0.572 OA
ATOM     17  C17 H1S d 501      41.789   3.805  15.483  0.00  0.00     0.086 C 
ATOM     18  O28 H1S d 501      33.769   0.304  11.465  0.00  0.00    -0.296 OA
ATOM     19  N14 H1S d 501      35.757   1.914  11.428  0.00  0.00    -0.210 NA
ATOM     20  O31 H1S d 501      41.696   8.340  15.592  0.00  0.00    -0.572 OA
ATOM     21  C24 H1S d 501      42.119   3.371  14.053  0.00  0.00    -0.034 C 
ATOM     22  C10 H1S d 501      35.646   1.043  13.724  0.00  0.00     0.147 C 
ATOM     23  C2  H1S d 501      37.304   1.622  15.306  0.00  0.00     0.091 C 
ATOM     24  C12 H1S d 501      40.649   4.825  15.451  0.00  0.00     0.135 C 
ATOM     25  C7  H1S d 501      39.598   4.367  14.436  0.00  0.00     0.167 C 
ATOM     26  O15 H1S d 501      36.449  -0.083  13.357  0.00  0.00    -0.369 OA
ATOM     27  S26 H1S d 501      41.198   7.018  16.093  0.00  0.00     0.252 S 
ATOM     28  O22 H1S d 501      36.340   1.667  19.630  0.00  0.00    -0.572 OA
ATOM     29  C8  H1S d 501      35.990   2.245  12.841  0.00  0.00     0.081 C 
ATOM     30  O30 H1S d 501      33.901   1.976   9.679  0.00  0.00    -0.296 OA
ATOM     31  O13 H1S d 501      40.186   4.481  13.129  0.00  0.00    -0.311 OA
ATOM     32  C4  H1S d 501      37.459   2.628  13.028  0.00  0.00     0.083 C 
ATOM     33  C19 H1S d 501      41.308   3.726  12.976  0.00  0.00     0.147 C 
ATOM     34  O33 H1S d 501      42.112   6.519  17.173  0.00  0.00    -0.572 OA
ATOM     35  O3  H1S d 501      39.206   2.993  14.689  0.00  0.00    -0.348 OA
ATOM     36  H   H1S d 501      37.273   3.725  14.857  0.00  0.00     0.091 H 
ATOM     37  H   H1S d 501      33.536   2.496  12.906  0.00  0.00     0.231 HD
ATOM     38  H   H1S d 501      38.648   4.088  12.421  0.00  0.00     0.210 HD
ATOM     39  H   H1S d 501      41.175   2.935  17.150  0.00  0.00     0.210 HD
ATOM     40  H   H1S d 501      38.573   2.080  16.961  0.00  0.00     0.080 H 
ATOM     41  H   H1S d 501      36.943   2.720  17.095  0.00  0.00     0.080 H 
ATOM     42  H   H1S d 501      42.653   4.247  15.934  0.00  0.00     0.093 H 
ATOM     43  H   H1S d 501      33.939   0.134  12.404  0.00  0.00     0.231 HD
ATOM     44  H   H1S d 501      36.112   2.672  10.844  0.00  0.00     0.140 HD
ATOM     45  H   H1S d 501      42.962   2.801  13.882  0.00  0.00     0.085 H 
ATOM     46  H   H1S d 501      34.614   0.790  13.595  0.00  0.00     0.131 H 
ATOM     47  H   H1S d 501      37.856   0.767  14.978  0.00  0.00     0.090 H 
ATOM     48  H   H1S d 501      40.212   4.915  16.423  0.00  0.00     0.097 H 
ATOM     49  H   H1S d 501      38.719   4.973  14.513  0.00  0.00     0.134 H 
ATOM     50  H   H1S d 501      37.387   0.138  13.471  0.00  0.00     0.212 HD
ATOM     51  H   H1S d 501      35.366   3.066  13.123  0.00  0.00     0.076 H 
ATOM     52  H   H1S d 501      34.419   1.359   9.139  0.00  0.00     0.231 HD
ATOM     53  H   H1S d 501      38.077   1.837  12.660  0.00  0.00     0.089 H 
ENDROOT
TORSDOF 16
ENDMDL
MODEL 39
REMARK VINA RESULT:      -8.1      2.815      3.967
REMARK  0 active torsions:
REMARK  status: ('A' for Active; 'I' for Inactive)
REMARK       I    between atoms: C1_1  and  O3_35 
REMARK       I    between atoms: O18_2  and  C12_24 
REMARK       I    between atoms: O18_2  and  S26_27 
REMARK       I    between atoms: S20_5  and  N14_19 
REMARK       I    between atoms: S20_5  and  O28_18 
REMARK       I    between atoms: S20_5  and  O29_7 
REMARK       I    between atoms: S20_5  and  O30_30 
REMARK       I    between atoms: C27_6  and  C19_33 
REMARK       I    between atoms: O9_8  and  C4_32 
REMARK       I    between atoms: S16_9  and  O11_10 
REMARK       I    between atoms: O11_10  and  C6_15 
REMARK       I    between atoms: O25_14  and  C17_17 
REMARK       I    between atoms: C6_15  and  C2_23 
REMARK       I    between atoms: N14_19  and  C8_29 
REMARK       I    between atoms: C10_22  and  O15_26 
REMARK       I    between atoms: C7_25  and  O3_35 
ROOT
ATOM      1  C1  H1S d 501      35.603   2.432  14.415  0.00  0.00     0.095 C 
ATOM      2  O18 H1S d 501      32.078   4.454  12.010  0.00  0.00    -0.244 OA
ATOM      3  O34 H1S d 501      33.978   0.112  10.216  0.00  0.00    -0.642 OA
ATOM      4  O35 H1S d 501      34.796   1.484   8.688  0.00  0.00    -0.642 OA
ATOM      5  S20 H1S d 501      36.683  -2.145  16.312  0.00  0.00     0.156 S 
ATOM      6  C27 H1S d 501      34.304   1.248   9.815  0.00  0.00     0.233 C 
ATOM      7  O29 H1S d 501      35.959  -1.599  17.507  0.00  0.00    -0.296 OA
ATOM      8  O9  H1S d 501      34.327   0.463  13.832  0.00  0.00    -0.391 OA
ATOM      9  S16 H1S d 501      38.339   6.220  16.093  0.00  0.00     0.251 S 
ATOM     10  O11 H1S d 501      38.168   4.841  15.757  0.00  0.00    -0.254 OA
ATOM     11  O32 H1S d 501      31.391   5.533  14.034  0.00  0.00    -0.572 OA
ATOM     12  O5  H1S d 501      37.346   2.137  16.102  0.00  0.00    -0.350 OA
ATOM     13  O23 H1S d 501      39.801   6.526  16.225  0.00  0.00    -0.572 OA
ATOM     14  O25 H1S d 501      35.584   5.382  11.702  0.00  0.00    -0.389 OA
ATOM     15  C6  H1S d 501      36.897   4.366  15.304  0.00  0.00     0.067 C 
ATOM     16  O21 H1S d 501      37.746   7.074  15.011  0.00  0.00    -0.572 OA
ATOM     17  C17 H1S d 501      34.306   4.931  11.244  0.00  0.00     0.086 C 
ATOM     18  O28 H1S d 501      38.161  -2.107  16.565  0.00  0.00    -0.296 OA
ATOM     19  N14 H1S d 501      36.332  -1.252  14.994  0.00  0.00    -0.210 NA
ATOM     20  O31 H1S d 501      29.875   5.376  12.116  0.00  0.00    -0.572 OA
ATOM     21  C24 H1S d 501      34.493   3.702  10.351  0.00  0.00    -0.034 C 
ATOM     22  C10 H1S d 501      37.522   0.749  15.784  0.00  0.00     0.147 C 
ATOM     23  C2  H1S d 501      36.971   2.884  14.933  0.00  0.00     0.091 C 
ATOM     24  C12 H1S d 501      33.437   4.554  12.446  0.00  0.00     0.135 C 
ATOM     25  C7  H1S d 501      33.874   3.182  12.966  0.00  0.00     0.167 C 
ATOM     26  O15 H1S d 501      38.479   0.620  14.729  0.00  0.00    -0.369 OA
ATOM     27  S26 H1S d 501      31.305   5.538  12.536  0.00  0.00     0.252 S 
ATOM     28  O22 H1S d 501      37.647   6.506  17.393  0.00  0.00    -0.572 OA
ATOM     29  C8  H1S d 501      36.176   0.166  15.347  0.00  0.00     0.081 C 
ATOM     30  O30 H1S d 501      36.253  -3.562  16.072  0.00  0.00    -0.296 OA
ATOM     31  O13 H1S d 501      33.508   2.210  11.972  0.00  0.00    -0.311 OA
ATOM     32  C4  H1S d 501      35.646   0.928  14.131  0.00  0.00     0.083 C 
ATOM     33  C19 H1S d 501      34.092   2.432  10.762  0.00  0.00     0.147 C 
ATOM     34  O33 H1S d 501      31.835   6.838  12.008  0.00  0.00    -0.572 OA
ATOM     35  O3  H1S d 501      35.307   3.152  13.190  0.00  0.00    -0.348 OA
ATOM     36  H   H1S d 501      34.846   2.634  15.145  0.00  0.00     0.091 H 
ATOM     37  H   H1S d 501      36.237  -0.684  17.663  0.00  0.00     0.231 HD
ATOM     38  H   H1S d 501      33.982   0.941  13.061  0.00  0.00     0.210 HD
ATOM     39  H   H1S d 501      35.468   6.161  12.268  0.00  0.00     0.210 HD
ATOM     40  H   H1S d 501      36.598   4.929  14.444  0.00  0.00     0.080 H 
ATOM     41  H   H1S d 501      36.185   4.487  16.094  0.00  0.00     0.080 H 
ATOM     42  H   H1S d 501      33.829   5.712  10.688  0.00  0.00     0.093 H 
ATOM     43  H   H1S d 501      38.439  -1.192  16.721  0.00  0.00     0.231 HD
ATOM     44  H   H1S d 501      35.463  -1.592  14.581  0.00  0.00     0.140 HD
ATOM     45  H   H1S d 501      34.926   3.817   9.421  0.00  0.00     0.085 H 
ATOM     46  H   H1S d 501      37.878   0.217  16.642  0.00  0.00     0.131 H 
ATOM     47  H   H1S d 501      37.699   2.719  14.166  0.00  0.00     0.090 H 
ATOM     48  H   H1S d 501      33.537   5.292  13.214  0.00  0.00     0.097 H 
ATOM     49  H   H1S d 501      33.396   2.970  13.900  0.00  0.00     0.134 H 
ATOM     50  H   H1S d 501      38.164   1.100  13.947  0.00  0.00     0.212 HD
ATOM     51  H   H1S d 501      35.483   0.258  16.157  0.00  0.00     0.076 H 
ATOM     52  H   H1S d 501      36.721  -3.915  15.299  0.00  0.00     0.231 HD
ATOM     53  H   H1S d 501      36.297   0.757  13.300  0.00  0.00     0.089 H 
ENDROOT
TORSDOF 16
ENDMDL
MODEL 40
REMARK VINA RESULT:      -8.1      2.549      7.712
REMARK  0 active torsions:
REMARK  status: ('A' for Active; 'I' for Inactive)
REMARK       I    between atoms: C1_1  and  O3_35 
REMARK       I    between atoms: O18_2  and  C12_24 
REMARK       I    between atoms: O18_2  and  S26_27 
REMARK       I    between atoms: S20_5  and  N14_19 
REMARK       I    between atoms: S20_5  and  O28_18 
REMARK       I    between atoms: S20_5  and  O29_7 
REMARK       I    between atoms: S20_5  and  O30_30 
REMARK       I    between atoms: C27_6  and  C19_33 
REMARK       I    between atoms: O9_8  and  C4_32 
REMARK       I    between atoms: S16_9  and  O11_10 
REMARK       I    between atoms: O11_10  and  C6_15 
REMARK       I    between atoms: O25_14  and  C17_17 
REMARK       I    between atoms: C6_15  and  C2_23 
REMARK       I    between atoms: N14_19  and  C8_29 
REMARK       I    between atoms: C10_22  and  O15_26 
REMARK       I    between atoms: C7_25  and  O3_35 
ROOT
ATOM      1  C1  H1S d 501      36.882   1.907  14.272  0.00  0.00     0.095 C 
ATOM      2  O18 H1S d 501      41.213   3.043  12.771  0.00  0.00    -0.244 OA
ATOM      3  O34 H1S d 501      37.670   2.099   9.273  0.00  0.00    -0.642 OA
ATOM      4  O35 H1S d 501      38.883   0.270   9.012  0.00  0.00    -0.642 OA
ATOM      5  S20 H1S d 501      32.116   3.405  13.399  0.00  0.00     0.156 S 
ATOM      6  C27 H1S d 501      38.513   1.269   9.670  0.00  0.00     0.233 C 
ATOM      7  O29 H1S d 501      32.429   4.366  14.506  0.00  0.00    -0.296 OA
ATOM      8  O9  H1S d 501      36.305   3.347  12.418  0.00  0.00    -0.391 OA
ATOM      9  S16 H1S d 501      37.623  -0.844  18.338  0.00  0.00     0.251 S 
ATOM     10  O11 H1S d 501      36.810  -0.397  17.250  0.00  0.00    -0.254 OA
ATOM     11  O32 H1S d 501      41.574   4.176  14.849  0.00  0.00    -0.572 OA
ATOM     12  O5  H1S d 501      35.071   1.338  15.811  0.00  0.00    -0.350 OA
ATOM     13  O23 H1S d 501      37.033  -2.091  18.926  0.00  0.00    -0.572 OA
ATOM     14  O25 H1S d 501      40.194  -0.299  13.793  0.00  0.00    -0.389 OA
ATOM     15  C6  H1S d 501      37.301   0.602  16.353  0.00  0.00     0.067 C 
ATOM     16  O21 H1S d 501      39.008  -1.132  17.841  0.00  0.00    -0.572 OA
ATOM     17  C17 H1S d 501      40.709   0.696  12.903  0.00  0.00     0.086 C 
ATOM     18  O28 H1S d 501      31.269   2.289  13.932  0.00  0.00    -0.296 OA
ATOM     19  N14 H1S d 501      33.499   2.794  12.786  0.00  0.00    -0.210 NA
ATOM     20  O31 H1S d 501      43.018   4.602  12.917  0.00  0.00    -0.572 OA
ATOM     21  C24 H1S d 501      40.044   0.543  11.533  0.00  0.00    -0.034 C 
ATOM     22  C10 H1S d 501      34.063   1.509  14.805  0.00  0.00     0.147 C 
ATOM     23  C2  H1S d 501      36.297   0.864  15.229  0.00  0.00     0.091 C 
ATOM     24  C12 H1S d 501      40.400   2.087  13.460  0.00  0.00     0.135 C 
ATOM     25  C7  H1S d 501      38.932   2.421  13.184  0.00  0.00     0.167 C 
ATOM     26  O15 H1S d 501      33.886   0.279  14.095  0.00  0.00    -0.369 OA
ATOM     27  S26 H1S d 501      42.222   3.560  13.644  0.00  0.00     0.252 S 
ATOM     28  O22 H1S d 501      37.681   0.227  19.389  0.00  0.00    -0.572 OA
ATOM     29  C8  H1S d 501      34.506   2.613  13.841  0.00  0.00     0.081 C 
ATOM     30  O30 H1S d 501      31.373   4.121  12.310  0.00  0.00    -0.296 OA
ATOM     31  O13 H1S d 501      38.791   2.592  11.763  0.00  0.00    -0.311 OA
ATOM     32  C4  H1S d 501      35.843   2.241  13.198  0.00  0.00     0.083 C 
ATOM     33  C19 H1S d 501      39.135   1.483  11.052  0.00  0.00     0.147 C 
ATOM     34  O33 H1S d 501      43.133   2.449  14.076  0.00  0.00    -0.572 OA
ATOM     35  O3  H1S d 501      38.068   1.352  13.646  0.00  0.00    -0.348 OA
ATOM     36  H   H1S d 501      37.139   2.798  14.807  0.00  0.00     0.091 H 
ATOM     37  H   H1S d 501      32.909   3.904  15.210  0.00  0.00     0.231 HD
ATOM     38  H   H1S d 501      37.153   3.120  12.005  0.00  0.00     0.210 HD
ATOM     39  H   H1S d 501      40.614  -0.204  14.662  0.00  0.00     0.210 HD
ATOM     40  H   H1S d 501      38.225   0.269  15.927  0.00  0.00     0.080 H 
ATOM     41  H   H1S d 501      37.449   1.510  16.899  0.00  0.00     0.080 H 
ATOM     42  H   H1S d 501      41.768   0.575  12.806  0.00  0.00     0.093 H 
ATOM     43  H   H1S d 501      31.749   1.826  14.637  0.00  0.00     0.231 HD
ATOM     44  H   H1S d 501      33.864   3.436  12.082  0.00  0.00     0.140 HD
ATOM     45  H   H1S d 501      40.275  -0.278  10.951  0.00  0.00     0.085 H 
ATOM     46  H   H1S d 501      33.133   1.784  15.258  0.00  0.00     0.131 H 
ATOM     47  H   H1S d 501      36.098  -0.032  14.679  0.00  0.00     0.090 H 
ATOM     48  H   H1S d 501      40.595   2.111  14.512  0.00  0.00     0.097 H 
ATOM     49  H   H1S d 501      38.650   3.313  13.705  0.00  0.00     0.134 H 
ATOM     50  H   H1S d 501      34.725   0.023  13.680  0.00  0.00     0.212 HD
ATOM     51  H   H1S d 501      34.614   3.524  14.392  0.00  0.00     0.076 H 
ATOM     52  H   H1S d 501      31.171   3.498  11.594  0.00  0.00     0.231 HD
ATOM     53  H   H1S d 501      35.705   1.381  12.578  0.00  0.00     0.089 H 
ENDROOT
TORSDOF 16
ENDMDL
MODEL 41
REMARK VINA RESULT:      -8.1      2.872      6.710
REMARK  0 active torsions:
REMARK  status: ('A' for Active; 'I' for Inactive)
REMARK       I    between atoms: C1_1  and  O3_35 
REMARK       I    between atoms: O18_2  and  C12_24 
REMARK       I    between atoms: O18_2  and  S26_27 
REMARK       I    between atoms: S20_5  and  N14_19 
REMARK       I    between atoms: S20_5  and  O28_18 
REMARK       I    between atoms: S20_5  and  O29_7 
REMARK       I    between atoms: S20_5  and  O30_30 
REMARK       I    between atoms: C27_6  and  C19_33 
REMARK       I    between atoms: O9_8  and  C4_32 
REMARK       I    between atoms: S16_9  and  O11_10 
REMARK       I    between atoms: O11_10  and  C6_15 
REMARK       I    between atoms: O25_14  and  C17_17 
REMARK       I    between atoms: C6_15  and  C2_23 
REMARK       I    between atoms: N14_19  and  C8_29 
REMARK       I    between atoms: C10_22  and  O15_26 
REMARK       I    between atoms: C7_25  and  O3_35 
ROOT
ATOM      1  C1  H1S d 501      38.499  -0.129  16.550  0.00  0.00     0.095 C 
ATOM      2  O18 H1S d 501      39.811   2.622  12.944  0.00  0.00    -0.244 OA
ATOM      3  O34 H1S d 501      42.127   3.301  17.400  0.00  0.00    -0.642 OA
ATOM      4  O35 H1S d 501      40.912   5.147  17.377  0.00  0.00    -0.642 OA
ATOM      5  S20 H1S d 501      40.749  -3.099  19.991  0.00  0.00     0.156 S 
ATOM      6  C27 H1S d 501      41.168   3.986  16.988  0.00  0.00     0.233 C 
ATOM      7  O29 H1S d 501      40.571  -4.133  18.920  0.00  0.00    -0.296 OA
ATOM      8  O9  H1S d 501      40.889  -0.096  16.913  0.00  0.00    -0.391 OA
ATOM      9  S16 H1S d 501      33.602  -0.721  15.987  0.00  0.00     0.251 S 
ATOM     10  O11 H1S d 501      34.792  -0.751  16.779  0.00  0.00    -0.254 OA
ATOM     11  O32 H1S d 501      39.046   0.921  11.442  0.00  0.00    -0.572 OA
ATOM     12  O5  H1S d 501      37.231  -1.792  17.815  0.00  0.00    -0.350 OA
ATOM     13  O23 H1S d 501      32.401  -0.736  16.885  0.00  0.00    -0.572 OA
ATOM     14  O25 H1S d 501      36.920   3.243  15.067  0.00  0.00    -0.389 OA
ATOM     15  C6  H1S d 501      36.059  -0.466  16.180  0.00  0.00     0.067 C 
ATOM     16  O21 H1S d 501      33.589   0.526  15.154  0.00  0.00    -0.572 OA
ATOM     17  C17 H1S d 501      38.176   3.540  14.448  0.00  0.00     0.086 C 
ATOM     18  O28 H1S d 501      39.709  -3.297  21.053  0.00  0.00    -0.296 OA
ATOM     19  N14 H1S d 501      40.599  -1.606  19.353  0.00  0.00    -0.210 NA
ATOM     20  O31 H1S d 501      40.545   2.698  10.671  0.00  0.00    -0.572 OA
ATOM     21  C24 H1S d 501      39.140   4.096  15.499  0.00  0.00    -0.034 C 
ATOM     22  C10 H1S d 501      38.198  -1.833  18.874  0.00  0.00     0.147 C 
ATOM     23  C2  H1S d 501      37.172  -0.481  17.229  0.00  0.00     0.091 C 
ATOM     24  C12 H1S d 501      38.764   2.260  13.850  0.00  0.00     0.135 C 
ATOM     25  C7  H1S d 501      39.376   1.419  14.974  0.00  0.00     0.167 C 
ATOM     26  O15 H1S d 501      37.891  -0.821  19.838  0.00  0.00    -0.369 OA
ATOM     27  S26 H1S d 501      39.411   2.369  11.593  0.00  0.00     0.252 S 
ATOM     28  O22 H1S d 501      33.571  -1.923  15.088  0.00  0.00    -0.572 OA
ATOM     29  C8  H1S d 501      39.590  -1.591  18.284  0.00  0.00     0.081 C 
ATOM     30  O30 H1S d 501      42.115  -3.236  20.597  0.00  0.00    -0.296 OA
ATOM     31  O13 H1S d 501      40.532   2.125  15.457  0.00  0.00    -0.311 OA
ATOM     32  C4  H1S d 501      39.630  -0.235  17.577  0.00  0.00     0.083 C 
ATOM     33  C19 H1S d 501      40.243   3.365  15.938  0.00  0.00     0.147 C 
ATOM     34  O33 H1S d 501      38.226   3.224  11.250  0.00  0.00    -0.572 OA
ATOM     35  O3  H1S d 501      38.421   1.230  16.050  0.00  0.00    -0.348 OA
ATOM     36  H   H1S d 501      38.691  -0.802  15.740  0.00  0.00     0.091 H 
ATOM     37  H   H1S d 501      39.688  -4.045  18.529  0.00  0.00     0.231 HD
ATOM     38  H   H1S d 501      40.924   0.762  16.461  0.00  0.00     0.210 HD
ATOM     39  H   H1S d 501      36.308   2.890  14.402  0.00  0.00     0.210 HD
ATOM     40  H   H1S d 501      36.021   0.501  15.722  0.00  0.00     0.080 H 
ATOM     41  H   H1S d 501      36.268  -1.216  15.447  0.00  0.00     0.080 H 
ATOM     42  H   H1S d 501      38.030   4.263  13.673  0.00  0.00     0.093 H 
ATOM     43  H   H1S d 501      38.827  -3.208  20.662  0.00  0.00     0.231 HD
ATOM     44  H   H1S d 501      41.498  -1.315  18.968  0.00  0.00     0.140 HD
ATOM     45  H   H1S d 501      38.968   5.034  15.892  0.00  0.00     0.085 H 
ATOM     46  H   H1S d 501      38.177  -2.788  19.356  0.00  0.00     0.131 H 
ATOM     47  H   H1S d 501      36.980   0.236  17.998  0.00  0.00     0.090 H 
ATOM     48  H   H1S d 501      38.000   1.707  13.347  0.00  0.00     0.097 H 
ATOM     49  H   H1S d 501      39.646   0.450  14.608  0.00  0.00     0.134 H 
ATOM     50  H   H1S d 501      37.908   0.050  19.409  0.00  0.00     0.212 HD
ATOM     51  H   H1S d 501      39.803  -2.368  17.581  0.00  0.00     0.076 H 
ATOM     52  H   H1S d 501      42.230  -2.567  21.289  0.00  0.00     0.231 HD
ATOM     53  H   H1S d 501      39.506   0.541  18.302  0.00  0.00     0.089 H 
ENDROOT
TORSDOF 16
ENDMDL
MODEL 42
REMARK VINA RESULT:      -8.0      3.293      4.788
REMARK  0 active torsions:
REMARK  status: ('A' for Active; 'I' for Inactive)
REMARK       I    between atoms: C1_1  and  O3_35 
REMARK       I    between atoms: O18_2  and  C12_24 
REMARK       I    between atoms: O18_2  and  S26_27 
REMARK       I    between atoms: S20_5  and  N14_19 
REMARK       I    between atoms: S20_5  and  O28_18 
REMARK       I    between atoms: S20_5  and  O29_7 
REMARK       I    between atoms: S20_5  and  O30_30 
REMARK       I    between atoms: C27_6  and  C19_33 
REMARK       I    between atoms: O9_8  and  C4_32 
REMARK       I    between atoms: S16_9  and  O11_10 
REMARK       I    between atoms: O11_10  and  C6_15 
REMARK       I    between atoms: O25_14  and  C17_17 
REMARK       I    between atoms: C6_15  and  C2_23 
REMARK       I    between atoms: N14_19  and  C8_29 
REMARK       I    between atoms: C10_22  and  O15_26 
REMARK       I    between atoms: C7_25  and  O3_35 
ROOT
ATOM      1  C1  H1S d 501      38.297   2.774  15.782  0.00  0.00     0.095 C 
ATOM      2  O18 H1S d 501      36.094   4.711  12.081  0.00  0.00    -0.244 OA
ATOM      3  O34 H1S d 501      37.746  -0.058  11.619  0.00  0.00    -0.642 OA
ATOM      4  O35 H1S d 501      39.216   0.928  10.295  0.00  0.00    -0.642 OA
ATOM      5  S20 H1S d 501      37.969  -1.489  18.509  0.00  0.00     0.156 S 
ATOM      6  C27 H1S d 501      38.360   0.948  11.209  0.00  0.00     0.233 C 
ATOM      7  O29 H1S d 501      37.000  -0.667  19.305  0.00  0.00    -0.296 OA
ATOM      8  O9  H1S d 501      36.976   0.882  15.060  0.00  0.00    -0.391 OA
ATOM      9  S16 H1S d 501      40.927   6.479  17.783  0.00  0.00     0.251 S 
ATOM     10  O11 H1S d 501      40.653   5.089  17.591  0.00  0.00    -0.254 OA
ATOM     11  O32 H1S d 501      34.981   6.196  13.594  0.00  0.00    -0.572 OA
ATOM     12  O5  H1S d 501      39.342   2.593  17.984  0.00  0.00    -0.350 OA
ATOM     13  O23 H1S d 501      42.299   6.644  18.364  0.00  0.00    -0.572 OA
ATOM     14  O25 H1S d 501      39.617   5.186  12.865  0.00  0.00    -0.389 OA
ATOM     15  C6  H1S d 501      39.534   4.683  16.799  0.00  0.00     0.067 C 
ATOM     16  O21 H1S d 501      40.854   7.189  16.463  0.00  0.00    -0.572 OA
ATOM     17  C17 H1S d 501      38.496   4.802  12.062  0.00  0.00     0.086 C 
ATOM     18  O28 H1S d 501      39.276  -1.567  19.242  0.00  0.00    -0.296 OA
ATOM     19  N14 H1S d 501      38.205  -0.809  17.046  0.00  0.00    -0.210 NA
ATOM     20  O31 H1S d 501      34.150   5.869  11.313  0.00  0.00    -0.572 OA
ATOM     21  C24 H1S d 501      38.758   3.423  11.453  0.00  0.00    -0.034 C 
ATOM     22  C10 H1S d 501      39.385   1.159  17.927  0.00  0.00     0.147 C 
ATOM     23  C2  H1S d 501      39.484   3.159  16.670  0.00  0.00     0.091 C 
ATOM     24  C12 H1S d 501      37.242   4.738  12.936  0.00  0.00     0.135 C 
ATOM     25  C7  H1S d 501      37.264   3.440  13.747  0.00  0.00     0.167 C 
ATOM     26  O15 H1S d 501      40.595   0.745  17.286  0.00  0.00    -0.369 OA
ATOM     27  S26 H1S d 501      35.378   5.947  12.168  0.00  0.00     0.252 S 
ATOM     28  O22 H1S d 501      39.912   7.062  18.722  0.00  0.00    -0.572 OA
ATOM     29  C8  H1S d 501      38.173   0.657  17.137  0.00  0.00     0.081 C 
ATOM     30  O30 H1S d 501      37.417  -2.872  18.322  0.00  0.00    -0.296 OA
ATOM     31  O13 H1S d 501      37.083   2.354  12.822  0.00  0.00    -0.311 OA
ATOM     32  C4  H1S d 501      38.188   1.247  15.726  0.00  0.00     0.083 C 
ATOM     33  C19 H1S d 501      38.050   2.295  11.865  0.00  0.00     0.147 C 
ATOM     34  O33 H1S d 501      36.250   7.069  11.688  0.00  0.00    -0.572 OA
ATOM     35  O3  H1S d 501      38.527   3.295  14.447  0.00  0.00    -0.348 OA
ATOM     36  H   H1S d 501      37.390   3.181  16.178  0.00  0.00     0.091 H 
ATOM     37  H   H1S d 501      37.357   0.226  19.426  0.00  0.00     0.231 HD
ATOM     38  H   H1S d 501      36.976   1.252  14.162  0.00  0.00     0.210 HD
ATOM     39  H   H1S d 501      39.453   6.060  13.252  0.00  0.00     0.210 HD
ATOM     40  H   H1S d 501      39.618   5.114  15.823  0.00  0.00     0.080 H 
ATOM     41  H   H1S d 501      38.637   5.016  17.277  0.00  0.00     0.080 H 
ATOM     42  H   H1S d 501      38.353   5.520  11.282  0.00  0.00     0.093 H 
ATOM     43  H   H1S d 501      39.632  -0.674  19.363  0.00  0.00     0.231 HD
ATOM     44  H   H1S d 501      37.470  -1.120  16.410  0.00  0.00     0.140 HD
ATOM     45  H   H1S d 501      39.478   3.325  10.720  0.00  0.00     0.085 H 
ATOM     46  H   H1S d 501      39.359   0.751  18.916  0.00  0.00     0.131 H 
ATOM     47  H   H1S d 501      40.381   2.785  16.225  0.00  0.00     0.090 H 
ATOM     48  H   H1S d 501      37.208   5.584  13.590  0.00  0.00     0.097 H 
ATOM     49  H   H1S d 501      36.486   3.448  14.482  0.00  0.00     0.134 H 
ATOM     50  H   H1S d 501      40.626   1.112  16.388  0.00  0.00     0.212 HD
ATOM     51  H   H1S d 501      37.283   0.965  17.645  0.00  0.00     0.076 H 
ATOM     52  H   H1S d 501      38.045  -3.403  17.807  0.00  0.00     0.231 HD
ATOM     53  H   H1S d 501      39.034   0.864  15.195  0.00  0.00     0.089 H 
ENDROOT
TORSDOF 16
ENDMDL
MODEL 43
REMARK VINA RESULT:      -8.0      3.329      6.723
REMARK  0 active torsions:
REMARK  status: ('A' for Active; 'I' for Inactive)
REMARK       I    between atoms: C1_1  and  O3_35 
REMARK       I    between atoms: O18_2  and  C12_24 
REMARK       I    between atoms: O18_2  and  S26_27 
REMARK       I    between atoms: S20_5  and  N14_19 
REMARK       I    between atoms: S20_5  and  O28_18 
REMARK       I    between atoms: S20_5  and  O29_7 
REMARK       I    between atoms: S20_5  and  O30_30 
REMARK       I    between atoms: C27_6  and  C19_33 
REMARK       I    between atoms: O9_8  and  C4_32 
REMARK       I    between atoms: S16_9  and  O11_10 
REMARK       I    between atoms: O11_10  and  C6_15 
REMARK       I    between atoms: O25_14  and  C17_17 
REMARK       I    between atoms: C6_15  and  C2_23 
REMARK       I    between atoms: N14_19  and  C8_29 
REMARK       I    between atoms: C10_22  and  O15_26 
REMARK       I    between atoms: C7_25  and  O3_35 
ROOT
ATOM      1  C1  H1S d 501      37.574   2.332  13.179  0.00  0.00     0.095 C 
ATOM      2  O18 H1S d 501      36.229   6.847  12.860  0.00  0.00    -0.244 OA
ATOM      3  O34 H1S d 501      40.823   5.878  14.766  0.00  0.00    -0.642 OA
ATOM      4  O35 H1S d 501      39.819   6.501  16.633  0.00  0.00    -0.642 OA
ATOM      5  S20 H1S d 501      41.575  -0.475  11.826  0.00  0.00     0.156 S 
ATOM      6  C27 H1S d 501      39.802   6.090  15.451  0.00  0.00     0.233 C 
ATOM      7  O29 H1S d 501      40.788  -0.626  10.559  0.00  0.00    -0.296 OA
ATOM      8  O9  H1S d 501      39.651   3.324  12.439  0.00  0.00    -0.391 OA
ATOM      9  S16 H1S d 501      33.446  -0.145  14.391  0.00  0.00     0.251 S 
ATOM     10  O11 H1S d 501      34.869  -0.033  14.306  0.00  0.00    -0.254 OA
ATOM     11  O32 H1S d 501      34.733   6.218  11.100  0.00  0.00    -0.572 OA
ATOM     12  O5  H1S d 501      37.440  -0.106  13.086  0.00  0.00    -0.350 OA
ATOM     13  O23 H1S d 501      33.086  -1.262  15.326  0.00  0.00    -0.572 OA
ATOM     14  O25 H1S d 501      35.321   4.612  15.585  0.00  0.00    -0.389 OA
ATOM     15  C6  H1S d 501      35.461   1.122  13.705  0.00  0.00     0.067 C 
ATOM     16  O21 H1S d 501      32.874   1.142  14.906  0.00  0.00    -0.572 OA
ATOM     17  C17 H1S d 501      35.892   5.780  14.987  0.00  0.00     0.086 C 
ATOM     18  O28 H1S d 501      41.449  -1.726  12.644  0.00  0.00    -0.296 OA
ATOM     19  N14 H1S d 501      41.014   0.794  12.683  0.00  0.00    -0.210 NA
ATOM     20  O31 H1S d 501      35.355   8.562  11.443  0.00  0.00    -0.572 OA
ATOM     21  C24 H1S d 501      37.287   6.016  15.569  0.00  0.00    -0.034 C 
ATOM     22  C10 H1S d 501      38.860  -0.263  13.220  0.00  0.00     0.147 C 
ATOM     23  C2  H1S d 501      36.987   1.059  13.795  0.00  0.00     0.091 C 
ATOM     24  C12 H1S d 501      36.003   5.575  13.474  0.00  0.00     0.135 C 
ATOM     25  C7  H1S d 501      37.211   4.682  13.180  0.00  0.00     0.167 C 
ATOM     26  O15 H1S d 501      39.205  -0.305  14.608  0.00  0.00    -0.369 OA
ATOM     27  S26 H1S d 501      35.071   7.259  12.127  0.00  0.00     0.252 S 
ATOM     28  O22 H1S d 501      32.886  -0.432  13.029  0.00  0.00    -0.572 OA
ATOM     29  C8  H1S d 501      39.556   0.919  12.541  0.00  0.00     0.081 C 
ATOM     30  O30 H1S d 501      43.019  -0.239  11.492  0.00  0.00    -0.296 OA
ATOM     31  O13 H1S d 501      38.391   5.436  13.503  0.00  0.00    -0.311 OA
ATOM     32  C4  H1S d 501      39.102   2.232  13.182  0.00  0.00     0.083 C 
ATOM     33  C19 H1S d 501      38.439   5.830  14.806  0.00  0.00     0.147 C 
ATOM     34  O33 H1S d 501      33.914   7.431  13.066  0.00  0.00    -0.572 OA
ATOM     35  O3  H1S d 501      37.159   3.470  13.977  0.00  0.00    -0.348 OA
ATOM     36  H   H1S d 501      37.228   2.451  12.173  0.00  0.00     0.091 H 
ATOM     37  H   H1S d 501      39.855  -0.779  10.775  0.00  0.00     0.231 HD
ATOM     38  H   H1S d 501      39.369   4.162  12.839  0.00  0.00     0.210 HD
ATOM     39  H   H1S d 501      34.436   4.460  15.218  0.00  0.00     0.210 HD
ATOM     40  H   H1S d 501      35.116   1.998  14.213  0.00  0.00     0.080 H 
ATOM     41  H   H1S d 501      35.179   1.154  12.674  0.00  0.00     0.080 H 
ATOM     42  H   H1S d 501      35.268   6.626  15.189  0.00  0.00     0.093 H 
ATOM     43  H   H1S d 501      40.516  -1.879  12.859  0.00  0.00     0.231 HD
ATOM     44  H   H1S d 501      41.457   1.648  12.344  0.00  0.00     0.140 HD
ATOM     45  H   H1S d 501      37.378   6.321  16.551  0.00  0.00     0.085 H 
ATOM     46  H   H1S d 501      39.175  -1.175  12.756  0.00  0.00     0.131 H 
ATOM     47  H   H1S d 501      37.306   0.993  14.813  0.00  0.00     0.090 H 
ATOM     48  H   H1S d 501      35.108   5.125  13.100  0.00  0.00     0.097 H 
ATOM     49  H   H1S d 501      37.215   4.391  12.150  0.00  0.00     0.134 H 
ATOM     50  H   H1S d 501      38.923   0.519  15.035  0.00  0.00     0.212 HD
ATOM     51  H   H1S d 501      39.297   0.919  11.503  0.00  0.00     0.076 H 
ATOM     52  H   H1S d 501      43.528  -0.142  12.312  0.00  0.00     0.231 HD
ATOM     53  H   H1S d 501      39.444   2.263  14.195  0.00  0.00     0.089 H 
ENDROOT
TORSDOF 16
ENDMDL
MODEL 44
REMARK VINA RESULT:      -8.0      2.964      6.154
REMARK  0 active torsions:
REMARK  status: ('A' for Active; 'I' for Inactive)
REMARK       I    between atoms: C1_1  and  O3_35 
REMARK       I    between atoms: O18_2  and  C12_24 
REMARK       I    between atoms: O18_2  and  S26_27 
REMARK       I    between atoms: S20_5  and  N14_19 
REMARK       I    between atoms: S20_5  and  O28_18 
REMARK       I    between atoms: S20_5  and  O29_7 
REMARK       I    between atoms: S20_5  and  O30_30 
REMARK       I    between atoms: C27_6  and  C19_33 
REMARK       I    between atoms: O9_8  and  C4_32 
REMARK       I    between atoms: S16_9  and  O11_10 
REMARK       I    between atoms: O11_10  and  C6_15 
REMARK       I    between atoms: O25_14  and  C17_17 
REMARK       I    between atoms: C6_15  and  C2_23 
REMARK       I    between atoms: N14_19  and  C8_29 
REMARK       I    between atoms: C10_22  and  O15_26 
REMARK       I    between atoms: C7_25  and  O3_35 
ROOT
ATOM      1  C1  H1S d 501      38.889   0.192  14.778  0.00  0.00     0.095 C 
ATOM      2  O18 H1S d 501      34.292  -0.751  14.248  0.00  0.00    -0.244 OA
ATOM      3  O34 H1S d 501      36.610   1.860  10.574  0.00  0.00    -0.642 OA
ATOM      4  O35 H1S d 501      35.399   3.500  11.428  0.00  0.00    -0.642 OA
ATOM      5  S20 H1S d 501      43.140  -0.311  12.060  0.00  0.00     0.156 S 
ATOM      6  C27 H1S d 501      35.939   2.373  11.493  0.00  0.00     0.233 C 
ATOM      7  O29 H1S d 501      43.169  -1.654  12.726  0.00  0.00    -0.296 OA
ATOM      8  O9  H1S d 501      38.854  -0.346  12.422  0.00  0.00    -0.391 OA
ATOM      9  S16 H1S d 501      39.461   1.056  19.634  0.00  0.00     0.251 S 
ATOM     10  O11 H1S d 501      39.896   1.159  18.275  0.00  0.00    -0.254 OA
ATOM     11  O32 H1S d 501      34.568  -2.631  15.704  0.00  0.00    -0.572 OA
ATOM     12  O5  H1S d 501      41.090   0.320  15.831  0.00  0.00    -0.350 OA
ATOM     13  O23 H1S d 501      40.218   2.037  20.479  0.00  0.00    -0.572 OA
ATOM     14  O25 H1S d 501      35.617   2.028  16.190  0.00  0.00    -0.389 OA
ATOM     15  C6  H1S d 501      39.142   0.536  17.233  0.00  0.00     0.067 C 
ATOM     16  O21 H1S d 501      37.993   1.358  19.711  0.00  0.00    -0.572 OA
ATOM     17  C17 H1S d 501      34.843   1.403  15.162  0.00  0.00     0.086 C 
ATOM     18  O28 H1S d 501      44.125   0.599  12.732  0.00  0.00    -0.296 OA
ATOM     19  N14 H1S d 501      41.645   0.331  12.166  0.00  0.00    -0.210 NA
ATOM     20  O31 H1S d 501      32.597  -2.436  14.261  0.00  0.00    -0.572 OA
ATOM     21  C24 H1S d 501      35.059   2.147  13.842  0.00  0.00    -0.034 C 
ATOM     22  C10 H1S d 501      41.741   0.665  14.599  0.00  0.00     0.147 C 
ATOM     23  C2  H1S d 501      39.752   0.842  15.864  0.00  0.00     0.091 C 
ATOM     24  C12 H1S d 501      35.288  -0.052  15.001  0.00  0.00     0.135 C 
ATOM     25  C7  H1S d 501      36.598  -0.087  14.208  0.00  0.00     0.167 C 
ATOM     26  O15 H1S d 501      41.708   2.084  14.425  0.00  0.00    -0.369 OA
ATOM     27  S26 H1S d 501      33.591  -1.674  15.086  0.00  0.00     0.252 S 
ATOM     28  O22 H1S d 501      39.712  -0.336  20.134  0.00  0.00    -0.572 OA
ATOM     29  C8  H1S d 501      41.011  -0.024  13.443  0.00  0.00     0.081 C 
ATOM     30  O30 H1S d 501      43.506  -0.463  10.613  0.00  0.00    -0.296 OA
ATOM     31  O13 H1S d 501      36.296   0.322  12.863  0.00  0.00    -0.311 OA
ATOM     32  C4  H1S d 501      39.546   0.417  13.414  0.00  0.00     0.083 C 
ATOM     33  C19 H1S d 501      35.766   1.573  12.787  0.00  0.00     0.147 C 
ATOM     34  O33 H1S d 501      32.870  -0.926  16.168  0.00  0.00    -0.572 OA
ATOM     35  O3  H1S d 501      37.576   0.810  14.794  0.00  0.00    -0.348 OA
ATOM     36  H   H1S d 501      38.796  -0.859  14.959  0.00  0.00     0.091 H 
ATOM     37  H   H1S d 501      42.932  -1.556  13.661  0.00  0.00     0.231 HD
ATOM     38  H   H1S d 501      37.922  -0.073  12.395  0.00  0.00     0.210 HD
ATOM     39  H   H1S d 501      35.481   1.557  17.028  0.00  0.00     0.210 HD
ATOM     40  H   H1S d 501      38.137   0.903  17.259  0.00  0.00     0.080 H 
ATOM     41  H   H1S d 501      39.156  -0.523  17.385  0.00  0.00     0.080 H 
ATOM     42  H   H1S d 501      33.806   1.433  15.428  0.00  0.00     0.093 H 
ATOM     43  H   H1S d 501      43.889   0.697  13.667  0.00  0.00     0.231 HD
ATOM     44  H   H1S d 501      41.074  -0.025  11.399  0.00  0.00     0.140 HD
ATOM     45  H   H1S d 501      34.672   3.098  13.731  0.00  0.00     0.085 H 
ATOM     46  H   H1S d 501      42.761   0.341  14.619  0.00  0.00     0.131 H 
ATOM     47  H   H1S d 501      39.785   1.897  15.689  0.00  0.00     0.090 H 
ATOM     48  H   H1S d 501      35.424  -0.501  15.962  0.00  0.00     0.097 H 
ATOM     49  H   H1S d 501      37.014  -1.073  14.222  0.00  0.00     0.134 H 
ATOM     50  H   H1S d 501      40.786   2.386  14.406  0.00  0.00     0.212 HD
ATOM     51  H   H1S d 501      41.064  -1.082  13.587  0.00  0.00     0.076 H 
ATOM     52  H   H1S d 501      43.488   0.406  10.182  0.00  0.00     0.231 HD
ATOM     53  H   H1S d 501      39.499   1.459  13.180  0.00  0.00     0.089 H 
ENDROOT
TORSDOF 16
ENDMDL
MODEL 45
REMARK VINA RESULT:      -8.0      2.858      7.335
REMARK  0 active torsions:
REMARK  status: ('A' for Active; 'I' for Inactive)
REMARK       I    between atoms: C1_1  and  O3_35 
REMARK       I    between atoms: O18_2  and  C12_24 
REMARK       I    between atoms: O18_2  and  S26_27 
REMARK       I    between atoms: S20_5  and  N14_19 
REMARK       I    between atoms: S20_5  and  O28_18 
REMARK       I    between atoms: S20_5  and  O29_7 
REMARK       I    between atoms: S20_5  and  O30_30 
REMARK       I    between atoms: C27_6  and  C19_33 
REMARK       I    between atoms: O9_8  and  C4_32 
REMARK       I    between atoms: S16_9  and  O11_10 
REMARK       I    between atoms: O11_10  and  C6_15 
REMARK       I    between atoms: O25_14  and  C17_17 
REMARK       I    between atoms: C6_15  and  C2_23 
REMARK       I    between atoms: N14_19  and  C8_29 
REMARK       I    between atoms: C10_22  and  O15_26 
REMARK       I    between atoms: C7_25  and  O3_35 
ROOT
ATOM      1  C1  H1S d 501      36.206   3.194  13.236  0.00  0.00     0.095 C 
ATOM      2  O18 H1S d 501      40.884   3.806  13.442  0.00  0.00    -0.244 OA
ATOM      3  O34 H1S d 501      38.739   0.793  16.907  0.00  0.00    -0.642 OA
ATOM      4  O35 H1S d 501      39.219   2.507  18.216  0.00  0.00    -0.642 OA
ATOM      5  S20 H1S d 501      32.949  -0.693  13.187  0.00  0.00     0.156 S 
ATOM      6  C27 H1S d 501      39.025   1.994  17.091  0.00  0.00     0.233 C 
ATOM      7  O29 H1S d 501      33.169  -0.597  11.706  0.00  0.00    -0.296 OA
ATOM      8  O9  H1S d 501      36.889   0.936  13.765  0.00  0.00    -0.391 OA
ATOM      9  S16 H1S d 501      34.404   7.604  11.841  0.00  0.00     0.251 S 
ATOM     10  O11 H1S d 501      34.252   6.311  12.431  0.00  0.00    -0.254 OA
ATOM     11  O32 H1S d 501      40.861   4.328  11.106  0.00  0.00    -0.572 OA
ATOM     12  O5  H1S d 501      33.891   3.488  12.511  0.00  0.00    -0.350 OA
ATOM     13  O23 H1S d 501      33.237   8.467  12.218  0.00  0.00    -0.572 OA
ATOM     14  O25 H1S d 501      38.438   6.106  14.849  0.00  0.00    -0.389 OA
ATOM     15  C6  H1S d 501      35.355   5.401  12.455  0.00  0.00     0.067 C 
ATOM     16  O21 H1S d 501      35.672   8.234  12.338  0.00  0.00    -0.572 OA
ATOM     17  C17 H1S d 501      39.558   5.215  14.869  0.00  0.00     0.086 C 
ATOM     18  O28 H1S d 501      31.626  -0.078  13.534  0.00  0.00    -0.296 OA
ATOM     19  N14 H1S d 501      34.140   0.092  13.977  0.00  0.00    -0.210 NA
ATOM     20  O31 H1S d 501      42.950   3.736  12.242  0.00  0.00    -0.572 OA
ATOM     21  C24 H1S d 501      39.419   4.253  16.051  0.00  0.00    -0.034 C 
ATOM     22  C10 H1S d 501      33.442   2.326  13.224  0.00  0.00     0.147 C 
ATOM     23  C2  H1S d 501      34.985   4.117  13.199  0.00  0.00     0.091 C 
ATOM     24  C12 H1S d 501      39.594   4.413  13.566  0.00  0.00     0.135 C 
ATOM     25  C7  H1S d 501      38.547   3.298  13.638  0.00  0.00     0.167 C 
ATOM     26  O15 H1S d 501      33.101   2.693  14.564  0.00  0.00    -0.369 OA
ATOM     27  S26 H1S d 501      41.629   4.429  12.392  0.00  0.00     0.252 S 
ATOM     28  O22 H1S d 501      34.464   7.468  10.348  0.00  0.00    -0.572 OA
ATOM     29  C8  H1S d 501      34.566   1.286  13.234  0.00  0.00     0.081 C 
ATOM     30  O30 H1S d 501      32.955  -2.135  13.601  0.00  0.00    -0.296 OA
ATOM     31  O13 H1S d 501      38.994   2.353  14.625  0.00  0.00    -0.311 OA
ATOM     32  C4  H1S d 501      35.814   1.870  13.898  0.00  0.00     0.083 C 
ATOM     33  C19 H1S d 501      39.145   2.899  15.863  0.00  0.00     0.147 C 
ATOM     34  O33 H1S d 501      41.860   5.874  12.725  0.00  0.00    -0.572 OA
ATOM     35  O3  H1S d 501      37.252   3.835  14.012  0.00  0.00    -0.348 OA
ATOM     36  H   H1S d 501      36.557   3.004  12.243  0.00  0.00     0.091 H 
ATOM     37  H   H1S d 501      33.165   0.335  11.438  0.00  0.00     0.231 HD
ATOM     38  H   H1S d 501      37.686   1.298  14.184  0.00  0.00     0.210 HD
ATOM     39  H   H1S d 501      38.525   6.717  14.100  0.00  0.00     0.210 HD
ATOM     40  H   H1S d 501      36.183   5.866  12.948  0.00  0.00     0.080 H 
ATOM     41  H   H1S d 501      35.615   5.151  11.447  0.00  0.00     0.080 H 
ATOM     42  H   H1S d 501      40.462   5.780  14.967  0.00  0.00     0.093 H 
ATOM     43  H   H1S d 501      31.622   0.854  13.266  0.00  0.00     0.231 HD
ATOM     44  H   H1S d 501      34.937  -0.535  14.088  0.00  0.00     0.140 HD
ATOM     45  H   H1S d 501      39.530   4.616  17.011  0.00  0.00     0.085 H 
ATOM     46  H   H1S d 501      32.578   1.912  12.747  0.00  0.00     0.131 H 
ATOM     47  H   H1S d 501      34.687   4.332  14.204  0.00  0.00     0.090 H 
ATOM     48  H   H1S d 501      39.395   5.056  12.735  0.00  0.00     0.097 H 
ATOM     49  H   H1S d 501      38.439   2.828  12.682  0.00  0.00     0.134 H 
ATOM     50  H   H1S d 501      33.880   3.069  15.004  0.00  0.00     0.212 HD
ATOM     51  H   H1S d 501      34.790   1.016  12.223  0.00  0.00     0.076 H 
ATOM     52  H   H1S d 501      32.812  -2.196  14.558  0.00  0.00     0.231 HD
ATOM     53  H   H1S d 501      35.607   2.053  14.931  0.00  0.00     0.089 H 
ENDROOT
TORSDOF 16
ENDMDL
MODEL 46
REMARK VINA RESULT:      -8.0      3.022      7.585
REMARK  0 active torsions:
REMARK  status: ('A' for Active; 'I' for Inactive)
REMARK       I    between atoms: C1_1  and  O3_35 
REMARK       I    between atoms: O18_2  and  C12_24 
REMARK       I    between atoms: O18_2  and  S26_27 
REMARK       I    between atoms: S20_5  and  N14_19 
REMARK       I    between atoms: S20_5  and  O28_18 
REMARK       I    between atoms: S20_5  and  O29_7 
REMARK       I    between atoms: S20_5  and  O30_30 
REMARK       I    between atoms: C27_6  and  C19_33 
REMARK       I    between atoms: O9_8  and  C4_32 
REMARK       I    between atoms: S16_9  and  O11_10 
REMARK       I    between atoms: O11_10  and  C6_15 
REMARK       I    between atoms: O25_14  and  C17_17 
REMARK       I    between atoms: C6_15  and  C2_23 
REMARK       I    between atoms: N14_19  and  C8_29 
REMARK       I    between atoms: C10_22  and  O15_26 
REMARK       I    between atoms: C7_25  and  O3_35 
ROOT
ATOM      1  C1  H1S d 501      38.337   1.550  15.056  0.00  0.00     0.095 C 
ATOM      2  O18 H1S d 501      41.741  -1.054  17.037  0.00  0.00    -0.244 OA
ATOM      3  O34 H1S d 501      36.939  -2.507  17.745  0.00  0.00    -0.642 OA
ATOM      4  O35 H1S d 501      37.362  -1.771  19.785  0.00  0.00    -0.642 OA
ATOM      5  S20 H1S d 501      34.280   0.775  12.113  0.00  0.00     0.156 S 
ATOM      6  C27 H1S d 501      37.602  -1.832  18.558  0.00  0.00     0.233 C 
ATOM      7  O29 H1S d 501      35.288   0.961  11.018  0.00  0.00    -0.296 OA
ATOM      8  O9  H1S d 501      37.451  -0.661  14.640  0.00  0.00    -0.391 OA
ATOM      9  S16 H1S d 501      39.940   6.235  15.418  0.00  0.00     0.251 S 
ATOM     10  O11 H1S d 501      38.901   5.269  15.238  0.00  0.00    -0.254 OA
ATOM     11  O32 H1S d 501      43.253  -0.246  15.365  0.00  0.00    -0.572 OA
ATOM     12  O5  H1S d 501      37.275   3.391  13.848  0.00  0.00    -0.350 OA
ATOM     13  O23 H1S d 501      39.335   7.565  15.756  0.00  0.00    -0.572 OA
ATOM     14  O25 H1S d 501      40.369   1.992  18.482  0.00  0.00    -0.389 OA
ATOM     15  C6  H1S d 501      39.220   3.876  15.186  0.00  0.00     0.067 C 
ATOM     16  O21 H1S d 501      40.840   5.797  16.536  0.00  0.00    -0.572 OA
ATOM     17  C17 H1S d 501      40.710   0.603  18.440  0.00  0.00     0.086 C 
ATOM     18  O28 H1S d 501      33.466   2.027  12.258  0.00  0.00    -0.296 OA
ATOM     19  N14 H1S d 501      35.039   0.452  13.519  0.00  0.00    -0.210 NA
ATOM     20  O31 H1S d 501      43.792  -2.232  16.694  0.00  0.00    -0.572 OA
ATOM     21  C24 H1S d 501      39.512  -0.227  18.906  0.00  0.00    -0.034 C 
ATOM     22  C10 H1S d 501      36.026   2.693  13.735  0.00  0.00     0.147 C 
ATOM     23  C2  H1S d 501      37.950   3.032  15.065  0.00  0.00     0.091 C 
ATOM     24  C12 H1S d 501      41.070   0.210  17.006  0.00  0.00     0.135 C 
ATOM     25  C7  H1S d 501      39.781   0.045  16.196  0.00  0.00     0.167 C 
ATOM     26  O15 H1S d 501      35.229   2.954  14.894  0.00  0.00    -0.369 OA
ATOM     27  S26 H1S d 501      43.126  -0.889  16.715  0.00  0.00     0.252 S 
ATOM     28  O22 H1S d 501      40.736   6.353  14.152  0.00  0.00    -0.572 OA
ATOM     29  C8  H1S d 501      36.304   1.193  13.615  0.00  0.00     0.081 C 
ATOM     30  O30 H1S d 501      33.376  -0.372  11.770  0.00  0.00    -0.296 OA
ATOM     31  O13 H1S d 501      39.102  -1.117  16.701  0.00  0.00    -0.311 OA
ATOM     32  C4  H1S d 501      37.078   0.705  14.842  0.00  0.00     0.083 C 
ATOM     33  C19 H1S d 501      38.786  -1.024  18.022  0.00  0.00     0.147 C 
ATOM     34  O33 H1S d 501      43.785  -0.023  17.748  0.00  0.00    -0.572 OA
ATOM     35  O3  H1S d 501      38.936   1.216  16.334  0.00  0.00    -0.348 OA
ATOM     36  H   H1S d 501      39.034   1.355  14.267  0.00  0.00     0.091 H 
ATOM     37  H   H1S d 501      35.873   1.702  11.239  0.00  0.00     0.231 HD
ATOM     38  H   H1S d 501      37.943  -0.980  15.414  0.00  0.00     0.210 HD
ATOM     39  H   H1S d 501      41.127   2.520  18.187  0.00  0.00     0.210 HD
ATOM     40  H   H1S d 501      39.741   3.601  16.079  0.00  0.00     0.080 H 
ATOM     41  H   H1S d 501      39.833   3.697  14.327  0.00  0.00     0.080 H 
ATOM     42  H   H1S d 501      41.547   0.421  19.083  0.00  0.00     0.093 H 
ATOM     43  H   H1S d 501      34.051   2.768  12.479  0.00  0.00     0.231 HD
ATOM     44  H   H1S d 501      35.232  -0.548  13.572  0.00  0.00     0.140 HD
ATOM     45  H   H1S d 501      39.234  -0.196  19.900  0.00  0.00     0.085 H 
ATOM     46  H   H1S d 501      35.495   3.027  12.867  0.00  0.00     0.131 H 
ATOM     47  H   H1S d 501      37.295   3.209  15.892  0.00  0.00     0.090 H 
ATOM     48  H   H1S d 501      41.692   0.961  16.566  0.00  0.00     0.097 H 
ATOM     49  H   H1S d 501      40.009  -0.068  15.156  0.00  0.00     0.134 H 
ATOM     50  H   H1S d 501      35.703   2.654  15.686  0.00  0.00     0.212 HD
ATOM     51  H   H1S d 501      36.886   1.022  12.734  0.00  0.00     0.076 H 
ATOM     52  H   H1S d 501      32.724  -0.492  12.478  0.00  0.00     0.231 HD
ATOM     53  H   H1S d 501      36.455   0.796  15.706  0.00  0.00     0.089 H 
ENDROOT
TORSDOF 16
ENDMDL
MODEL 47
REMARK VINA RESULT:      -7.9      3.421      5.638
REMARK  0 active torsions:
REMARK  status: ('A' for Active; 'I' for Inactive)
REMARK       I    between atoms: C1_1  and  O3_35 
REMARK       I    between atoms: O18_2  and  C12_24 
REMARK       I    between atoms: O18_2  and  S26_27 
REMARK       I    between atoms: S20_5  and  N14_19 
REMARK       I    between atoms: S20_5  and  O28_18 
REMARK       I    between atoms: S20_5  and  O29_7 
REMARK       I    between atoms: S20_5  and  O30_30 
REMARK       I    between atoms: C27_6  and  C19_33 
REMARK       I    between atoms: O9_8  and  C4_32 
REMARK       I    between atoms: S16_9  and  O11_10 
REMARK       I    between atoms: O11_10  and  C6_15 
REMARK       I    between atoms: O25_14  and  C17_17 
REMARK       I    between atoms: C6_15  and  C2_23 
REMARK       I    between atoms: N14_19  and  C8_29 
REMARK       I    between atoms: C10_22  and  O15_26 
REMARK       I    between atoms: C7_25  and  O3_35 
ROOT
ATOM      1  C1  H1S d 501      36.396   4.138  14.399  0.00  0.00     0.095 C 
ATOM      2  O18 H1S d 501      34.377  -0.096  13.859  0.00  0.00    -0.244 OA
ATOM      3  O34 H1S d 501      39.414   0.198  13.387  0.00  0.00    -0.642 OA
ATOM      4  O35 H1S d 501      38.905  -0.130  11.262  0.00  0.00    -0.642 OA
ATOM      5  S20 H1S d 501      40.208   6.141  17.078  0.00  0.00     0.156 S 
ATOM      6  C27 H1S d 501      38.611   0.204  12.432  0.00  0.00     0.233 C 
ATOM      7  O29 H1S d 501      39.122   6.344  18.092  0.00  0.00    -0.296 OA
ATOM      8  O9  H1S d 501      38.010   2.766  15.566  0.00  0.00    -0.391 OA
ATOM      9  S16 H1S d 501      33.190   7.346  12.381  0.00  0.00     0.251 S 
ATOM     10  O11 H1S d 501      34.497   6.990  12.837  0.00  0.00    -0.254 OA
ATOM     11  O32 H1S d 501      32.549   0.667  15.203  0.00  0.00    -0.572 OA
ATOM     12  O5  H1S d 501      36.596   6.553  14.711  0.00  0.00    -0.350 OA
ATOM     13  O23 H1S d 501      33.277   8.562  11.508  0.00  0.00    -0.572 OA
ATOM     14  O25 H1S d 501      34.618   2.423  11.243  0.00  0.00    -0.389 OA
ATOM     15  C6  H1S d 501      34.720   5.717  13.450  0.00  0.00     0.067 C 
ATOM     16  O21 H1S d 501      32.608   6.208  11.596  0.00  0.00    -0.572 OA
ATOM     17  C17 H1S d 501      34.819   1.141  11.846  0.00  0.00     0.086 C 
ATOM     18  O28 H1S d 501      40.503   7.443  16.395  0.00  0.00    -0.296 OA
ATOM     19  N14 H1S d 501      39.736   5.040  15.972  0.00  0.00    -0.210 NA
ATOM     20  O31 H1S d 501      32.896  -1.723  14.794  0.00  0.00    -0.572 OA
ATOM     21  C24 H1S d 501      36.273   0.709  11.644  0.00  0.00    -0.034 C 
ATOM     22  C10 H1S d 501      38.002   6.476  14.985  0.00  0.00     0.147 C 
ATOM     23  C2  H1S d 501      36.200   5.527  13.786  0.00  0.00     0.091 C 
ATOM     24  C12 H1S d 501      34.523   1.231  13.345  0.00  0.00     0.135 C 
ATOM     25  C7  H1S d 501      35.712   1.888  14.050  0.00  0.00     0.167 C 
ATOM     26  O15 H1S d 501      38.731   6.544  13.756  0.00  0.00    -0.369 OA
ATOM     27  S26 H1S d 501      33.011  -0.351  14.202  0.00  0.00     0.252 S 
ATOM     28  O22 H1S d 501      32.312   7.639  13.563  0.00  0.00    -0.572 OA
ATOM     29  C8  H1S d 501      38.297   5.154  15.698  0.00  0.00     0.081 C 
ATOM     30  O30 H1S d 501      41.446   5.645  17.765  0.00  0.00    -0.296 OA
ATOM     31  O13 H1S d 501      36.814   0.966  13.981  0.00  0.00    -0.311 OA
ATOM     32  C4  H1S d 501      37.860   3.979  14.822  0.00  0.00     0.083 C 
ATOM     33  C19 H1S d 501      37.173   0.651  12.706  0.00  0.00     0.147 C 
ATOM     34  O33 H1S d 501      32.158  -0.267  12.970  0.00  0.00    -0.572 OA
ATOM     35  O3  H1S d 501      36.066   3.137  13.402  0.00  0.00    -0.348 OA
ATOM     36  H   H1S d 501      35.764   4.018  15.255  0.00  0.00     0.091 H 
ATOM     37  H   H1S d 501      38.322   6.665  17.649  0.00  0.00     0.231 HD
ATOM     38  H   H1S d 501      37.735   2.014  15.018  0.00  0.00     0.210 HD
ATOM     39  H   H1S d 501      33.696   2.699  11.370  0.00  0.00     0.210 HD
ATOM     40  H   H1S d 501      34.410   4.945  12.777  0.00  0.00     0.080 H 
ATOM     41  H   H1S d 501      34.154   5.670  14.357  0.00  0.00     0.080 H 
ATOM     42  H   H1S d 501      34.163   0.426  11.393  0.00  0.00     0.093 H 
ATOM     43  H   H1S d 501      39.702   7.764  15.952  0.00  0.00     0.231 HD
ATOM     44  H   H1S d 501      39.936   4.104  16.326  0.00  0.00     0.140 HD
ATOM     45  H   H1S d 501      36.595   0.454  10.696  0.00  0.00     0.085 H 
ATOM     46  H   H1S d 501      38.301   7.292  15.611  0.00  0.00     0.131 H 
ATOM     47  H   H1S d 501      36.803   5.601  12.905  0.00  0.00     0.090 H 
ATOM     48  H   H1S d 501      33.633   1.802  13.508  0.00  0.00     0.097 H 
ATOM     49  H   H1S d 501      35.464   2.110  15.067  0.00  0.00     0.134 H 
ATOM     50  H   H1S d 501      38.466   5.808  13.182  0.00  0.00     0.212 HD
ATOM     51  H   H1S d 501      37.755   5.135  16.620  0.00  0.00     0.076 H 
ATOM     52  H   H1S d 501      42.148   5.513  17.109  0.00  0.00     0.231 HD
ATOM     53  H   H1S d 501      38.468   3.953  13.943  0.00  0.00     0.089 H 
ENDROOT
TORSDOF 16
ENDMDL
MODEL 48
REMARK VINA RESULT:      -7.9      2.949      7.353
REMARK  0 active torsions:
REMARK  status: ('A' for Active; 'I' for Inactive)
REMARK       I    between atoms: C1_1  and  O3_35 
REMARK       I    between atoms: O18_2  and  C12_24 
REMARK       I    between atoms: O18_2  and  S26_27 
REMARK       I    between atoms: S20_5  and  N14_19 
REMARK       I    between atoms: S20_5  and  O28_18 
REMARK       I    between atoms: S20_5  and  O29_7 
REMARK       I    between atoms: S20_5  and  O30_30 
REMARK       I    between atoms: C27_6  and  C19_33 
REMARK       I    between atoms: O9_8  and  C4_32 
REMARK       I    between atoms: S16_9  and  O11_10 
REMARK       I    between atoms: O11_10  and  C6_15 
REMARK       I    between atoms: O25_14  and  C17_17 
REMARK       I    between atoms: C6_15  and  C2_23 
REMARK       I    between atoms: N14_19  and  C8_29 
REMARK       I    between atoms: C10_22  and  O15_26 
REMARK       I    between atoms: C7_25  and  O3_35 
ROOT
ATOM      1  C1  H1S d 501      38.281   2.539  14.409  0.00  0.00     0.095 C 
ATOM      2  O18 H1S d 501      42.493   3.894  12.761  0.00  0.00    -0.244 OA
ATOM      3  O34 H1S d 501      42.327   1.765  17.357  0.00  0.00    -0.642 OA
ATOM      4  O35 H1S d 501      42.746   3.845  17.975  0.00  0.00    -0.642 OA
ATOM      5  S20 H1S d 501      36.232  -1.636  16.432  0.00  0.00     0.156 S 
ATOM      6  C27 H1S d 501      42.350   2.995  17.146  0.00  0.00     0.233 C 
ATOM      7  O29 H1S d 501      35.957  -1.955  14.992  0.00  0.00    -0.296 OA
ATOM      8  O9  H1S d 501      39.628   0.675  15.155  0.00  0.00    -0.391 OA
ATOM      9  S16 H1S d 501      35.107   5.999  12.796  0.00  0.00     0.251 S 
ATOM     10  O11 H1S d 501      35.468   4.933  13.679  0.00  0.00    -0.254 OA
ATOM     11  O32 H1S d 501      41.628   3.683  10.539  0.00  0.00    -0.572 OA
ATOM     12  O5  H1S d 501      35.858   2.244  14.526  0.00  0.00    -0.350 OA
ATOM     13  O23 H1S d 501      33.936   6.745  13.363  0.00  0.00    -0.572 OA
ATOM     14  O25 H1S d 501      40.108   6.106  14.394  0.00  0.00    -0.389 OA
ATOM     15  C6  H1S d 501      36.714   4.253  13.508  0.00  0.00     0.067 C 
ATOM     16  O21 H1S d 501      36.269   6.934  12.642  0.00  0.00    -0.572 OA
ATOM     17  C17 H1S d 501      41.363   5.445  14.209  0.00  0.00     0.086 C 
ATOM     18  O28 H1S d 501      34.970  -1.156  17.085  0.00  0.00    -0.296 OA
ATOM     19  N14 H1S d 501      37.375  -0.477  16.536  0.00  0.00    -0.210 NA
ATOM     20  O31 H1S d 501      44.042   3.786  10.944  0.00  0.00    -0.572 OA
ATOM     21  C24 H1S d 501      41.835   4.871  15.547  0.00  0.00    -0.034 C 
ATOM     22  C10 H1S d 501      35.951   1.294  15.598  0.00  0.00     0.147 C 
ATOM     23  C2  H1S d 501      36.919   3.210  14.608  0.00  0.00     0.091 C 
ATOM     24  C12 H1S d 501      41.195   4.305  13.202  0.00  0.00     0.135 C 
ATOM     25  C7  H1S d 501      40.531   3.116  13.901  0.00  0.00     0.167 C 
ATOM     26  O15 H1S d 501      35.957   1.988  16.849  0.00  0.00    -0.369 OA
ATOM     27  S26 H1S d 501      42.703   4.281  11.400  0.00  0.00     0.252 S 
ATOM     28  O22 H1S d 501      34.739   5.432  11.456  0.00  0.00    -0.572 OA
ATOM     29  C8  H1S d 501      37.244   0.489  15.437  0.00  0.00     0.081 C 
ATOM     30  O30 H1S d 501      36.720  -2.869  17.133  0.00  0.00    -0.296 OA
ATOM     31  O13 H1S d 501      41.477   2.591  14.847  0.00  0.00    -0.311 OA
ATOM     32  C4  H1S d 501      38.450   1.430  15.452  0.00  0.00     0.083 C 
ATOM     33  C19 H1S d 501      41.861   3.498  15.786  0.00  0.00     0.147 C 
ATOM     34  O33 H1S d 501      42.660   5.777  11.288  0.00  0.00    -0.572 OA
ATOM     35  O3  H1S d 501      39.321   3.535  14.585  0.00  0.00    -0.348 OA
ATOM     36  H   H1S d 501      38.347   2.117  13.428  0.00  0.00     0.091 H 
ATOM     37  H   H1S d 501      35.641  -1.159  14.539  0.00  0.00     0.231 HD
ATOM     38  H   H1S d 501      40.400   1.264  15.163  0.00  0.00     0.210 HD
ATOM     39  H   H1S d 501      39.807   6.471  13.546  0.00  0.00     0.210 HD
ATOM     40  H   H1S d 501      37.512   4.966  13.548  0.00  0.00     0.080 H 
ATOM     41  H   H1S d 501      36.706   3.756  12.561  0.00  0.00     0.080 H 
ATOM     42  H   H1S d 501      42.085   6.145  13.842  0.00  0.00     0.093 H 
ATOM     43  H   H1S d 501      34.654  -0.359  16.632  0.00  0.00     0.231 HD
ATOM     44  H   H1S d 501      38.296  -0.913  16.490  0.00  0.00     0.140 HD
ATOM     45  H   H1S d 501      42.141   5.518  16.292  0.00  0.00     0.085 H 
ATOM     46  H   H1S d 501      35.113   0.629  15.574  0.00  0.00     0.131 H 
ATOM     47  H   H1S d 501      36.900   3.667  15.575  0.00  0.00     0.090 H 
ATOM     48  H   H1S d 501      40.599   4.632  12.377  0.00  0.00     0.097 H 
ATOM     49  H   H1S d 501      40.255   2.371  13.183  0.00  0.00     0.134 H 
ATOM     50  H   H1S d 501      36.715   2.594  16.879  0.00  0.00     0.212 HD
ATOM     51  H   H1S d 501      37.207  -0.033  14.504  0.00  0.00     0.076 H 
ATOM     52  H   H1S d 501      36.897  -2.663  18.064  0.00  0.00     0.231 HD
ATOM     53  H   H1S d 501      38.531   1.880  16.419  0.00  0.00     0.089 H 
ENDROOT
TORSDOF 16
ENDMDL
MODEL 49
REMARK VINA RESULT:      -7.9      3.651      8.203
REMARK  0 active torsions:
REMARK  status: ('A' for Active; 'I' for Inactive)
REMARK       I    between atoms: C1_1  and  O3_35 
REMARK       I    between atoms: O18_2  and  C12_24 
REMARK       I    between atoms: O18_2  and  S26_27 
REMARK       I    between atoms: S20_5  and  N14_19 
REMARK       I    between atoms: S20_5  and  O28_18 
REMARK       I    between atoms: S20_5  and  O29_7 
REMARK       I    between atoms: S20_5  and  O30_30 
REMARK       I    between atoms: C27_6  and  C19_33 
REMARK       I    between atoms: O9_8  and  C4_32 
REMARK       I    between atoms: S16_9  and  O11_10 
REMARK       I    between atoms: O11_10  and  C6_15 
REMARK       I    between atoms: O25_14  and  C17_17 
REMARK       I    between atoms: C6_15  and  C2_23 
REMARK       I    between atoms: N14_19  and  C8_29 
REMARK       I    between atoms: C10_22  and  O15_26 
REMARK       I    between atoms: C7_25  and  O3_35 
ROOT
ATOM      1  C1  H1S d 501      34.561   4.318  13.023  0.00  0.00     0.095 C 
ATOM      2  O18 H1S d 501      37.606   2.275  15.999  0.00  0.00    -0.244 OA
ATOM      3  O34 H1S d 501      37.020   7.300  16.296  0.00  0.00    -0.642 OA
ATOM      4  O35 H1S d 501      39.039   7.259  15.400  0.00  0.00    -0.642 OA
ATOM      5  S20 H1S d 501      30.648   7.531  13.310  0.00  0.00     0.156 S 
ATOM      6  C27 H1S d 501      37.939   6.729  15.674  0.00  0.00     0.233 C 
ATOM      7  O29 H1S d 501      29.875   6.258  13.490  0.00  0.00    -0.296 OA
ATOM      8  O9  H1S d 501      34.067   5.568  15.033  0.00  0.00    -0.391 OA
ATOM      9  S16 H1S d 501      35.035   1.788   8.778  0.00  0.00     0.251 S 
ATOM     10  O11 H1S d 501      34.635   2.944   9.518  0.00  0.00    -0.254 OA
ATOM     11  O32 H1S d 501      36.381   0.232  15.760  0.00  0.00    -0.572 OA
ATOM     12  O5  H1S d 501      32.976   4.554  11.179  0.00  0.00    -0.350 OA
ATOM     13  O23 H1S d 501      35.092   2.122   7.317  0.00  0.00    -0.572 OA
ATOM     14  O25 H1S d 501      38.384   3.204  12.566  0.00  0.00    -0.389 OA
ATOM     15  C6  H1S d 501      34.773   2.967  10.941  0.00  0.00     0.067 C 
ATOM     16  O21 H1S d 501      36.390   1.342   9.242  0.00  0.00    -0.572 OA
ATOM     17  C17 H1S d 501      38.538   3.208  13.989  0.00  0.00     0.086 C 
ATOM     18  O28 H1S d 501      30.468   8.029  11.907  0.00  0.00    -0.296 OA
ATOM     19  N14 H1S d 501      32.231   7.265  13.595  0.00  0.00    -0.210 NA
ATOM     20  O31 H1S d 501      37.944   0.551  17.619  0.00  0.00    -0.572 OA
ATOM     21  C24 H1S d 501      38.701   4.649  14.477  0.00  0.00    -0.034 C 
ATOM     22  C10 H1S d 501      32.561   5.860  11.605  0.00  0.00     0.147 C 
ATOM     23  C2  H1S d 501      34.356   4.326  11.506  0.00  0.00     0.091 C 
ATOM     24  C12 H1S d 501      37.297   2.592  14.638  0.00  0.00     0.135 C 
ATOM     25  C7  H1S d 501      36.167   3.625  14.633  0.00  0.00     0.167 C 
ATOM     26  O15 H1S d 501      33.424   6.845  11.029  0.00  0.00    -0.369 OA
ATOM     27  S26 H1S d 501      37.681   0.857  16.176  0.00  0.00     0.252 S 
ATOM     28  O22 H1S d 501      34.042   0.685   9.001  0.00  0.00    -0.572 OA
ATOM     29  C8  H1S d 501      32.631   5.929  13.133  0.00  0.00     0.081 C 
ATOM     30  O30 H1S d 501      30.144   8.562  14.276  0.00  0.00    -0.296 OA
ATOM     31  O13 H1S d 501      36.539   4.671  15.547  0.00  0.00    -0.311 OA
ATOM     32  C4  H1S d 501      34.057   5.642  13.604  0.00  0.00     0.083 C 
ATOM     33  C19 H1S d 501      37.706   5.288  15.213  0.00  0.00     0.147 C 
ATOM     34  O33 H1S d 501      38.795   0.302  15.338  0.00  0.00    -0.572 OA
ATOM     35  O3  H1S d 501      35.977   4.171  13.302  0.00  0.00    -0.348 OA
ATOM     36  H   H1S d 501      34.019   3.507  13.466  0.00  0.00     0.091 H 
ATOM     37  H   H1S d 501      30.201   5.591  12.866  0.00  0.00     0.231 HD
ATOM     38  H   H1S d 501      34.969   5.387  15.342  0.00  0.00     0.210 HD
ATOM     39  H   H1S d 501      38.281   2.291  12.255  0.00  0.00     0.210 HD
ATOM     40  H   H1S d 501      35.795   2.779  11.198  0.00  0.00     0.080 H 
ATOM     41  H   H1S d 501      34.140   2.213  11.359  0.00  0.00     0.080 H 
ATOM     42  H   H1S d 501      39.403   2.636  14.256  0.00  0.00     0.093 H 
ATOM     43  H   H1S d 501      30.793   7.362  11.283  0.00  0.00     0.231 HD
ATOM     44  H   H1S d 501      32.407   7.338  14.598  0.00  0.00     0.140 HD
ATOM     45  H   H1S d 501      39.570   5.160  14.254  0.00  0.00     0.085 H 
ATOM     46  H   H1S d 501      31.557   6.050  11.286  0.00  0.00     0.131 H 
ATOM     47  H   H1S d 501      34.948   5.111  11.085  0.00  0.00     0.090 H 
ATOM     48  H   H1S d 501      37.001   1.716  14.101  0.00  0.00     0.097 H 
ATOM     49  H   H1S d 501      35.246   3.169  14.930  0.00  0.00     0.134 H 
ATOM     50  H   H1S d 501      34.337   6.680  11.314  0.00  0.00     0.212 HD
ATOM     51  H   H1S d 501      31.965   5.196  13.539  0.00  0.00     0.076 H 
ATOM     52  H   H1S d 501      30.643   9.386  14.159  0.00  0.00     0.231 HD
ATOM     53  H   H1S d 501      34.701   6.428  13.269  0.00  0.00     0.089 H 
ENDROOT
TORSDOF 16
ENDMDL
MODEL 50
REMARK VINA RESULT:      -7.9      2.810      7.743
REMARK  0 active torsions:
REMARK  status: ('A' for Active; 'I' for Inactive)
REMARK       I    between atoms: C1_1  and  O3_35 
REMARK       I    between atoms: O18_2  and  C12_24 
REMARK       I    between atoms: O18_2  and  S26_27 
REMARK       I    between atoms: S20_5  and  N14_19 
REMARK       I    between atoms: S20_5  and  O28_18 
REMARK       I    between atoms: S20_5  and  O29_7 
REMARK       I    between atoms: S20_5  and  O30_30 
REMARK       I    between atoms: C27_6  and  C19_33 
REMARK       I    between atoms: O9_8  and  C4_32 
REMARK       I    between atoms: S16_9  and  O11_10 
REMARK       I    between atoms: O11_10  and  C6_15 
REMARK       I    between atoms: O25_14  and  C17_17 
REMARK       I    between atoms: C6_15  and  C2_23 
REMARK       I    between atoms: N14_19  and  C8_29 
REMARK       I    between atoms: C10_22  and  O15_26 
REMARK       I    between atoms: C7_25  and  O3_35 
ROOT
ATOM      1  C1  H1S d 501      38.390  -0.395  15.780  0.00  0.00     0.095 C 
ATOM      2  O18 H1S d 501      41.828  -1.434  18.847  0.00  0.00    -0.244 OA
ATOM      3  O34 H1S d 501      37.460   0.342  20.704  0.00  0.00    -0.642 OA
ATOM      4  O35 H1S d 501      38.717   2.124  21.062  0.00  0.00    -0.642 OA
ATOM      5  S20 H1S d 501      33.467  -1.458  15.192  0.00  0.00     0.156 S 
ATOM      6  C27 H1S d 501      38.474   1.037  20.491  0.00  0.00     0.233 C 
ATOM      7  O29 H1S d 501      34.016  -2.630  14.434  0.00  0.00    -0.296 OA
ATOM      8  O9  H1S d 501      37.077  -1.420  17.532  0.00  0.00    -0.391 OA
ATOM      9  S16 H1S d 501      40.733   1.480  11.825  0.00  0.00     0.251 S 
ATOM     10  O11 H1S d 501      39.563   1.292  12.625  0.00  0.00    -0.254 OA
ATOM     11  O32 H1S d 501      42.724  -2.962  17.237  0.00  0.00    -0.572 OA
ATOM     12  O5  H1S d 501      37.264  -0.044  13.640  0.00  0.00    -0.350 OA
ATOM     13  O23 H1S d 501      40.514   2.618  10.874  0.00  0.00    -0.572 OA
ATOM     14  O25 H1S d 501      41.585   1.695  17.002  0.00  0.00    -0.389 OA
ATOM     15  C6  H1S d 501      39.615   0.462  13.787  0.00  0.00     0.067 C 
ATOM     16  O21 H1S d 501      41.901   1.790  12.715  0.00  0.00    -0.572 OA
ATOM     17  C17 H1S d 501      41.662   0.866  18.166  0.00  0.00     0.086 C 
ATOM     18  O28 H1S d 501      32.973  -0.425  14.223  0.00  0.00    -0.296 OA
ATOM     19  N14 H1S d 501      34.630  -0.810  16.134  0.00  0.00    -0.210 NA
ATOM     20  O31 H1S d 501      43.394  -3.079  19.590  0.00  0.00    -0.572 OA
ATOM     21  C24 H1S d 501      40.605   1.313  19.178  0.00  0.00    -0.034 C 
ATOM     22  C10 H1S d 501      35.967   0.032  14.251  0.00  0.00     0.147 C 
ATOM     23  C2  H1S d 501      38.274   0.471  14.523  0.00  0.00     0.091 C 
ATOM     24  C12 H1S d 501      41.401  -0.590  17.773  0.00  0.00     0.135 C 
ATOM     25  C7  H1S d 501      39.896  -0.791  17.577  0.00  0.00     0.167 C 
ATOM     26  O15 H1S d 501      35.706   1.383  14.645  0.00  0.00    -0.369 OA
ATOM     27  S26 H1S d 501      43.004  -2.159  18.473  0.00  0.00     0.252 S 
ATOM     28  O22 H1S d 501      41.014   0.225  11.050  0.00  0.00    -0.572 OA
ATOM     29  C8  H1S d 501      35.941  -0.886  15.476  0.00  0.00     0.081 C 
ATOM     30  O30 H1S d 501      32.331  -1.913  16.060  0.00  0.00    -0.296 OA
ATOM     31  O13 H1S d 501      39.277  -0.677  18.869  0.00  0.00    -0.311 OA
ATOM     32  C4  H1S d 501      37.024  -0.464  16.470  0.00  0.00     0.083 C 
ATOM     33  C19 H1S d 501      39.489   0.529  19.464  0.00  0.00     0.147 C 
ATOM     34  O33 H1S d 501      44.125  -1.199  18.204  0.00  0.00    -0.572 OA
ATOM     35  O3  H1S d 501      39.358   0.211  16.676  0.00  0.00    -0.348 OA
ATOM     36  H   H1S d 501      38.708  -1.384  15.521  0.00  0.00     0.091 H 
ATOM     37  H   H1S d 501      34.750  -2.336  13.873  0.00  0.00     0.231 HD
ATOM     38  H   H1S d 501      37.762  -1.160  18.168  0.00  0.00     0.210 HD
ATOM     39  H   H1S d 501      42.255   1.413  16.359  0.00  0.00     0.210 HD
ATOM     40  H   H1S d 501      40.378   0.825  14.444  0.00  0.00     0.080 H 
ATOM     41  H   H1S d 501      39.832  -0.541  13.483  0.00  0.00     0.080 H 
ATOM     42  H   H1S d 501      42.637   0.950  18.600  0.00  0.00     0.093 H 
ATOM     43  H   H1S d 501      33.707  -0.132  13.662  0.00  0.00     0.231 HD
ATOM     44  H   H1S d 501      34.668  -1.321  17.016  0.00  0.00     0.140 HD
ATOM     45  H   H1S d 501      40.722   2.218  19.660  0.00  0.00     0.085 H 
ATOM     46  H   H1S d 501      35.214  -0.279  13.557  0.00  0.00     0.131 H 
ATOM     47  H   H1S d 501      38.007   1.465  14.815  0.00  0.00     0.090 H 
ATOM     48  H   H1S d 501      41.927  -0.825  16.872  0.00  0.00     0.097 H 
ATOM     49  H   H1S d 501      39.703  -1.751  17.145  0.00  0.00     0.134 H 
ATOM     50  H   H1S d 501      36.385   1.673  15.275  0.00  0.00     0.212 HD
ATOM     51  H   H1S d 501      36.122  -1.890  15.154  0.00  0.00     0.076 H 
ATOM     52  H   H1S d 501      31.975  -1.155  16.550  0.00  0.00     0.231 HD
ATOM     53  H   H1S d 501      36.787   0.506  16.854  0.00  0.00     0.089 H 
ENDROOT
TORSDOF 16
ENDMDL
MODEL 51
REMARK VINA RESULT:      -7.9      3.142      4.739
REMARK  0 active torsions:
REMARK  status: ('A' for Active; 'I' for Inactive)
REMARK       I    between atoms: C1_1  and  O3_35 
REMARK       I    between atoms: O18_2  and  C12_24 
REMARK       I    between atoms: O18_2  and  S26_27 
REMARK       I    between atoms: S20_5  and  N14_19 
REMARK       I    between atoms: S20_5  and  O28_18 
REMARK       I    between atoms: S20_5  and  O29_7 
REMARK       I    between atoms: S20_5  and  O30_30 
REMARK       I    between atoms: C27_6  and  C19_33 
REMARK       I    between atoms: O9_8  and  C4_32 
REMARK       I    between atoms: S16_9  and  O11_10 
REMARK       I    between atoms: O11_10  and  C6_15 
REMARK       I    between atoms: O25_14  and  C17_17 
REMARK       I    between atoms: C6_15  and  C2_23 
REMARK       I    between atoms: N14_19  and  C8_29 
REMARK       I    between atoms: C10_22  and  O15_26 
REMARK       I    between atoms: C7_25  and  O3_35 
ROOT
ATOM      1  C1  H1S d 501      37.816   1.191  15.210  0.00  0.00     0.095 C 
ATOM      2  O18 H1S d 501      36.110   0.983  10.812  0.00  0.00    -0.244 OA
ATOM      3  O34 H1S d 501      40.060  -1.978  11.958  0.00  0.00    -0.642 OA
ATOM      4  O35 H1S d 501      41.108  -0.518  10.671  0.00  0.00    -0.642 OA
ATOM      5  S20 H1S d 501      38.990  -2.065  18.916  0.00  0.00     0.156 S 
ATOM      6  C27 H1S d 501      40.146  -0.869  11.392  0.00  0.00     0.233 C 
ATOM      7  O29 H1S d 501      37.552  -1.851  19.286  0.00  0.00    -0.296 OA
ATOM      8  O9  H1S d 501      37.954  -1.193  14.833  0.00  0.00    -0.391 OA
ATOM      9  S16 H1S d 501      37.409   5.965  16.511  0.00  0.00     0.251 S 
ATOM     10  O11 H1S d 501      37.971   4.660  16.668  0.00  0.00    -0.254 OA
ATOM     11  O32 H1S d 501      34.003   1.747  11.654  0.00  0.00    -0.572 OA
ATOM     12  O5  H1S d 501      38.110   1.946  17.516  0.00  0.00    -0.350 OA
ATOM     13  O23 H1S d 501      38.255   6.967  17.239  0.00  0.00    -0.572 OA
ATOM     14  O25 H1S d 501      38.460   3.499  11.996  0.00  0.00    -0.389 OA
ATOM     15  C6  H1S d 501      37.515   3.581  15.848  0.00  0.00     0.067 C 
ATOM     16  O21 H1S d 501      37.362   6.316  15.053  0.00  0.00    -0.572 OA
ATOM     17  C17 H1S d 501      37.994   2.435  11.159  0.00  0.00     0.086 C 
ATOM     18  O28 H1S d 501      39.866  -1.277  19.844  0.00  0.00    -0.296 OA
ATOM     19  N14 H1S d 501      39.247  -1.580  17.380  0.00  0.00    -0.210 NA
ATOM     20  O31 H1S d 501      34.169   0.695   9.447  0.00  0.00    -0.572 OA
ATOM     21  C24 H1S d 501      39.101   1.390  11.006  0.00  0.00    -0.034 C 
ATOM     22  C10 H1S d 501      38.910   0.806  17.865  0.00  0.00     0.147 C 
ATOM     23  C2  H1S d 501      38.308   2.305  16.138  0.00  0.00     0.091 C 
ATOM     24  C12 H1S d 501      36.768   1.782  11.800  0.00  0.00     0.135 C 
ATOM     25  C7  H1S d 501      37.229   0.857  12.930  0.00  0.00     0.167 C 
ATOM     26  O15 H1S d 501      40.282   1.081  17.568  0.00  0.00    -0.369 OA
ATOM     27  S26 H1S d 501      34.865   1.581  10.436  0.00  0.00     0.252 S 
ATOM     28  O22 H1S d 501      36.018   5.980  17.074  0.00  0.00    -0.572 OA
ATOM     29  C8  H1S d 501      38.429  -0.403  17.058  0.00  0.00     0.081 C 
ATOM     30  O30 H1S d 501      39.324  -3.523  19.031  0.00  0.00    -0.296 OA
ATOM     31  O13 H1S d 501      37.920  -0.249  12.325  0.00  0.00    -0.311 OA
ATOM     32  C4  H1S d 501      38.542  -0.111  15.561  0.00  0.00     0.083 C 
ATOM     33  C19 H1S d 501      39.003   0.129  11.591  0.00  0.00     0.147 C 
ATOM     34  O33 H1S d 501      35.117   2.922   9.813  0.00  0.00    -0.572 OA
ATOM     35  O3  H1S d 501      38.115   1.561  13.839  0.00  0.00    -0.348 OA
ATOM     36  H   H1S d 501      36.761   1.052  15.325  0.00  0.00     0.091 H 
ATOM     37  H   H1S d 501      37.336  -0.909  19.212  0.00  0.00     0.231 HD
ATOM     38  H   H1S d 501      38.021  -1.016  13.880  0.00  0.00     0.210 HD
ATOM     39  H   H1S d 501      37.759   4.163  12.095  0.00  0.00     0.210 HD
ATOM     40  H   H1S d 501      37.640   3.845  14.818  0.00  0.00     0.080 H 
ATOM     41  H   H1S d 501      36.483   3.399  16.063  0.00  0.00     0.080 H 
ATOM     42  H   H1S d 501      37.730   2.826  10.198  0.00  0.00     0.093 H 
ATOM     43  H   H1S d 501      39.650  -0.335  19.770  0.00  0.00     0.231 HD
ATOM     44  H   H1S d 501      39.005  -2.340  16.745  0.00  0.00     0.140 HD
ATOM     45  H   H1S d 501      39.942   1.625  10.455  0.00  0.00     0.085 H 
ATOM     46  H   H1S d 501      38.816   0.597  18.910  0.00  0.00     0.131 H 
ATOM     47  H   H1S d 501      39.353   2.458  15.965  0.00  0.00     0.090 H 
ATOM     48  H   H1S d 501      36.110   2.534  12.181  0.00  0.00     0.097 H 
ATOM     49  H   H1S d 501      36.388   0.517  13.498  0.00  0.00     0.134 H 
ATOM     50  H   H1S d 501      40.376   1.272  16.621  0.00  0.00     0.212 HD
ATOM     51  H   H1S d 501      37.408  -0.598  17.309  0.00  0.00     0.076 H 
ATOM     52  H   H1S d 501      40.253  -3.662  18.792  0.00  0.00     0.231 HD
ATOM     53  H   H1S d 501      39.574  -0.006  15.301  0.00  0.00     0.089 H 
ENDROOT
TORSDOF 16
ENDMDL
MODEL 52
REMARK VINA RESULT:      -7.8      3.708      5.826
REMARK  0 active torsions:
REMARK  status: ('A' for Active; 'I' for Inactive)
REMARK       I    between atoms: C1_1  and  O3_35 
REMARK       I    between atoms: O18_2  and  C12_24 
REMARK       I    between atoms: O18_2  and  S26_27 
REMARK       I    between atoms: S20_5  and  N14_19 
REMARK       I    between atoms: S20_5  and  O28_18 
REMARK       I    between atoms: S20_5  and  O29_7 
REMARK       I    between atoms: S20_5  and  O30_30 
REMARK       I    between atoms: C27_6  and  C19_33 
REMARK       I    between atoms: O9_8  and  C4_32 
REMARK       I    between atoms: S16_9  and  O11_10 
REMARK       I    between atoms: O11_10  and  C6_15 
REMARK       I    between atoms: O25_14  and  C17_17 
REMARK       I    between atoms: C6_15  and  C2_23 
REMARK       I    between atoms: N14_19  and  C8_29 
REMARK       I    between atoms: C10_22  and  O15_26 
REMARK       I    between atoms: C7_25  and  O3_35 
ROOT
ATOM      1  C1  H1S d 501      37.883   4.321  15.057  0.00  0.00     0.095 C 
ATOM      2  O18 H1S d 501      35.928   0.030  14.796  0.00  0.00    -0.244 OA
ATOM      3  O34 H1S d 501      40.978   0.312  15.113  0.00  0.00    -0.642 OA
ATOM      4  O35 H1S d 501      40.817  -0.317  13.000  0.00  0.00    -0.642 OA
ATOM      5  S20 H1S d 501      41.232   6.723  18.012  0.00  0.00     0.156 S 
ATOM      6  C27 H1S d 501      40.341   0.175  14.048  0.00  0.00     0.233 C 
ATOM      7  O29 H1S d 501      39.999   7.055  18.797  0.00  0.00    -0.296 OA
ATOM      8  O9  H1S d 501      39.269   3.145  16.652  0.00  0.00    -0.391 OA
ATOM      9  S16 H1S d 501      35.085   7.178  12.115  0.00  0.00     0.251 S 
ATOM     10  O11 H1S d 501      36.297   6.904  12.823  0.00  0.00    -0.254 OA
ATOM     11  O32 H1S d 501      33.915   0.955  15.704  0.00  0.00    -0.572 OA
ATOM     12  O5  H1S d 501      38.057   6.758  15.055  0.00  0.00    -0.350 OA
ATOM     13  O23 H1S d 501      35.327   8.260  11.105  0.00  0.00    -0.572 OA
ATOM     14  O25 H1S d 501      36.620   2.160  11.927  0.00  0.00    -0.389 OA
ATOM     15  C6  H1S d 501      36.402   5.732  13.636  0.00  0.00     0.067 C 
ATOM     16  O21 H1S d 501      34.625   5.934  11.413  0.00  0.00    -0.572 OA
ATOM     17  C17 H1S d 501      36.706   0.978  12.729  0.00  0.00     0.086 C 
ATOM     18  O28 H1S d 501      41.649   7.920  17.210  0.00  0.00    -0.296 OA
ATOM     19  N14 H1S d 501      40.933   5.472  17.009  0.00  0.00    -0.210 NA
ATOM     20  O31 H1S d 501      34.296  -1.465  15.698  0.00  0.00    -0.572 OA
ATOM     21  C24 H1S d 501      38.168   0.537  12.828  0.00  0.00    -0.034 C 
ATOM     22  C10 H1S d 501      39.400   6.737  15.562  0.00  0.00     0.147 C 
ATOM     23  C2  H1S d 501      37.805   5.608  14.231  0.00  0.00     0.091 C 
ATOM     24  C12 H1S d 501      36.171   1.274  14.132  0.00  0.00     0.135 C 
ATOM     25  C7  H1S d 501      37.238   2.036  14.921  0.00  0.00     0.167 C 
ATOM     26  O15 H1S d 501      40.319   6.639  14.470  0.00  0.00    -0.369 OA
ATOM     27  S26 H1S d 501      34.522  -0.189  14.945  0.00  0.00     0.252 S 
ATOM     28  O22 H1S d 501      34.031   7.624  13.085  0.00  0.00    -0.572 OA
ATOM     29  C8  H1S d 501      39.559   5.531  16.492  0.00  0.00     0.081 C 
ATOM     30  O30 H1S d 501      42.336   6.342  18.953  0.00  0.00    -0.296 OA
ATOM     31  O13 H1S d 501      38.325   1.127  15.162  0.00  0.00    -0.311 OA
ATOM     32  C4  H1S d 501      39.256   4.239  15.731  0.00  0.00     0.083 C 
ATOM     33  C19 H1S d 501      38.883   0.640  14.020  0.00  0.00     0.147 C 
ATOM     34  O33 H1S d 501      33.881  -0.288  13.592  0.00  0.00    -0.572 OA
ATOM     35  O3  H1S d 501      37.707   3.186  14.170  0.00  0.00    -0.348 OA
ATOM     36  H   H1S d 501      37.119   4.315  15.807  0.00  0.00     0.091 H 
ATOM     37  H   H1S d 501      39.285   7.301  18.189  0.00  0.00     0.231 HD
ATOM     38  H   H1S d 501      39.078   2.320  16.177  0.00  0.00     0.210 HD
ATOM     39  H   H1S d 501      35.694   2.441  11.862  0.00  0.00     0.210 HD
ATOM     40  H   H1S d 501      36.196   4.870  13.037  0.00  0.00     0.080 H 
ATOM     41  H   H1S d 501      35.695   5.807  14.436  0.00  0.00     0.080 H 
ATOM     42  H   H1S d 501      36.124   0.199  12.280  0.00  0.00     0.093 H 
ATOM     43  H   H1S d 501      40.935   8.166  16.602  0.00  0.00     0.231 HD
ATOM     44  H   H1S d 501      41.062   4.598  17.519  0.00  0.00     0.140 HD
ATOM     45  H   H1S d 501      38.636   0.156  11.991  0.00  0.00     0.085 H 
ATOM     46  H   H1S d 501      39.602   7.635  16.107  0.00  0.00     0.131 H 
ATOM     47  H   H1S d 501      38.544   5.564  13.459  0.00  0.00     0.090 H 
ATOM     48  H   H1S d 501      35.274   1.852  14.066  0.00  0.00     0.097 H 
ATOM     49  H   H1S d 501      36.831   2.397  15.843  0.00  0.00     0.134 H 
ATOM     50  H   H1S d 501      40.142   5.826  13.971  0.00  0.00     0.212 HD
ATOM     51  H   H1S d 501      38.875   5.635  17.308  0.00  0.00     0.076 H 
ATOM     52  H   H1S d 501      43.134   6.128  18.445  0.00  0.00     0.231 HD
ATOM     53  H   H1S d 501      39.999   4.097  14.974  0.00  0.00     0.089 H 
ENDROOT
TORSDOF 16
ENDMDL
MODEL 53
REMARK VINA RESULT:      -7.8      3.661      7.706
REMARK  0 active torsions:
REMARK  status: ('A' for Active; 'I' for Inactive)
REMARK       I    between atoms: C1_1  and  O3_35 
REMARK       I    between atoms: O18_2  and  C12_24 
REMARK       I    between atoms: O18_2  and  S26_27 
REMARK       I    between atoms: S20_5  and  N14_19 
REMARK       I    between atoms: S20_5  and  O28_18 
REMARK       I    between atoms: S20_5  and  O29_7 
REMARK       I    between atoms: S20_5  and  O30_30 
REMARK       I    between atoms: C27_6  and  C19_33 
REMARK       I    between atoms: O9_8  and  C4_32 
REMARK       I    between atoms: S16_9  and  O11_10 
REMARK       I    between atoms: O11_10  and  C6_15 
REMARK       I    between atoms: O25_14  and  C17_17 
REMARK       I    between atoms: C6_15  and  C2_23 
REMARK       I    between atoms: N14_19  and  C8_29 
REMARK       I    between atoms: C10_22  and  O15_26 
REMARK       I    between atoms: C7_25  and  O3_35 
ROOT
ATOM      1  C1  H1S d 501      38.737   3.270  16.398  0.00  0.00     0.095 C 
ATOM      2  O18 H1S d 501      42.313   6.113  15.202  0.00  0.00    -0.244 OA
ATOM      3  O34 H1S d 501      42.186   4.342  19.948  0.00  0.00    -0.642 OA
ATOM      4  O35 H1S d 501      41.653   6.445  20.369  0.00  0.00    -0.642 OA
ATOM      5  S20 H1S d 501      38.146  -1.263  18.594  0.00  0.00     0.156 S 
ATOM      6  C27 H1S d 501      41.768   5.465  19.599  0.00  0.00     0.233 C 
ATOM      7  O29 H1S d 501      38.272  -1.741  17.178  0.00  0.00    -0.296 OA
ATOM      8  O9  H1S d 501      40.549   2.146  17.538  0.00  0.00    -0.391 OA
ATOM      9  S16 H1S d 501      34.805   5.074  13.963  0.00  0.00     0.251 S 
ATOM     10  O11 H1S d 501      35.391   4.292  15.007  0.00  0.00    -0.254 OA
ATOM     11  O32 H1S d 501      41.999   5.455  12.921  0.00  0.00    -0.572 OA
ATOM     12  O5  H1S d 501      36.637   2.034  16.211  0.00  0.00    -0.350 OA
ATOM     13  O23 H1S d 501      33.357   5.317  14.270  0.00  0.00    -0.572 OA
ATOM     14  O25 H1S d 501      39.012   7.264  16.215  0.00  0.00    -0.389 OA
ATOM     15  C6  H1S d 501      36.812   4.161  15.092  0.00  0.00     0.067 C 
ATOM     16  O21 H1S d 501      35.521   6.388  13.862  0.00  0.00    -0.572 OA
ATOM     17  C17 H1S d 501      40.437   7.154  16.286  0.00  0.00     0.086 C 
ATOM     18  O28 H1S d 501      36.704  -1.296  19.005  0.00  0.00    -0.296 OA
ATOM     19  N14 H1S d 501      38.714   0.261  18.718  0.00  0.00    -0.210 NA
ATOM     20  O31 H1S d 501      44.074   6.539  13.643  0.00  0.00    -0.572 OA
ATOM     21  C24 H1S d 501      40.853   6.889  17.735  0.00  0.00    -0.034 C 
ATOM     22  C10 H1S d 501      36.903   1.259  17.390  0.00  0.00     0.147 C 
ATOM     23  C2  H1S d 501      37.210   3.347  16.325  0.00  0.00     0.091 C 
ATOM     24  C12 H1S d 501      40.902   5.990  15.407  0.00  0.00     0.135 C 
ATOM     25  C7  H1S d 501      40.639   4.674  16.141  0.00  0.00     0.167 C 
ATOM     26  O15 H1S d 501      36.422   1.963  18.539  0.00  0.00    -0.369 OA
ATOM     27  S26 H1S d 501      42.590   6.478  13.846  0.00  0.00     0.252 S 
ATOM     28  O22 H1S d 501      34.925   4.338  12.661  0.00  0.00    -0.572 OA
ATOM     29  C8  H1S d 501      38.413   1.034  17.506  0.00  0.00     0.081 C 
ATOM     30  O30 H1S d 501      38.944  -2.157  19.496  0.00  0.00    -0.296 OA
ATOM     31  O13 H1S d 501      41.535   4.623  17.265  0.00  0.00    -0.311 OA
ATOM     32  C4  H1S d 501      39.138   2.378  17.577  0.00  0.00     0.083 C 
ATOM     33  C19 H1S d 501      41.367   5.657  18.135  0.00  0.00     0.147 C 
ATOM     34  O33 H1S d 501      41.992   7.823  13.554  0.00  0.00    -0.572 OA
ATOM     35  O3  H1S d 501      39.263   4.608  16.597  0.00  0.00    -0.348 OA
ATOM     36  H   H1S d 501      39.131   2.858  15.491  0.00  0.00     0.091 H 
ATOM     37  H   H1S d 501      37.757  -1.164  16.595  0.00  0.00     0.231 HD
ATOM     38  H   H1S d 501      41.019   2.994  17.583  0.00  0.00     0.210 HD
ATOM     39  H   H1S d 501      38.746   7.432  15.297  0.00  0.00     0.210 HD
ATOM     40  H   H1S d 501      37.251   5.135  15.158  0.00  0.00     0.080 H 
ATOM     41  H   H1S d 501      37.162   3.653  14.218  0.00  0.00     0.080 H 
ATOM     42  H   H1S d 501      40.884   8.064  15.942  0.00  0.00     0.093 H 
ATOM     43  H   H1S d 501      36.189  -0.718  18.421  0.00  0.00     0.231 HD
ATOM     44  H   H1S d 501      39.725   0.230  18.853  0.00  0.00     0.140 HD
ATOM     45  H   H1S d 501      40.751   7.643  18.433  0.00  0.00     0.085 H 
ATOM     46  H   H1S d 501      36.405   0.313  17.329  0.00  0.00     0.131 H 
ATOM     47  H   H1S d 501      36.847   3.809  17.219  0.00  0.00     0.090 H 
ATOM     48  H   H1S d 501      40.379   6.006  14.474  0.00  0.00     0.097 H 
ATOM     49  H   H1S d 501      40.802   3.844  15.486  0.00  0.00     0.134 H 
ATOM     50  H   H1S d 501      36.868   2.822  18.602  0.00  0.00     0.212 HD
ATOM     51  H   H1S d 501      38.745   0.493  16.645  0.00  0.00     0.076 H 
ATOM     52  H   H1S d 501      38.862  -1.848  20.412  0.00  0.00     0.231 HD
ATOM     53  H   H1S d 501      38.869   2.874  18.486  0.00  0.00     0.089 H 
ENDROOT
TORSDOF 16
ENDMDL
MODEL 54
REMARK VINA RESULT:      -7.7      3.138      8.269
REMARK  0 active torsions:
REMARK  status: ('A' for Active; 'I' for Inactive)
REMARK       I    between atoms: C1_1  and  O3_35 
REMARK       I    between atoms: O18_2  and  C12_24 
REMARK       I    between atoms: O18_2  and  S26_27 
REMARK       I    between atoms: S20_5  and  N14_19 
REMARK       I    between atoms: S20_5  and  O28_18 
REMARK       I    between atoms: S20_5  and  O29_7 
REMARK       I    between atoms: S20_5  and  O30_30 
REMARK       I    between atoms: C27_6  and  C19_33 
REMARK       I    between atoms: O9_8  and  C4_32 
REMARK       I    between atoms: S16_9  and  O11_10 
REMARK       I    between atoms: O11_10  and  C6_15 
REMARK       I    between atoms: O25_14  and  C17_17 
REMARK       I    between atoms: C6_15  and  C2_23 
REMARK       I    between atoms: N14_19  and  C8_29 
REMARK       I    between atoms: C10_22  and  O15_26 
REMARK       I    between atoms: C7_25  and  O3_35 
ROOT
ATOM      1  C1  H1S d 501      37.722   3.140  15.368  0.00  0.00     0.095 C 
ATOM      2  O18 H1S d 501      41.513   5.952  15.496  0.00  0.00    -0.244 OA
ATOM      3  O34 H1S d 501      40.111   4.077  11.001  0.00  0.00    -0.642 OA
ATOM      4  O35 H1S d 501      41.937   2.869  11.304  0.00  0.00    -0.642 OA
ATOM      5  S20 H1S d 501      33.403   2.815  12.729  0.00  0.00     0.156 S 
ATOM      6  C27 H1S d 501      41.004   3.591  11.725  0.00  0.00     0.233 C 
ATOM      7  O29 H1S d 501      32.905   3.716  13.819  0.00  0.00    -0.296 OA
ATOM      8  O9  H1S d 501      37.344   4.424  13.354  0.00  0.00    -0.391 OA
ATOM      9  S16 H1S d 501      37.947   0.504  19.568  0.00  0.00     0.251 S 
ATOM     10  O11 H1S d 501      37.475   0.712  18.235  0.00  0.00    -0.254 OA
ATOM     11  O32 H1S d 501      40.643   6.939  17.496  0.00  0.00    -0.572 OA
ATOM     12  O5  H1S d 501      35.846   1.793  16.166  0.00  0.00    -0.350 OA
ATOM     13  O23 H1S d 501      37.711  -0.922  19.967  0.00  0.00    -0.572 OA
ATOM     14  O25 H1S d 501      41.558   2.392  16.257  0.00  0.00    -0.389 OA
ATOM     15  C6  H1S d 501      37.832   1.901  17.526  0.00  0.00     0.067 C 
ATOM     16  O21 H1S d 501      39.416   0.803  19.629  0.00  0.00    -0.572 OA
ATOM     17  C17 H1S d 501      41.935   3.586  15.563  0.00  0.00     0.086 C 
ATOM     18  O28 H1S d 501      32.917   1.418  12.976  0.00  0.00    -0.296 OA
ATOM     19  N14 H1S d 501      35.034   2.827  12.700  0.00  0.00    -0.210 NA
ATOM     20  O31 H1S d 501      42.403   8.054  16.206  0.00  0.00    -0.572 OA
ATOM     21  C24 H1S d 501      41.919   3.322  14.056  0.00  0.00    -0.034 C 
ATOM     22  C10 H1S d 501      35.282   1.666  14.852  0.00  0.00     0.147 C 
ATOM     23  C2  H1S d 501      37.279   1.870  16.100  0.00  0.00     0.091 C 
ATOM     24  C12 H1S d 501      40.940   4.702  15.891  0.00  0.00     0.135 C 
ATOM     25  C7  H1S d 501      39.661   4.485  15.079  0.00  0.00     0.167 C 
ATOM     26  O15 H1S d 501      35.857   0.532  14.196  0.00  0.00    -0.369 OA
ATOM     27  S26 H1S d 501      41.863   6.727  16.647  0.00  0.00     0.252 S 
ATOM     28  O22 H1S d 501      37.211   1.415  20.506  0.00  0.00    -0.572 OA
ATOM     29  C8  H1S d 501      35.582   2.940  14.058  0.00  0.00     0.081 C 
ATOM     30  O30 H1S d 501      32.887   3.298  11.406  0.00  0.00    -0.296 OA
ATOM     31  O13 H1S d 501      39.985   4.721  13.698  0.00  0.00    -0.311 OA
ATOM     32  C4  H1S d 501      37.094   3.158  13.971  0.00  0.00     0.083 C 
ATOM     33  C19 H1S d 501      40.957   3.894  13.224  0.00  0.00     0.147 C 
ATOM     34  O33 H1S d 501      42.908   6.003  17.443  0.00  0.00    -0.572 OA
ATOM     35  O3  H1S d 501      39.168   3.131  15.251  0.00  0.00    -0.348 OA
ATOM     36  H   H1S d 501      37.408   4.008  15.909  0.00  0.00     0.091 H 
ATOM     37  H   H1S d 501      33.238   3.405  14.674  0.00  0.00     0.231 HD
ATOM     38  H   H1S d 501      38.301   4.571  13.294  0.00  0.00     0.210 HD
ATOM     39  H   H1S d 501      41.568   2.557  17.213  0.00  0.00     0.210 HD
ATOM     40  H   H1S d 501      38.899   1.979  17.487  0.00  0.00     0.080 H 
ATOM     41  H   H1S d 501      37.415   2.743  18.037  0.00  0.00     0.080 H 
ATOM     42  H   H1S d 501      42.918   3.881  15.868  0.00  0.00     0.093 H 
ATOM     43  H   H1S d 501      33.250   1.106  13.831  0.00  0.00     0.231 HD
ATOM     44  H   H1S d 501      35.352   3.622  12.144  0.00  0.00     0.140 HD
ATOM     45  H   H1S d 501      42.637   2.706  13.645  0.00  0.00     0.085 H 
ATOM     46  H   H1S d 501      34.222   1.529  14.918  0.00  0.00     0.131 H 
ATOM     47  H   H1S d 501      37.650   1.020  15.566  0.00  0.00     0.090 H 
ATOM     48  H   H1S d 501      40.720   4.699  16.938  0.00  0.00     0.097 H 
ATOM     49  H   H1S d 501      38.893   5.153  15.410  0.00  0.00     0.134 H 
ATOM     50  H   H1S d 501      36.818   0.648  14.132  0.00  0.00     0.212 HD
ATOM     51  H   H1S d 501      35.129   3.770  14.559  0.00  0.00     0.076 H 
ATOM     52  H   H1S d 501      33.209   2.715  10.701  0.00  0.00     0.231 HD
ATOM     53  H   H1S d 501      37.528   2.371  13.392  0.00  0.00     0.089 H 
ENDROOT
TORSDOF 16
ENDMDL
MODEL 55
REMARK VINA RESULT:      -7.7      3.810      7.055
REMARK  0 active torsions:
REMARK  status: ('A' for Active; 'I' for Inactive)
REMARK       I    between atoms: C1_1  and  O3_35 
REMARK       I    between atoms: O18_2  and  C12_24 
REMARK       I    between atoms: O18_2  and  S26_27 
REMARK       I    between atoms: S20_5  and  N14_19 
REMARK       I    between atoms: S20_5  and  O28_18 
REMARK       I    between atoms: S20_5  and  O29_7 
REMARK       I    between atoms: S20_5  and  O30_30 
REMARK       I    between atoms: C27_6  and  C19_33 
REMARK       I    between atoms: O9_8  and  C4_32 
REMARK       I    between atoms: S16_9  and  O11_10 
REMARK       I    between atoms: O11_10  and  C6_15 
REMARK       I    between atoms: O25_14  and  C17_17 
REMARK       I    between atoms: C6_15  and  C2_23 
REMARK       I    between atoms: N14_19  and  C8_29 
REMARK       I    between atoms: C10_22  and  O15_26 
REMARK       I    between atoms: C7_25  and  O3_35 
ROOT
ATOM      1  C1  H1S d 501      39.125   1.788  15.784  0.00  0.00     0.095 C 
ATOM      2  O18 H1S d 501      40.711   5.645  17.998  0.00  0.00    -0.244 OA
ATOM      3  O34 H1S d 501      35.998   5.757  16.139  0.00  0.00    -0.642 OA
ATOM      4  O35 H1S d 501      36.955   7.121  14.687  0.00  0.00    -0.642 OA
ATOM      5  S20 H1S d 501      35.044  -1.218  15.982  0.00  0.00     0.156 S 
ATOM      6  C27 H1S d 501      37.000   6.225  15.560  0.00  0.00     0.233 C 
ATOM      7  O29 H1S d 501      35.875  -1.941  17.000  0.00  0.00    -0.296 OA
ATOM      8  O9  H1S d 501      37.133   2.400  17.011  0.00  0.00    -0.391 OA
ATOM      9  S16 H1S d 501      43.067   0.002  13.351  0.00  0.00     0.251 S 
ATOM     10  O11 H1S d 501      41.656   0.104  13.562  0.00  0.00    -0.254 OA
ATOM     11  O32 H1S d 501      42.245   4.254  19.201  0.00  0.00    -0.572 OA
ATOM     12  O5  H1S d 501      39.138  -0.437  14.774  0.00  0.00    -0.350 OA
ATOM     13  O23 H1S d 501      43.330  -0.587  11.997  0.00  0.00    -0.572 OA
ATOM     14  O25 H1S d 501      41.390   4.840  14.514  0.00  0.00    -0.389 OA
ATOM     15  C6  H1S d 501      41.149   0.883  14.648  0.00  0.00     0.067 C 
ATOM     16  O21 H1S d 501      43.683   1.368  13.430  0.00  0.00    -0.572 OA
ATOM     17  C17 H1S d 501      40.905   5.633  15.602  0.00  0.00     0.086 C 
ATOM     18  O28 H1S d 501      35.072  -1.974  14.688  0.00  0.00    -0.296 OA
ATOM     19  N14 H1S d 501      35.634   0.285  15.749  0.00  0.00    -0.210 NA
ATOM     20  O31 H1S d 501      41.730   6.521  19.975  0.00  0.00    -0.572 OA
ATOM     21  C24 H1S d 501      39.500   6.142  15.271  0.00  0.00    -0.034 C 
ATOM     22  C10 H1S d 501      37.707  -0.479  14.669  0.00  0.00     0.147 C 
ATOM     23  C2  H1S d 501      39.620   0.909  14.632  0.00  0.00     0.091 C 
ATOM     24  C12 H1S d 501      40.846   4.776  16.869  0.00  0.00     0.135 C 
ATOM     25  C7  H1S d 501      39.607   3.879  16.807  0.00  0.00     0.167 C 
ATOM     26  O15 H1S d 501      37.303   0.114  13.431  0.00  0.00    -0.369 OA
ATOM     27  S26 H1S d 501      41.918   5.653  18.767  0.00  0.00     0.252 S 
ATOM     28  O22 H1S d 501      43.667  -0.879  14.407  0.00  0.00    -0.572 OA
ATOM     29  C8  H1S d 501      37.101   0.293  15.844  0.00  0.00     0.081 C 
ATOM     30  O30 H1S d 501      33.630  -1.117  16.472  0.00  0.00    -0.296 OA
ATOM     31  O13 H1S d 501      38.454   4.730  16.925  0.00  0.00    -0.311 OA
ATOM     32  C4  H1S d 501      37.594   1.741  15.828  0.00  0.00     0.083 C 
ATOM     33  C19 H1S d 501      38.374   5.666  15.939  0.00  0.00     0.147 C 
ATOM     34  O33 H1S d 501      43.042   6.196  17.935  0.00  0.00    -0.572 OA
ATOM     35  O3  H1S d 501      39.564   3.151  15.553  0.00  0.00    -0.348 OA
ATOM     36  H   H1S d 501      39.518   1.434  16.715  0.00  0.00     0.091 H 
ATOM     37  H   H1S d 501      36.789  -2.006  16.684  0.00  0.00     0.231 HD
ATOM     38  H   H1S d 501      37.442   3.320  17.010  0.00  0.00     0.210 HD
ATOM     39  H   H1S d 501      42.281   4.516  14.722  0.00  0.00     0.210 HD
ATOM     40  H   H1S d 501      41.518   1.885  14.564  0.00  0.00     0.080 H 
ATOM     41  H   H1S d 501      41.475   0.443  15.568  0.00  0.00     0.080 H 
ATOM     42  H   H1S d 501      41.562   6.463  15.761  0.00  0.00     0.093 H 
ATOM     43  H   H1S d 501      35.987  -2.040  14.371  0.00  0.00     0.231 HD
ATOM     44  H   H1S d 501      35.250   0.909  16.458  0.00  0.00     0.140 HD
ATOM     45  H   H1S d 501      39.385   6.856  14.535  0.00  0.00     0.085 H 
ATOM     46  H   H1S d 501      37.365  -1.493  14.696  0.00  0.00     0.131 H 
ATOM     47  H   H1S d 501      39.256   1.314  13.711  0.00  0.00     0.090 H 
ATOM     48  H   H1S d 501      41.731   4.182  16.950  0.00  0.00     0.097 H 
ATOM     49  H   H1S d 501      39.631   3.158  17.598  0.00  0.00     0.134 H 
ATOM     50  H   H1S d 501      37.609   1.034  13.399  0.00  0.00     0.212 HD
ATOM     51  H   H1S d 501      37.402  -0.178  16.755  0.00  0.00     0.076 H 
ATOM     52  H   H1S d 501      33.093  -0.649  15.813  0.00  0.00     0.231 HD
ATOM     53  H   H1S d 501      37.213   2.231  14.957  0.00  0.00     0.089 H 
ENDROOT
TORSDOF 16
ENDMDL
MODEL 56
REMARK VINA RESULT:      -7.5      3.323      7.843
REMARK  0 active torsions:
REMARK  status: ('A' for Active; 'I' for Inactive)
REMARK       I    between atoms: C1_1  and  O3_35 
REMARK       I    between atoms: O18_2  and  C12_24 
REMARK       I    between atoms: O18_2  and  S26_27 
REMARK       I    between atoms: S20_5  and  N14_19 
REMARK       I    between atoms: S20_5  and  O28_18 
REMARK       I    between atoms: S20_5  and  O29_7 
REMARK       I    between atoms: S20_5  and  O30_30 
REMARK       I    between atoms: C27_6  and  C19_33 
REMARK       I    between atoms: O9_8  and  C4_32 
REMARK       I    between atoms: S16_9  and  O11_10 
REMARK       I    between atoms: O11_10  and  C6_15 
REMARK       I    between atoms: O25_14  and  C17_17 
REMARK       I    between atoms: C6_15  and  C2_23 
REMARK       I    between atoms: N14_19  and  C8_29 
REMARK       I    between atoms: C10_22  and  O15_26 
REMARK       I    between atoms: C7_25  and  O3_35 
ROOT
ATOM      1  C1  H1S d 501      38.711   2.019  15.546  0.00  0.00     0.095 C 
ATOM      2  O18 H1S d 501      41.772  -1.162  17.224  0.00  0.00    -0.244 OA
ATOM      3  O34 H1S d 501      36.931  -2.574  16.725  0.00  0.00    -0.642 OA
ATOM      4  O35 H1S d 501      37.011  -2.454  18.930  0.00  0.00    -0.642 OA
ATOM      5  S20 H1S d 501      35.192   2.251  11.901  0.00  0.00     0.156 S 
ATOM      6  C27 H1S d 501      37.448  -2.179  17.790  0.00  0.00     0.233 C 
ATOM      7  O29 H1S d 501      36.363   2.698  11.078  0.00  0.00    -0.296 OA
ATOM      8  O9  H1S d 501      37.924   0.047  14.389  0.00  0.00    -0.391 OA
ATOM      9  S16 H1S d 501      40.194   6.351  17.465  0.00  0.00     0.251 S 
ATOM     10  O11 H1S d 501      39.206   5.514  16.857  0.00  0.00    -0.254 OA
ATOM     11  O32 H1S d 501      43.528   0.024  16.109  0.00  0.00    -0.572 OA
ATOM     12  O5  H1S d 501      37.844   4.162  14.755  0.00  0.00    -0.350 OA
ATOM     13  O23 H1S d 501      39.531   7.555  18.064  0.00  0.00    -0.572 OA
ATOM     14  O25 H1S d 501      40.156   1.407  19.234  0.00  0.00    -0.389 OA
ATOM     15  C6  H1S d 501      39.541   4.180  16.465  0.00  0.00     0.067 C 
ATOM     16  O21 H1S d 501      40.904   5.585  18.541  0.00  0.00    -0.572 OA
ATOM     17  C17 H1S d 501      40.512   0.074  18.857  0.00  0.00     0.086 C 
ATOM     18  O28 H1S d 501      34.355   3.442  12.264  0.00  0.00    -0.296 OA
ATOM     19  N14 H1S d 501      35.716   1.519  13.261  0.00  0.00    -0.210 NA
ATOM     20  O31 H1S d 501      43.861  -2.273  16.891  0.00  0.00    -0.572 OA
ATOM     21  C24 H1S d 501      39.261  -0.808  18.874  0.00  0.00    -0.034 C 
ATOM     22  C10 H1S d 501      36.635   3.572  14.254  0.00  0.00     0.147 C 
ATOM     23  C2  H1S d 501      38.315   3.452  15.912  0.00  0.00     0.091 C 
ATOM     24  C12 H1S d 501      41.103   0.084  17.445  0.00  0.00     0.135 C 
ATOM     25  C7  H1S d 501      39.965   0.201  16.428  0.00  0.00     0.167 C 
ATOM     26  O15 H1S d 501      35.659   3.527  15.298  0.00  0.00    -0.369 OA
ATOM     27  S26 H1S d 501      43.189  -0.966  17.185  0.00  0.00     0.252 S 
ATOM     28  O22 H1S d 501      41.184   6.789  16.425  0.00  0.00    -0.572 OA
ATOM     29  C8  H1S d 501      36.943   2.155  13.761  0.00  0.00     0.081 C 
ATOM     30  O30 H1S d 501      34.366   1.281  11.110  0.00  0.00    -0.296 OA
ATOM     31  O13 H1S d 501      39.223  -1.029  16.471  0.00  0.00    -0.311 OA
ATOM     32  C4  H1S d 501      37.511   1.315  14.906  0.00  0.00     0.083 C 
ATOM     33  C19 H1S d 501      38.696  -1.298  17.698  0.00  0.00     0.147 C 
ATOM     34  O33 H1S d 501      43.664  -0.449  18.511  0.00  0.00    -0.572 OA
ATOM     35  O3  H1S d 501      39.098   1.318  16.756  0.00  0.00    -0.348 OA
ATOM     36  H   H1S d 501      39.529   2.025  14.855  0.00  0.00     0.091 H 
ATOM     37  H   H1S d 501      36.898   3.325  11.589  0.00  0.00     0.231 HD
ATOM     38  H   H1S d 501      38.286  -0.494  15.109  0.00  0.00     0.210 HD
ATOM     39  H   H1S d 501      40.948   1.968  19.224  0.00  0.00     0.210 HD
ATOM     40  H   H1S d 501      39.913   3.647  17.315  0.00  0.00     0.080 H 
ATOM     41  H   H1S d 501      40.287   4.226  15.699  0.00  0.00     0.080 H 
ATOM     42  H   H1S d 501      41.235  -0.312  19.545  0.00  0.00     0.093 H 
ATOM     43  H   H1S d 501      34.890   4.069  12.774  0.00  0.00     0.231 HD
ATOM     44  H   H1S d 501      35.907   0.537  13.060  0.00  0.00     0.140 HD
ATOM     45  H   H1S d 501      38.825  -1.045  19.779  0.00  0.00     0.085 H 
ATOM     46  H   H1S d 501      36.250   4.155  13.443  0.00  0.00     0.131 H 
ATOM     47  H   H1S d 501      37.533   3.415  16.641  0.00  0.00     0.090 H 
ATOM     48  H   H1S d 501      41.782   0.904  17.339  0.00  0.00     0.097 H 
ATOM     49  H   H1S d 501      40.359   0.375  15.448  0.00  0.00     0.134 H 
ATOM     50  H   H1S d 501      36.000   3.000  16.038  0.00  0.00     0.212 HD
ATOM     51  H   H1S d 501      37.661   2.216  12.971  0.00  0.00     0.076 H 
ATOM     52  H   H1S d 501      33.609   0.992  11.643  0.00  0.00     0.231 HD
ATOM     53  H   H1S d 501      36.755   1.183  15.652  0.00  0.00     0.089 H 
ENDROOT
TORSDOF 16
ENDMDL
MODEL 57
REMARK VINA RESULT:      -7.5      3.284      6.940
REMARK  0 active torsions:
REMARK  status: ('A' for Active; 'I' for Inactive)
REMARK       I    between atoms: C1_1  and  O3_35 
REMARK       I    between atoms: O18_2  and  C12_24 
REMARK       I    between atoms: O18_2  and  S26_27 
REMARK       I    between atoms: S20_5  and  N14_19 
REMARK       I    between atoms: S20_5  and  O28_18 
REMARK       I    between atoms: S20_5  and  O29_7 
REMARK       I    between atoms: S20_5  and  O30_30 
REMARK       I    between atoms: C27_6  and  C19_33 
REMARK       I    between atoms: O9_8  and  C4_32 
REMARK       I    between atoms: S16_9  and  O11_10 
REMARK       I    between atoms: O11_10  and  C6_15 
REMARK       I    between atoms: O25_14  and  C17_17 
REMARK       I    between atoms: C6_15  and  C2_23 
REMARK       I    between atoms: N14_19  and  C8_29 
REMARK       I    between atoms: C10_22  and  O15_26 
REMARK       I    between atoms: C7_25  and  O3_35 
ROOT
ATOM      1  C1  H1S d 501      38.108   2.131  14.737  0.00  0.00     0.095 C 
ATOM      2  O18 H1S d 501      38.760  -0.046  18.876  0.00  0.00    -0.244 OA
ATOM      3  O34 H1S d 501      35.858  -2.355  15.422  0.00  0.00    -0.642 OA
ATOM      4  O35 H1S d 501      34.270  -1.766  16.843  0.00  0.00    -0.642 OA
ATOM      5  S20 H1S d 501      38.499   0.982   9.813  0.00  0.00     0.156 S 
ATOM      6  C27 H1S d 501      35.423  -1.662  16.365  0.00  0.00     0.233 C 
ATOM      7  O29 H1S d 501      39.910   1.444  10.023  0.00  0.00    -0.296 OA
ATOM      8  O9  H1S d 501      38.368  -0.145  13.963  0.00  0.00    -0.391 OA
ATOM      9  S16 H1S d 501      37.839   6.958  15.864  0.00  0.00     0.251 S 
ATOM     10  O11 H1S d 501      37.601   5.854  14.987  0.00  0.00    -0.254 OA
ATOM     11  O32 H1S d 501      40.807   1.169  19.128  0.00  0.00    -0.572 OA
ATOM     12  O5  H1S d 501      38.209   3.878  13.031  0.00  0.00    -0.350 OA
ATOM     13  O23 H1S d 501      37.000   8.126  15.438  0.00  0.00    -0.572 OA
ATOM     14  O25 H1S d 501      36.292   2.563  18.283  0.00  0.00    -0.389 OA
ATOM     15  C6  H1S d 501      38.062   4.547  15.341  0.00  0.00     0.067 C 
ATOM     16  O21 H1S d 501      37.477   6.569  17.266  0.00  0.00    -0.572 OA
ATOM     17  C17 H1S d 501      36.755   1.262  18.661  0.00  0.00     0.086 C 
ATOM     18  O28 H1S d 501      37.721   2.057   9.114  0.00  0.00    -0.296 OA
ATOM     19  N14 H1S d 501      37.802   0.651  11.250  0.00  0.00    -0.210 NA
ATOM     20  O31 H1S d 501      40.351  -0.821  20.482  0.00  0.00    -0.572 OA
ATOM     21  C24 H1S d 501      35.875   0.199  18.000  0.00  0.00    -0.034 C 
ATOM     22  C10 H1S d 501      37.756   2.994  11.994  0.00  0.00     0.147 C 
ATOM     23  C2  H1S d 501      37.630   3.517  14.296  0.00  0.00     0.091 C 
ATOM     24  C12 H1S d 501      38.201   1.082  18.195  0.00  0.00     0.135 C 
ATOM     25  C7  H1S d 501      38.209   0.784  16.694  0.00  0.00     0.167 C 
ATOM     26  O15 H1S d 501      36.326   2.998  11.957  0.00  0.00    -0.369 OA
ATOM     27  S26 H1S d 501      39.739   0.381  19.828  0.00  0.00     0.252 S 
ATOM     28  O22 H1S d 501      39.290   7.336  15.808  0.00  0.00    -0.572 OA
ATOM     29  C8  H1S d 501      38.270   1.582  12.286  0.00  0.00     0.081 C 
ATOM     30  O30 H1S d 501      38.500  -0.261   8.972  0.00  0.00    -0.296 OA
ATOM     31  O13 H1S d 501      37.633  -0.521  16.512  0.00  0.00    -0.311 OA
ATOM     32  C4  H1S d 501      37.759   1.111  13.649  0.00  0.00     0.083 C 
ATOM     33  C19 H1S d 501      36.357  -0.616  16.977  0.00  0.00     0.147 C 
ATOM     34  O33 H1S d 501      39.086   1.238  20.873  0.00  0.00    -0.572 OA
ATOM     35  O3  H1S d 501      37.433   1.776  15.971  0.00  0.00    -0.348 OA
ATOM     36  H   H1S d 501      39.167   2.136  14.892  0.00  0.00     0.091 H 
ATOM     37  H   H1S d 501      39.909   2.248  10.565  0.00  0.00     0.231 HD
ATOM     38  H   H1S d 501      38.049  -0.452  14.826  0.00  0.00     0.210 HD
ATOM     39  H   H1S d 501      36.848   3.238  18.702  0.00  0.00     0.210 HD
ATOM     40  H   H1S d 501      37.653   4.276  16.291  0.00  0.00     0.080 H 
ATOM     41  H   H1S d 501      39.131   4.562  15.386  0.00  0.00     0.080 H 
ATOM     42  H   H1S d 501      36.706   1.161  19.726  0.00  0.00     0.093 H 
ATOM     43  H   H1S d 501      37.720   2.860   9.656  0.00  0.00     0.231 HD
ATOM     44  H   H1S d 501      38.039  -0.302  11.524  0.00  0.00     0.140 HD
ATOM     45  H   H1S d 501      34.900   0.083  18.319  0.00  0.00     0.085 H 
ATOM     46  H   H1S d 501      38.129   3.319  11.044  0.00  0.00     0.131 H 
ATOM     47  H   H1S d 501      36.565   3.497  14.198  0.00  0.00     0.090 H 
ATOM     48  H   H1S d 501      38.765   1.967  18.401  0.00  0.00     0.097 H 
ATOM     49  H   H1S d 501      39.209   0.816  16.313  0.00  0.00     0.134 H 
ATOM     50  H   H1S d 501      35.980   2.704  12.814  0.00  0.00     0.212 HD
ATOM     51  H   H1S d 501      39.340   1.602  12.292  0.00  0.00     0.076 H 
ATOM     52  H   H1S d 501      37.587  -0.560   8.837  0.00  0.00     0.231 HD
ATOM     53  H   H1S d 501      36.696   1.007  13.607  0.00  0.00     0.089 H 
ENDROOT
TORSDOF 16
ENDMDL
MODEL 58
REMARK VINA RESULT:      -7.4      3.164      4.999
REMARK  0 active torsions:
REMARK  status: ('A' for Active; 'I' for Inactive)
REMARK       I    between atoms: C1_1  and  O3_35 
REMARK       I    between atoms: O18_2  and  C12_24 
REMARK       I    between atoms: O18_2  and  S26_27 
REMARK       I    between atoms: S20_5  and  N14_19 
REMARK       I    between atoms: S20_5  and  O28_18 
REMARK       I    between atoms: S20_5  and  O29_7 
REMARK       I    between atoms: S20_5  and  O30_30 
REMARK       I    between atoms: C27_6  and  C19_33 
REMARK       I    between atoms: O9_8  and  C4_32 
REMARK       I    between atoms: S16_9  and  O11_10 
REMARK       I    between atoms: O11_10  and  C6_15 
REMARK       I    between atoms: O25_14  and  C17_17 
REMARK       I    between atoms: C6_15  and  C2_23 
REMARK       I    between atoms: N14_19  and  C8_29 
REMARK       I    between atoms: C10_22  and  O15_26 
REMARK       I    between atoms: C7_25  and  O3_35 
ROOT
ATOM      1  C1  H1S d 501      39.031   2.754  16.036  0.00  0.00     0.095 C 
ATOM      2  O18 H1S d 501      35.439  -0.300  16.301  0.00  0.00    -0.244 OA
ATOM      3  O34 H1S d 501      39.173  -0.741  19.699  0.00  0.00    -0.642 OA
ATOM      4  O35 H1S d 501      39.617  -2.536  18.489  0.00  0.00    -0.642 OA
ATOM      5  S20 H1S d 501      41.513   5.878  19.166  0.00  0.00     0.156 S 
ATOM      6  C27 H1S d 501      39.082  -1.417  18.654  0.00  0.00     0.233 C 
ATOM      7  O29 H1S d 501      40.447   6.838  18.730  0.00  0.00    -0.296 OA
ATOM      8  O9  H1S d 501      38.756   2.657  18.436  0.00  0.00    -0.391 OA
ATOM      9  S16 H1S d 501      39.724   3.489  11.175  0.00  0.00     0.251 S 
ATOM     10  O11 H1S d 501      40.172   3.531  12.533  0.00  0.00    -0.254 OA
ATOM     11  O32 H1S d 501      34.059   1.315  15.196  0.00  0.00    -0.572 OA
ATOM     12  O5  H1S d 501      40.446   4.551  15.176  0.00  0.00    -0.350 OA
ATOM     13  O23 H1S d 501      40.901   3.614  10.254  0.00  0.00    -0.572 OA
ATOM     14  O25 H1S d 501      38.288  -0.655  14.063  0.00  0.00    -0.389 OA
ATOM     15  C6  H1S d 501      39.287   3.155  13.591  0.00  0.00     0.067 C 
ATOM     16  O21 H1S d 501      39.026   2.185  10.920  0.00  0.00    -0.572 OA
ATOM     17  C17 H1S d 501      37.387  -1.043  15.105  0.00  0.00     0.086 C 
ATOM     18  O28 H1S d 501      42.791   6.192  18.447  0.00  0.00    -0.296 OA
ATOM     19  N14 H1S d 501      41.058   4.349  18.827  0.00  0.00    -0.210 NA
ATOM     20  O31 H1S d 501      33.066  -0.569  16.407  0.00  0.00    -0.572 OA
ATOM     21  C24 H1S d 501      38.190  -1.557  16.303  0.00  0.00    -0.034 C 
ATOM     22  C10 H1S d 501      41.208   4.632  16.389  0.00  0.00     0.147 C 
ATOM     23  C2  H1S d 501      40.003   3.204  14.942  0.00  0.00     0.091 C 
ATOM     24  C12 H1S d 501      36.556   0.167  15.537  0.00  0.00     0.135 C 
ATOM     25  C7  H1S d 501      37.409   1.063  16.438  0.00  0.00     0.167 C 
ATOM     26  O15 H1S d 501      42.297   3.705  16.330  0.00  0.00    -0.369 OA
ATOM     27  S26 H1S d 501      34.225  -0.131  15.563  0.00  0.00     0.252 S 
ATOM     28  O22 H1S d 501      38.772   4.622  10.929  0.00  0.00    -0.572 OA
ATOM     29  C8  H1S d 501      40.296   4.295  17.572  0.00  0.00     0.081 C 
ATOM     30  O30 H1S d 501      41.727   6.007  20.646  0.00  0.00    -0.296 OA
ATOM     31  O13 H1S d 501      37.628   0.351  17.668  0.00  0.00    -0.311 OA
ATOM     32  C4  H1S d 501      39.714   2.891  17.400  0.00  0.00     0.083 C 
ATOM     33  C19 H1S d 501      38.265  -0.839  17.495  0.00  0.00     0.147 C 
ATOM     34  O33 H1S d 501      34.274  -0.962  14.315  0.00  0.00    -0.572 OA
ATOM     35  O3  H1S d 501      38.679   1.366  15.805  0.00  0.00    -0.348 OA
ATOM     36  H   H1S d 501      38.148   3.359  16.019  0.00  0.00     0.091 H 
ATOM     37  H   H1S d 501      40.309   6.755  17.774  0.00  0.00     0.231 HD
ATOM     38  H   H1S d 501      38.381   1.767  18.336  0.00  0.00     0.210 HD
ATOM     39  H   H1S d 501      37.781  -0.329  13.303  0.00  0.00     0.210 HD
ATOM     40  H   H1S d 501      38.934   2.159  13.417  0.00  0.00     0.080 H 
ATOM     41  H   H1S d 501      38.467   3.842  13.612  0.00  0.00     0.080 H 
ATOM     42  H   H1S d 501      36.738  -1.815  14.748  0.00  0.00     0.093 H 
ATOM     43  H   H1S d 501      42.653   6.109  17.491  0.00  0.00     0.231 HD
ATOM     44  H   H1S d 501      40.475   3.998  19.587  0.00  0.00     0.140 HD
ATOM     45  H   H1S d 501      38.688  -2.458  16.225  0.00  0.00     0.085 H 
ATOM     46  H   H1S d 501      41.601   5.620  16.513  0.00  0.00     0.131 H 
ATOM     47  H   H1S d 501      40.851   2.552  14.947  0.00  0.00     0.090 H 
ATOM     48  H   H1S d 501      36.227   0.710  14.677  0.00  0.00     0.097 H 
ATOM     49  H   H1S d 501      36.909   1.992  16.619  0.00  0.00     0.134 H 
ATOM     50  H   H1S d 501      41.949   2.806  16.218  0.00  0.00     0.212 HD
ATOM     51  H   H1S d 501      39.501   5.011  17.605  0.00  0.00     0.076 H 
ATOM     52  H   H1S d 501      42.416   5.387  20.928  0.00  0.00     0.231 HD
ATOM     53  H   H1S d 501      40.506   2.175  17.458  0.00  0.00     0.089 H 
ENDROOT
TORSDOF 16
ENDMDL
MODEL 59
REMARK VINA RESULT:      -7.4      4.850      7.886
REMARK  0 active torsions:
REMARK  status: ('A' for Active; 'I' for Inactive)
REMARK       I    between atoms: C1_1  and  O3_35 
REMARK       I    between atoms: O18_2  and  C12_24 
REMARK       I    between atoms: O18_2  and  S26_27 
REMARK       I    between atoms: S20_5  and  N14_19 
REMARK       I    between atoms: S20_5  and  O28_18 
REMARK       I    between atoms: S20_5  and  O29_7 
REMARK       I    between atoms: S20_5  and  O30_30 
REMARK       I    between atoms: C27_6  and  C19_33 
REMARK       I    between atoms: O9_8  and  C4_32 
REMARK       I    between atoms: S16_9  and  O11_10 
REMARK       I    between atoms: O11_10  and  C6_15 
REMARK       I    between atoms: O25_14  and  C17_17 
REMARK       I    between atoms: C6_15  and  C2_23 
REMARK       I    between atoms: N14_19  and  C8_29 
REMARK       I    between atoms: C10_22  and  O15_26 
REMARK       I    between atoms: C7_25  and  O3_35 
ROOT
ATOM      1  C1  H1S d 501      39.394   4.686  14.493  0.00  0.00     0.095 C 
ATOM      2  O18 H1S d 501      40.398   1.073  11.623  0.00  0.00    -0.244 OA
ATOM      3  O34 H1S d 501      44.090   4.400  12.617  0.00  0.00    -0.642 OA
ATOM      4  O35 H1S d 501      43.692   4.969  10.519  0.00  0.00    -0.642 OA
ATOM      5  S20 H1S d 501      41.375   6.816  18.647  0.00  0.00     0.156 S 
ATOM      6  C27 H1S d 501      43.369   4.424  11.598  0.00  0.00     0.233 C 
ATOM      7  O29 H1S d 501      40.502   5.809  19.335  0.00  0.00    -0.296 OA
ATOM      8  O9  H1S d 501      41.613   4.143  15.284  0.00  0.00    -0.391 OA
ATOM      9  S16 H1S d 501      34.713   5.924  13.395  0.00  0.00     0.251 S 
ATOM     10  O11 H1S d 501      35.996   6.217  13.955  0.00  0.00    -0.254 OA
ATOM     11  O32 H1S d 501      38.631  -0.166  12.658  0.00  0.00    -0.572 OA
ATOM     12  O5  H1S d 501      38.080   6.197  15.894  0.00  0.00    -0.350 OA
ATOM     13  O23 H1S d 501      33.942   7.197  13.213  0.00  0.00    -0.572 OA
ATOM     14  O25 H1S d 501      38.770   4.154  10.570  0.00  0.00    -0.389 OA
ATOM     15  C6  H1S d 501      37.018   5.217  13.966  0.00  0.00     0.067 C 
ATOM     16  O21 H1S d 501      34.891   5.253  12.065  0.00  0.00    -0.572 OA
ATOM     17  C17 H1S d 501      39.780   3.140  10.563  0.00  0.00     0.086 C 
ATOM     18  O28 H1S d 501      40.731   8.168  18.720  0.00  0.00    -0.296 OA
ATOM     19  N14 H1S d 501      41.585   6.394  17.086  0.00  0.00    -0.210 NA
ATOM     20  O31 H1S d 501      40.346  -1.297  11.323  0.00  0.00    -0.572 OA
ATOM     21  C24 H1S d 501      41.160   3.801  10.561  0.00  0.00    -0.034 C 
ATOM     22  C10 H1S d 501      39.249   6.819  16.448  0.00  0.00     0.147 C 
ATOM     23  C2  H1S d 501      38.320   5.777  14.541  0.00  0.00     0.091 C 
ATOM     24  C12 H1S d 501      39.638   2.271  11.814  0.00  0.00     0.135 C 
ATOM     25  C7  H1S d 501      40.225   3.022  13.012  0.00  0.00     0.167 C 
ATOM     26  O15 H1S d 501      39.655   7.903  15.607  0.00  0.00    -0.369 OA
ATOM     27  S26 H1S d 501      39.526  -0.049  11.460  0.00  0.00     0.252 S 
ATOM     28  O22 H1S d 501      33.962   5.011  14.319  0.00  0.00    -0.572 OA
ATOM     29  C8  H1S d 501      40.368   5.778  16.541  0.00  0.00     0.081 C 
ATOM     30  O30 H1S d 501      42.713   6.862  19.325  0.00  0.00    -0.296 OA
ATOM     31  O13 H1S d 501      41.647   3.098  12.817  0.00  0.00    -0.311 OA
ATOM     32  C4  H1S d 501      40.672   5.213  15.152  0.00  0.00     0.083 C 
ATOM     33  C19 H1S d 501      41.999   3.745  11.672  0.00  0.00     0.147 C 
ATOM     34  O33 H1S d 501      38.692   0.135  10.227  0.00  0.00    -0.572 OA
ATOM     35  O3  H1S d 501      39.662   4.356  13.106  0.00  0.00    -0.348 OA
ATOM     36  H   H1S d 501      39.059   3.813  15.014  0.00  0.00     0.091 H 
ATOM     37  H   H1S d 501      39.637   5.779  18.898  0.00  0.00     0.231 HD
ATOM     38  H   H1S d 501      41.813   3.778  14.407  0.00  0.00     0.210 HD
ATOM     39  H   H1S d 501      37.894   3.736  10.571  0.00  0.00     0.210 HD
ATOM     40  H   H1S d 501      37.192   4.881  12.964  0.00  0.00     0.080 H 
ATOM     41  H   H1S d 501      36.694   4.403  14.580  0.00  0.00     0.080 H 
ATOM     42  H   H1S d 501      39.670   2.532   9.689  0.00  0.00     0.093 H 
ATOM     43  H   H1S d 501      39.866   8.137  18.282  0.00  0.00     0.231 HD
ATOM     44  H   H1S d 501      42.355   5.729  17.020  0.00  0.00     0.140 HD
ATOM     45  H   H1S d 501      41.478   4.301   9.715  0.00  0.00     0.085 H 
ATOM     46  H   H1S d 501      39.035   7.199  17.426  0.00  0.00     0.131 H 
ATOM     47  H   H1S d 501      38.659   6.616  13.970  0.00  0.00     0.090 H 
ATOM     48  H   H1S d 501      38.608   2.044  11.986  0.00  0.00     0.097 H 
ATOM     49  H   H1S d 501      39.992   2.508  13.922  0.00  0.00     0.134 H 
ATOM     50  H   H1S d 501      39.851   7.566  14.718  0.00  0.00     0.212 HD
ATOM     51  H   H1S d 501      40.047   4.988  17.187  0.00  0.00     0.076 H 
ATOM     52  H   H1S d 501      43.278   7.513  18.880  0.00  0.00     0.231 HD
ATOM     53  H   H1S d 501      41.077   5.990  14.539  0.00  0.00     0.089 H 
ENDROOT
TORSDOF 16
ENDMDL
MODEL 60
REMARK VINA RESULT:      -7.4      4.013      6.352
REMARK  0 active torsions:
REMARK  status: ('A' for Active; 'I' for Inactive)
REMARK       I    between atoms: C1_1  and  O3_35 
REMARK       I    between atoms: O18_2  and  C12_24 
REMARK       I    between atoms: O18_2  and  S26_27 
REMARK       I    between atoms: S20_5  and  N14_19 
REMARK       I    between atoms: S20_5  and  O28_18 
REMARK       I    between atoms: S20_5  and  O29_7 
REMARK       I    between atoms: S20_5  and  O30_30 
REMARK       I    between atoms: C27_6  and  C19_33 
REMARK       I    between atoms: O9_8  and  C4_32 
REMARK       I    between atoms: S16_9  and  O11_10 
REMARK       I    between atoms: O11_10  and  C6_15 
REMARK       I    between atoms: O25_14  and  C17_17 
REMARK       I    between atoms: C6_15  and  C2_23 
REMARK       I    between atoms: N14_19  and  C8_29 
REMARK       I    between atoms: C10_22  and  O15_26 
REMARK       I    between atoms: C7_25  and  O3_35 
ROOT
ATOM      1  C1  H1S d 501      38.973   1.802  15.316  0.00  0.00     0.095 C 
ATOM      2  O18 H1S d 501      39.891   1.906  10.685  0.00  0.00    -0.244 OA
ATOM      3  O34 H1S d 501      42.500  -1.370  13.539  0.00  0.00    -0.642 OA
ATOM      4  O35 H1S d 501      44.125   0.068  13.124  0.00  0.00    -0.642 OA
ATOM      5  S20 H1S d 501      37.856  -1.688  18.822  0.00  0.00     0.156 S 
ATOM      6  C27 H1S d 501      42.915  -0.246  13.191  0.00  0.00     0.233 C 
ATOM      7  O29 H1S d 501      36.454  -1.391  18.382  0.00  0.00    -0.296 OA
ATOM      8  O9  H1S d 501      39.208  -0.567  14.895  0.00  0.00    -0.391 OA
ATOM      9  S16 H1S d 501      38.099   6.530  16.550  0.00  0.00     0.251 S 
ATOM     10  O11 H1S d 501      38.443   5.183  16.885  0.00  0.00    -0.254 OA
ATOM     11  O32 H1S d 501      37.690   2.777  10.327  0.00  0.00    -0.572 OA
ATOM     12  O5  H1S d 501      38.009   2.432  17.471  0.00  0.00    -0.350 OA
ATOM     13  O23 H1S d 501      38.456   7.438  17.689  0.00  0.00    -0.572 OA
ATOM     14  O25 H1S d 501      41.323   4.197  13.125  0.00  0.00    -0.389 OA
ATOM     15  C6  H1S d 501      38.461   4.176  15.871  0.00  0.00     0.067 C 
ATOM     16  O21 H1S d 501      38.855   6.947  15.323  0.00  0.00    -0.572 OA
ATOM     17  C17 H1S d 501      41.343   3.207  12.092  0.00  0.00     0.086 C 
ATOM     18  O28 H1S d 501      38.124  -1.005  20.130  0.00  0.00    -0.296 OA
ATOM     19  N14 H1S d 501      38.915  -1.156  17.702  0.00  0.00    -0.210 NA
ATOM     20  O31 H1S d 501      38.978   1.814   8.478  0.00  0.00    -0.572 OA
ATOM     21  C24 H1S d 501      42.322   2.095  12.476  0.00  0.00    -0.034 C 
ATOM     22  C10 H1S d 501      38.455   1.225  18.107  0.00  0.00     0.147 C 
ATOM     23  C2  H1S d 501      38.929   2.836  16.444  0.00  0.00     0.091 C 
ATOM     24  C12 H1S d 501      39.943   2.612  11.929  0.00  0.00     0.135 C 
ATOM     25  C7  H1S d 501      39.691   1.609  13.058  0.00  0.00     0.167 C 
ATOM     26  O15 H1S d 501      39.781   1.416  18.611  0.00  0.00    -0.369 OA
ATOM     27  S26 H1S d 501      39.065   2.605   9.749  0.00  0.00     0.252 S 
ATOM     28  O22 H1S d 501      36.625   6.617  16.283  0.00  0.00    -0.572 OA
ATOM     29  C8  H1S d 501      38.441   0.089  17.081  0.00  0.00     0.081 C 
ATOM     30  O30 H1S d 501      38.024  -3.170  18.988  0.00  0.00    -0.296 OA
ATOM     31  O13 H1S d 501      40.560   0.486  12.834  0.00  0.00    -0.311 OA
ATOM     32  C4  H1S d 501      39.351   0.438  15.902  0.00  0.00     0.083 C 
ATOM     33  C19 H1S d 501      41.880   0.819  12.823  0.00  0.00     0.147 C 
ATOM     34  O33 H1S d 501      39.659   3.951   9.458  0.00  0.00    -0.572 OA
ATOM     35  O3  H1S d 501      39.975   2.210  14.348  0.00  0.00    -0.348 OA
ATOM     36  H   H1S d 501      38.018   1.731  14.840  0.00  0.00     0.091 H 
ATOM     37  H   H1S d 501      36.345  -0.434  18.274  0.00  0.00     0.231 HD
ATOM     38  H   H1S d 501      39.782  -0.355  14.142  0.00  0.00     0.210 HD
ATOM     39  H   H1S d 501      40.703   4.903  12.883  0.00  0.00     0.210 HD
ATOM     40  H   H1S d 501      39.129   4.475  15.090  0.00  0.00     0.080 H 
ATOM     41  H   H1S d 501      37.470   4.057  15.487  0.00  0.00     0.080 H 
ATOM     42  H   H1S d 501      41.651   3.657  11.171  0.00  0.00     0.093 H 
ATOM     43  H   H1S d 501      38.014  -0.047  20.023  0.00  0.00     0.231 HD
ATOM     44  H   H1S d 501      39.026  -1.868  16.981  0.00  0.00     0.140 HD
ATOM     45  H   H1S d 501      43.335   2.294  12.478  0.00  0.00     0.085 H 
ATOM     46  H   H1S d 501      37.807   0.977  18.922  0.00  0.00     0.131 H 
ATOM     47  H   H1S d 501      39.907   2.924  16.867  0.00  0.00     0.090 H 
ATOM     48  H   H1S d 501      39.210   3.391  11.954  0.00  0.00     0.097 H 
ATOM     49  H   H1S d 501      38.666   1.304  13.062  0.00  0.00     0.134 H 
ATOM     50  H   H1S d 501      40.375   1.641  17.878  0.00  0.00     0.212 HD
ATOM     51  H   H1S d 501      37.438  -0.045  16.733  0.00  0.00     0.076 H 
ATOM     52  H   H1S d 501      38.931  -3.362  19.273  0.00  0.00     0.231 HD
ATOM     53  H   H1S d 501      40.364   0.481  16.243  0.00  0.00     0.089 H 
ENDROOT
TORSDOF 16
ENDMDL
MODEL 61
REMARK VINA RESULT:      -7.4      2.029      6.264
REMARK  0 active torsions:
REMARK  status: ('A' for Active; 'I' for Inactive)
REMARK       I    between atoms: C1_1  and  O3_35 
REMARK       I    between atoms: O18_2  and  C12_24 
REMARK       I    between atoms: O18_2  and  S26_27 
REMARK       I    between atoms: S20_5  and  N14_19 
REMARK       I    between atoms: S20_5  and  O28_18 
REMARK       I    between atoms: S20_5  and  O29_7 
REMARK       I    between atoms: S20_5  and  O30_30 
REMARK       I    between atoms: C27_6  and  C19_33 
REMARK       I    between atoms: O9_8  and  C4_32 
REMARK       I    between atoms: S16_9  and  O11_10 
REMARK       I    between atoms: O11_10  and  C6_15 
REMARK       I    between atoms: O25_14  and  C17_17 
REMARK       I    between atoms: C6_15  and  C2_23 
REMARK       I    between atoms: N14_19  and  C8_29 
REMARK       I    between atoms: C10_22  and  O15_26 
REMARK       I    between atoms: C7_25  and  O3_35 
ROOT
ATOM      1  C1  H1S d 501      37.005   0.719  14.703  0.00  0.00     0.095 C 
ATOM      2  O18 H1S d 501      38.945   1.908  10.565  0.00  0.00    -0.244 OA
ATOM      3  O34 H1S d 501      41.515   3.024  14.788  0.00  0.00    -0.642 OA
ATOM      4  O35 H1S d 501      40.902   5.071  14.227  0.00  0.00    -0.642 OA
ATOM      5  S20 H1S d 501      38.394  -1.764  18.901  0.00  0.00     0.156 S 
ATOM      6  C27 H1S d 501      40.788   3.826  14.167  0.00  0.00     0.233 C 
ATOM      7  O29 H1S d 501      37.880  -2.944  18.131  0.00  0.00    -0.296 OA
ATOM      8  O9  H1S d 501      39.309   0.140  15.153  0.00  0.00    -0.391 OA
ATOM      9  S16 H1S d 501      32.136   1.472  14.091  0.00  0.00     0.251 S 
ATOM     10  O11 H1S d 501      33.291   1.302  14.917  0.00  0.00    -0.254 OA
ATOM     11  O32 H1S d 501      37.657   0.176   9.529  0.00  0.00    -0.572 OA
ATOM     12  O5  H1S d 501      35.346  -0.100  16.300  0.00  0.00    -0.350 OA
ATOM     13  O23 H1S d 501      31.017   2.050  14.906  0.00  0.00    -0.572 OA
ATOM     14  O25 H1S d 501      36.445   3.891  12.317  0.00  0.00    -0.389 OA
ATOM     15  C6  H1S d 501      34.563   1.033  14.323  0.00  0.00     0.067 C 
ATOM     16  O21 H1S d 501      32.463   2.402  12.961  0.00  0.00    -0.572 OA
ATOM     17  C17 H1S d 501      37.710   3.630  11.700  0.00  0.00     0.086 C 
ATOM     18  O28 H1S d 501      37.381  -1.359  19.929  0.00  0.00    -0.296 OA
ATOM     19  N14 H1S d 501      38.671  -0.517  17.887  0.00  0.00    -0.210 NA
ATOM     20  O31 H1S d 501      39.588   1.162   8.387  0.00  0.00    -0.572 OA
ATOM     21  C24 H1S d 501      38.832   4.133  12.611  0.00  0.00    -0.034 C 
ATOM     22  C10 H1S d 501      36.295  -0.143  17.376  0.00  0.00     0.147 C 
ATOM     23  C2  H1S d 501      35.658   0.967  15.388  0.00  0.00     0.091 C 
ATOM     24  C12 H1S d 501      37.871   2.123  11.486  0.00  0.00     0.135 C 
ATOM     25  C7  H1S d 501      38.245   1.467  12.817  0.00  0.00     0.167 C 
ATOM     26  O15 H1S d 501      36.336   1.131  18.025  0.00  0.00    -0.369 OA
ATOM     27  S26 H1S d 501      38.440   1.438   9.311  0.00  0.00     0.252 S 
ATOM     28  O22 H1S d 501      31.718   0.141  13.539  0.00  0.00    -0.572 OA
ATOM     29  C8  H1S d 501      37.675  -0.488  16.807  0.00  0.00     0.081 C 
ATOM     30  O30 H1S d 501      39.679  -2.134  19.583  0.00  0.00    -0.296 OA
ATOM     31  O13 H1S d 501      39.574   1.901  13.151  0.00  0.00    -0.311 OA
ATOM     32  C4  H1S d 501      38.090   0.559  15.772  0.00  0.00     0.083 C 
ATOM     33  C19 H1S d 501      39.683   3.253  13.276  0.00  0.00     0.147 C 
ATOM     34  O33 H1S d 501      37.550   2.481   8.703  0.00  0.00    -0.572 OA
ATOM     35  O3  H1S d 501      37.316   1.859  13.861  0.00  0.00    -0.348 OA
ATOM     36  H   H1S d 501      36.960  -0.169  14.107  0.00  0.00     0.091 H 
ATOM     37  H   H1S d 501      37.050  -2.706  17.690  0.00  0.00     0.231 HD
ATOM     38  H   H1S d 501      39.581   0.798  14.494  0.00  0.00     0.210 HD
ATOM     39  H   H1S d 501      35.733   3.573  11.741  0.00  0.00     0.210 HD
ATOM     40  H   H1S d 501      34.797   1.811  13.626  0.00  0.00     0.080 H 
ATOM     41  H   H1S d 501      34.514   0.088  13.822  0.00  0.00     0.080 H 
ATOM     42  H   H1S d 501      37.758   4.133  10.756  0.00  0.00     0.093 H 
ATOM     43  H   H1S d 501      36.551  -1.121  19.488  0.00  0.00     0.231 HD
ATOM     44  H   H1S d 501      39.601  -0.617  17.481  0.00  0.00     0.140 HD
ATOM     45  H   H1S d 501      38.960   5.149  12.736  0.00  0.00     0.085 H 
ATOM     46  H   H1S d 501      36.009  -0.888  18.090  0.00  0.00     0.131 H 
ATOM     47  H   H1S d 501      35.715   1.885  15.934  0.00  0.00     0.090 H 
ATOM     48  H   H1S d 501      36.959   1.708  11.111  0.00  0.00     0.097 H 
ATOM     49  H   H1S d 501      38.203   0.401  12.731  0.00  0.00     0.134 H 
ATOM     50  H   H1S d 501      36.596   1.812  17.385  0.00  0.00     0.212 HD
ATOM     51  H   H1S d 501      37.623  -1.450  16.343  0.00  0.00     0.076 H 
ATOM     52  H   H1S d 501      40.011  -1.371  20.080  0.00  0.00     0.231 HD
ATOM     53  H   H1S d 501      38.227   1.500  16.262  0.00  0.00     0.089 H 
ENDROOT
TORSDOF 16
ENDMDL
MODEL 62
REMARK VINA RESULT:      -7.3      3.202      6.730
REMARK  0 active torsions:
REMARK  status: ('A' for Active; 'I' for Inactive)
REMARK       I    between atoms: C1_1  and  O3_35 
REMARK       I    between atoms: O18_2  and  C12_24 
REMARK       I    between atoms: O18_2  and  S26_27 
REMARK       I    between atoms: S20_5  and  N14_19 
REMARK       I    between atoms: S20_5  and  O28_18 
REMARK       I    between atoms: S20_5  and  O29_7 
REMARK       I    between atoms: S20_5  and  O30_30 
REMARK       I    between atoms: C27_6  and  C19_33 
REMARK       I    between atoms: O9_8  and  C4_32 
REMARK       I    between atoms: S16_9  and  O11_10 
REMARK       I    between atoms: O11_10  and  C6_15 
REMARK       I    between atoms: O25_14  and  C17_17 
REMARK       I    between atoms: C6_15  and  C2_23 
REMARK       I    between atoms: N14_19  and  C8_29 
REMARK       I    between atoms: C10_22  and  O15_26 
REMARK       I    between atoms: C7_25  and  O3_35 
ROOT
ATOM      1  C1  H1S d 501      38.624   2.014  14.179  0.00  0.00     0.095 C 
ATOM      2  O18 H1S d 501      35.603   5.637  13.964  0.00  0.00    -0.244 OA
ATOM      3  O34 H1S d 501      40.511   6.690  14.657  0.00  0.00    -0.642 OA
ATOM      4  O35 H1S d 501      39.781   7.185  16.683  0.00  0.00    -0.642 OA
ATOM      5  S20 H1S d 501      42.996   0.665  11.993  0.00  0.00     0.156 S 
ATOM      6  C27 H1S d 501      39.665   6.621  15.572  0.00  0.00     0.233 C 
ATOM      7  O29 H1S d 501      42.071   0.050  10.986  0.00  0.00    -0.296 OA
ATOM      8  O9  H1S d 501      39.938   3.562  12.867  0.00  0.00    -0.391 OA
ATOM      9  S16 H1S d 501      36.151  -1.568  16.567  0.00  0.00     0.251 S 
ATOM     10  O11 H1S d 501      37.363  -0.965  16.107  0.00  0.00    -0.254 OA
ATOM     11  O32 H1S d 501      34.119   4.251  12.695  0.00  0.00    -0.572 OA
ATOM     12  O5  H1S d 501      39.426  -0.293  14.264  0.00  0.00    -0.350 OA
ATOM     13  O23 H1S d 501      36.466  -2.582  17.626  0.00  0.00    -0.572 OA
ATOM     14  O25 H1S d 501      36.252   3.667  16.956  0.00  0.00    -0.389 OA
ATOM     15  C6  H1S d 501      37.315   0.219  15.307  0.00  0.00     0.067 C 
ATOM     16  O21 H1S d 501      35.253  -0.511  17.139  0.00  0.00    -0.572 OA
ATOM     17  C17 H1S d 501      36.181   4.857  16.163  0.00  0.00     0.086 C 
ATOM     18  O28 H1S d 501      43.546  -0.407  12.885  0.00  0.00    -0.296 OA
ATOM     19  N14 H1S d 501      42.190   1.761  12.892  0.00  0.00    -0.210 NA
ATOM     20  O31 H1S d 501      33.845   6.685  12.729  0.00  0.00    -0.572 OA
ATOM     21  C24 H1S d 501      37.467   5.665  16.346  0.00  0.00    -0.034 C 
ATOM     22  C10 H1S d 501      40.788   0.094  14.032  0.00  0.00     0.147 C 
ATOM     23  C2  H1S d 501      38.726   0.725  14.999  0.00  0.00     0.091 C 
ATOM     24  C12 H1S d 501      36.028   4.478  14.688  0.00  0.00     0.135 C 
ATOM     25  C7  H1S d 501      37.390   4.046  14.140  0.00  0.00     0.167 C 
ATOM     26  O15 H1S d 501      41.418   0.392  15.282  0.00  0.00    -0.369 OA
ATOM     27  S26 H1S d 501      34.245   5.487  13.536  0.00  0.00     0.252 S 
ATOM     28  O22 H1S d 501      35.461  -2.241  15.417  0.00  0.00    -0.572 OA
ATOM     29  C8  H1S d 501      40.805   1.330  13.128  0.00  0.00     0.081 C 
ATOM     30  O30 H1S d 501      44.124   1.351  11.281  0.00  0.00    -0.296 OA
ATOM     31  O13 H1S d 501      38.227   5.215  14.101  0.00  0.00    -0.311 OA
ATOM     32  C4  H1S d 501      40.032   2.472  13.789  0.00  0.00     0.083 C 
ATOM     33  C19 H1S d 501      38.403   5.792  15.321  0.00  0.00     0.147 C 
ATOM     34  O33 H1S d 501      33.349   5.372  14.734  0.00  0.00    -0.572 OA
ATOM     35  O3  H1S d 501      37.987   3.034  14.992  0.00  0.00    -0.348 OA
ATOM     36  H   H1S d 501      38.047   1.845  13.294  0.00  0.00     0.091 H 
ATOM     37  H   H1S d 501      41.341  -0.394  11.446  0.00  0.00     0.231 HD
ATOM     38  H   H1S d 501      39.449   4.292  13.278  0.00  0.00     0.210 HD
ATOM     39  H   H1S d 501      35.438   3.153  16.841  0.00  0.00     0.210 HD
ATOM     40  H   H1S d 501      36.778   0.979  15.837  0.00  0.00     0.080 H 
ATOM     41  H   H1S d 501      36.823  -0.010  14.385  0.00  0.00     0.080 H 
ATOM     42  H   H1S d 501      35.339   5.442  16.472  0.00  0.00     0.093 H 
ATOM     43  H   H1S d 501      42.817  -0.851  13.345  0.00  0.00     0.231 HD
ATOM     44  H   H1S d 501      42.183   2.656  12.400  0.00  0.00     0.140 HD
ATOM     45  H   H1S d 501      37.646   6.128  17.251  0.00  0.00     0.085 H 
ATOM     46  H   H1S d 501      41.321  -0.702  13.555  0.00  0.00     0.131 H 
ATOM     47  H   H1S d 501      39.261   0.934  15.901  0.00  0.00     0.090 H 
ATOM     48  H   H1S d 501      35.318   3.684  14.587  0.00  0.00     0.097 H 
ATOM     49  H   H1S d 501      37.280   3.623  13.163  0.00  0.00     0.134 H 
ATOM     50  H   H1S d 501      40.941   1.114  15.720  0.00  0.00     0.212 HD
ATOM     51  H   H1S d 501      40.345   1.078  12.196  0.00  0.00     0.076 H 
ATOM     52  H   H1S d 501      44.723   1.749  11.932  0.00  0.00     0.231 HD
ATOM     53  H   H1S d 501      40.548   2.778  14.674  0.00  0.00     0.089 H 
ENDROOT
TORSDOF 16
ENDMDL
MODEL 63
REMARK VINA RESULT:      -7.3      3.305      4.509
REMARK  0 active torsions:
REMARK  status: ('A' for Active; 'I' for Inactive)
REMARK       I    between atoms: C1_1  and  O3_35 
REMARK       I    between atoms: O18_2  and  C12_24 
REMARK       I    between atoms: O18_2  and  S26_27 
REMARK       I    between atoms: S20_5  and  N14_19 
REMARK       I    between atoms: S20_5  and  O28_18 
REMARK       I    between atoms: S20_5  and  O29_7 
REMARK       I    between atoms: S20_5  and  O30_30 
REMARK       I    between atoms: C27_6  and  C19_33 
REMARK       I    between atoms: O9_8  and  C4_32 
REMARK       I    between atoms: S16_9  and  O11_10 
REMARK       I    between atoms: O11_10  and  C6_15 
REMARK       I    between atoms: O25_14  and  C17_17 
REMARK       I    between atoms: C6_15  and  C2_23 
REMARK       I    between atoms: N14_19  and  C8_29 
REMARK       I    between atoms: C10_22  and  O15_26 
REMARK       I    between atoms: C7_25  and  O3_35 
ROOT
ATOM      1  C1  H1S d 501      39.137   3.262  15.695  0.00  0.00     0.095 C 
ATOM      2  O18 H1S d 501      34.765   1.710  14.818  0.00  0.00    -0.244 OA
ATOM      3  O34 H1S d 501      36.508   1.311  19.559  0.00  0.00    -0.642 OA
ATOM      4  O35 H1S d 501      36.562  -0.829  19.009  0.00  0.00    -0.642 OA
ATOM      5  S20 H1S d 501      41.408   6.339  19.026  0.00  0.00     0.156 S 
ATOM      6  C27 H1S d 501      36.521   0.388  18.719  0.00  0.00     0.233 C 
ATOM      7  O29 H1S d 501      41.068   7.375  17.997  0.00  0.00    -0.296 OA
ATOM      8  O9  H1S d 501      38.018   4.054  17.686  0.00  0.00    -0.391 OA
ATOM      9  S16 H1S d 501      41.743   2.097  11.633  0.00  0.00     0.251 S 
ATOM     10  O11 H1S d 501      41.656   2.449  13.016  0.00  0.00    -0.254 OA
ATOM     11  O32 H1S d 501      34.670   3.205  12.950  0.00  0.00    -0.572 OA
ATOM     12  O5  H1S d 501      41.374   4.154  15.278  0.00  0.00    -0.350 OA
ATOM     13  O23 H1S d 501      43.107   1.547  11.340  0.00  0.00    -0.572 OA
ATOM     14  O25 H1S d 501      37.796  -0.212  14.214  0.00  0.00    -0.389 OA
ATOM     15  C6  H1S d 501      40.383   2.732  13.604  0.00  0.00     0.067 C 
ATOM     16  O21 H1S d 501      40.707   1.060  11.316  0.00  0.00    -0.572 OA
ATOM     17  C17 H1S d 501      36.512   0.059  14.783  0.00  0.00     0.086 C 
ATOM     18  O28 H1S d 501      42.864   5.993  18.924  0.00  0.00    -0.296 OA
ATOM     19  N14 H1S d 501      40.512   4.998  18.784  0.00  0.00    -0.210 NA
ATOM     20  O31 H1S d 501      32.627   2.224  13.880  0.00  0.00    -0.572 OA
ATOM     21  C24 H1S d 501      36.547  -0.247  16.282  0.00  0.00    -0.034 C 
ATOM     22  C10 H1S d 501      41.617   4.397  16.672  0.00  0.00     0.147 C 
ATOM     23  C2  H1S d 501      40.526   3.007  15.102  0.00  0.00     0.091 C 
ATOM     24  C12 H1S d 501      36.165   1.535  14.577  0.00  0.00     0.135 C 
ATOM     25  C7  H1S d 501      36.933   2.376  15.599  0.00  0.00     0.167 C 
ATOM     26  O15 H1S d 501      42.165   3.219  17.272  0.00  0.00    -0.369 OA
ATOM     27  S26 H1S d 501      34.079   1.984  13.592  0.00  0.00     0.252 S 
ATOM     28  O22 H1S d 501      41.503   3.317  10.792  0.00  0.00    -0.572 OA
ATOM     29  C8  H1S d 501      40.294   4.765  17.349  0.00  0.00     0.081 C 
ATOM     30  O30 H1S d 501      41.118   6.880  20.395  0.00  0.00    -0.296 OA
ATOM     31  O13 H1S d 501      36.386   2.081  16.895  0.00  0.00    -0.311 OA
ATOM     32  C4  H1S d 501      39.284   3.630  17.175  0.00  0.00     0.083 C 
ATOM     33  C19 H1S d 501      36.487   0.767  17.237  0.00  0.00     0.147 C 
ATOM     34  O33 H1S d 501      34.216   0.813  12.665  0.00  0.00    -0.572 OA
ATOM     35  O3  H1S d 501      38.347   2.052  15.570  0.00  0.00    -0.348 OA
ATOM     36  H   H1S d 501      38.655   4.064  15.176  0.00  0.00     0.091 H 
ATOM     37  H   H1S d 501      41.256   7.025  17.112  0.00  0.00     0.231 HD
ATOM     38  H   H1S d 501      37.370   3.340  17.580  0.00  0.00     0.210 HD
ATOM     39  H   H1S d 501      37.776  -0.019  13.263  0.00  0.00     0.210 HD
ATOM     40  H   H1S d 501      39.736   1.892  13.461  0.00  0.00     0.080 H 
ATOM     41  H   H1S d 501      39.974   3.601  13.133  0.00  0.00     0.080 H 
ATOM     42  H   H1S d 501      35.773  -0.552  14.307  0.00  0.00     0.093 H 
ATOM     43  H   H1S d 501      43.052   5.644  18.039  0.00  0.00     0.231 HD
ATOM     44  H   H1S d 501      39.608   5.112  19.244  0.00  0.00     0.140 HD
ATOM     45  H   H1S d 501      36.618  -1.228  16.594  0.00  0.00     0.085 H 
ATOM     46  H   H1S d 501      42.313   5.202  16.789  0.00  0.00     0.131 H 
ATOM     47  H   H1S d 501      40.964   2.169  15.603  0.00  0.00     0.090 H 
ATOM     48  H   H1S d 501      36.420   1.835  13.582  0.00  0.00     0.097 H 
ATOM     49  H   H1S d 501      36.836   3.418  15.372  0.00  0.00     0.134 H 
ATOM     50  H   H1S d 501      41.540   2.484  17.170  0.00  0.00     0.212 HD
ATOM     51  H   H1S d 501      39.914   5.656  16.896  0.00  0.00     0.076 H 
ATOM     52  H   H1S d 501      41.338   6.210  21.061  0.00  0.00     0.231 HD
ATOM     53  H   H1S d 501      39.630   2.769  17.707  0.00  0.00     0.089 H 
ENDROOT
TORSDOF 16
ENDMDL
MODEL 64
REMARK VINA RESULT:      -7.3      3.931      8.189
REMARK  0 active torsions:
REMARK  status: ('A' for Active; 'I' for Inactive)
REMARK       I    between atoms: C1_1  and  O3_35 
REMARK       I    between atoms: O18_2  and  C12_24 
REMARK       I    between atoms: O18_2  and  S26_27 
REMARK       I    between atoms: S20_5  and  N14_19 
REMARK       I    between atoms: S20_5  and  O28_18 
REMARK       I    between atoms: S20_5  and  O29_7 
REMARK       I    between atoms: S20_5  and  O30_30 
REMARK       I    between atoms: C27_6  and  C19_33 
REMARK       I    between atoms: O9_8  and  C4_32 
REMARK       I    between atoms: S16_9  and  O11_10 
REMARK       I    between atoms: O11_10  and  C6_15 
REMARK       I    between atoms: O25_14  and  C17_17 
REMARK       I    between atoms: C6_15  and  C2_23 
REMARK       I    between atoms: N14_19  and  C8_29 
REMARK       I    between atoms: C10_22  and  O15_26 
REMARK       I    between atoms: C7_25  and  O3_35 
ROOT
ATOM      1  C1  H1S d 501      39.037   3.720  16.342  0.00  0.00     0.095 C 
ATOM      2  O18 H1S d 501      41.217  -0.303  17.508  0.00  0.00    -0.244 OA
ATOM      3  O34 H1S d 501      36.202  -0.453  16.794  0.00  0.00    -0.642 OA
ATOM      4  O35 H1S d 501      36.227  -0.689  18.991  0.00  0.00    -0.642 OA
ATOM      5  S20 H1S d 501      35.802   5.315  12.776  0.00  0.00     0.156 S 
ATOM      6  C27 H1S d 501      36.757  -0.354  17.908  0.00  0.00     0.233 C 
ATOM      7  O29 H1S d 501      37.074   5.594  12.032  0.00  0.00    -0.296 OA
ATOM      8  O9  H1S d 501      37.859   2.185  14.893  0.00  0.00    -0.391 OA
ATOM      9  S16 H1S d 501      41.408   7.246  18.909  0.00  0.00     0.251 S 
ATOM     10  O11 H1S d 501      40.277   6.764  18.179  0.00  0.00    -0.254 OA
ATOM     11  O32 H1S d 501      43.239   0.594  16.591  0.00  0.00    -0.572 OA
ATOM     12  O5  H1S d 501      38.717   6.101  15.893  0.00  0.00    -0.350 OA
ATOM     13  O23 H1S d 501      41.019   8.467  19.688  0.00  0.00    -0.572 OA
ATOM     14  O25 H1S d 501      40.166   2.240  19.891  0.00  0.00    -0.389 OA
ATOM     15  C6  H1S d 501      40.309   5.464  17.585  0.00  0.00     0.067 C 
ATOM     16  O21 H1S d 501      41.883   6.182  19.854  0.00  0.00    -0.572 OA
ATOM     17  C17 H1S d 501      40.217   0.932  19.312  0.00  0.00     0.086 C 
ATOM     18  O28 H1S d 501      35.250   6.600  13.318  0.00  0.00    -0.296 OA
ATOM     19  N14 H1S d 501      36.093   4.284  14.006  0.00  0.00    -0.210 NA
ATOM     20  O31 H1S d 501      43.004  -1.809  17.007  0.00  0.00    -0.572 OA
ATOM     21  C24 H1S d 501      38.797   0.375  19.191  0.00  0.00    -0.034 C 
ATOM     22  C10 H1S d 501      37.424   5.892  15.305  0.00  0.00     0.147 C 
ATOM     23  C2  H1S d 501      38.969   5.134  16.926  0.00  0.00     0.091 C 
ATOM     24  C12 H1S d 501      40.846   1.017  17.919  0.00  0.00     0.135 C 
ATOM     25  C7  H1S d 501      39.804   1.549  16.932  0.00  0.00     0.167 C 
ATOM     26  O15 H1S d 501      36.426   5.920  16.330  0.00  0.00    -0.369 OA
ATOM     27  S26 H1S d 501      42.641  -0.440  17.500  0.00  0.00     0.252 S 
ATOM     28  O22 H1S d 501      42.510   7.592  17.951  0.00  0.00    -0.572 OA
ATOM     29  C8  H1S d 501      37.414   4.533  14.599  0.00  0.00     0.081 C 
ATOM     30  O30 H1S d 501      34.804   4.695  11.844  0.00  0.00    -0.296 OA
ATOM     31  O13 H1S d 501      38.796   0.534  16.784  0.00  0.00    -0.311 OA
ATOM     32  C4  H1S d 501      37.731   3.421  15.600  0.00  0.00     0.083 C 
ATOM     33  C19 H1S d 501      38.177   0.214  17.953  0.00  0.00     0.147 C 
ATOM     34  O33 H1S d 501      43.174  -0.254  18.890  0.00  0.00    -0.572 OA
ATOM     35  O3  H1S d 501      39.207   2.775  17.429  0.00  0.00    -0.348 OA
ATOM     36  H   H1S d 501      39.858   3.640  15.661  0.00  0.00     0.091 H 
ATOM     37  H   H1S d 501      37.720   5.995  12.634  0.00  0.00     0.231 HD
ATOM     38  H   H1S d 501      38.059   1.472  15.520  0.00  0.00     0.210 HD
ATOM     39  H   H1S d 501      41.065   2.595  19.968  0.00  0.00     0.210 HD
ATOM     40  H   H1S d 501      40.516   4.737  18.343  0.00  0.00     0.080 H 
ATOM     41  H   H1S d 501      41.073   5.449  16.836  0.00  0.00     0.080 H 
ATOM     42  H   H1S d 501      40.806   0.289  19.933  0.00  0.00     0.093 H 
ATOM     43  H   H1S d 501      35.896   7.001  13.920  0.00  0.00     0.231 HD
ATOM     44  H   H1S d 501      36.059   3.327  13.655  0.00  0.00     0.140 HD
ATOM     45  H   H1S d 501      38.285   0.113  20.049  0.00  0.00     0.085 H 
ATOM     46  H   H1S d 501      37.213   6.664  14.594  0.00  0.00     0.131 H 
ATOM     47  H   H1S d 501      38.174   5.172  17.640  0.00  0.00     0.090 H 
ATOM     48  H   H1S d 501      41.699   1.662  17.942  0.00  0.00     0.097 H 
ATOM     49  H   H1S d 501      40.263   1.771  15.991  0.00  0.00     0.134 H 
ATOM     50  H   H1S d 501      36.610   5.222  16.979  0.00  0.00     0.212 HD
ATOM     51  H   H1S d 501      38.155   4.543  13.828  0.00  0.00     0.076 H 
ATOM     52  H   H1S d 501      33.981   4.515  12.325  0.00  0.00     0.231 HD
ATOM     53  H   H1S d 501      36.938   3.359  16.316  0.00  0.00     0.089 H 
ENDROOT
TORSDOF 16
ENDMDL
MODEL 65
REMARK VINA RESULT:      -7.2      3.735      6.151
REMARK  0 active torsions:
REMARK  status: ('A' for Active; 'I' for Inactive)
REMARK       I    between atoms: C1_1  and  O3_35 
REMARK       I    between atoms: O18_2  and  C12_24 
REMARK       I    between atoms: O18_2  and  S26_27 
REMARK       I    between atoms: S20_5  and  N14_19 
REMARK       I    between atoms: S20_5  and  O28_18 
REMARK       I    between atoms: S20_5  and  O29_7 
REMARK       I    between atoms: S20_5  and  O30_30 
REMARK       I    between atoms: C27_6  and  C19_33 
REMARK       I    between atoms: O9_8  and  C4_32 
REMARK       I    between atoms: S16_9  and  O11_10 
REMARK       I    between atoms: O11_10  and  C6_15 
REMARK       I    between atoms: O25_14  and  C17_17 
REMARK       I    between atoms: C6_15  and  C2_23 
REMARK       I    between atoms: N14_19  and  C8_29 
REMARK       I    between atoms: C10_22  and  O15_26 
REMARK       I    between atoms: C7_25  and  O3_35 
ROOT
ATOM      1  C1  H1S d 501      38.808   1.773  15.315  0.00  0.00     0.095 C 
ATOM      2  O18 H1S d 501      39.440   0.227  10.898  0.00  0.00    -0.244 OA
ATOM      3  O34 H1S d 501      42.970  -0.943  14.340  0.00  0.00    -0.642 OA
ATOM      4  O35 H1S d 501      44.125   0.541  13.179  0.00  0.00    -0.642 OA
ATOM      5  S20 H1S d 501      38.844  -0.181  19.995  0.00  0.00     0.156 S 
ATOM      6  C27 H1S d 501      43.049   0.011  13.540  0.00  0.00     0.233 C 
ATOM      7  O29 H1S d 501      37.394  -0.415  19.691  0.00  0.00    -0.296 OA
ATOM      8  O9  H1S d 501      39.653  -0.444  15.777  0.00  0.00    -0.391 OA
ATOM      9  S16 H1S d 501      36.748   6.262  14.812  0.00  0.00     0.251 S 
ATOM     10  O11 H1S d 501      37.459   5.279  15.570  0.00  0.00    -0.254 OA
ATOM     11  O32 H1S d 501      37.071   0.352  10.576  0.00  0.00    -0.572 OA
ATOM     12  O5  H1S d 501      37.813   2.972  17.198  0.00  0.00    -0.350 OA
ATOM     13  O23 H1S d 501      36.901   7.604  15.463  0.00  0.00    -0.572 OA
ATOM     14  O25 H1S d 501      40.315   3.563  12.061  0.00  0.00    -0.389 OA
ATOM     15  C6  H1S d 501      37.700   3.984  15.014  0.00  0.00     0.067 C 
ATOM     16  O21 H1S d 501      37.304   6.316  13.419  0.00  0.00    -0.572 OA
ATOM     17  C17 H1S d 501      40.552   2.276  11.482  0.00  0.00     0.086 C 
ATOM     18  O28 H1S d 501      38.979   1.009  20.897  0.00  0.00    -0.296 OA
ATOM     19  N14 H1S d 501      39.665   0.088  18.611  0.00  0.00    -0.210 NA
ATOM     20  O31 H1S d 501      38.481  -0.945   9.049  0.00  0.00    -0.572 OA
ATOM     21  C24 H1S d 501      41.812   1.667  12.101  0.00  0.00    -0.034 C 
ATOM     22  C10 H1S d 501      38.599   2.257  18.163  0.00  0.00     0.147 C 
ATOM     23  C2  H1S d 501      38.539   3.132  15.968  0.00  0.00     0.091 C 
ATOM     24  C12 H1S d 501      39.358   1.362  11.765  0.00  0.00     0.135 C 
ATOM     25  C7  H1S d 501      39.442   0.865  13.211  0.00  0.00     0.167 C 
ATOM     26  O15 H1S d 501      39.846   2.931  18.354  0.00  0.00    -0.369 OA
ATOM     27  S26 H1S d 501      38.412   0.284   9.904  0.00  0.00     0.252 S 
ATOM     28  O22 H1S d 501      35.294   5.894  14.757  0.00  0.00    -0.572 OA
ATOM     29  C8  H1S d 501      38.843   0.835  17.650  0.00  0.00     0.081 C 
ATOM     30  O30 H1S d 501      39.414  -1.391  20.674  0.00  0.00    -0.296 OA
ATOM     31  O13 H1S d 501      40.570  -0.022  13.295  0.00  0.00    -0.311 OA
ATOM     32  C4  H1S d 501      39.567   0.883  16.303  0.00  0.00     0.083 C 
ATOM     33  C19 H1S d 501      41.748   0.572  12.961  0.00  0.00     0.147 C 
ATOM     34  O33 H1S d 501      38.605   1.499   9.047  0.00  0.00    -0.572 OA
ATOM     35  O3  H1S d 501      39.614   1.978  14.126  0.00  0.00    -0.348 OA
ATOM     36  H   H1S d 501      37.884   1.301  15.048  0.00  0.00     0.091 H 
ATOM     37  H   H1S d 501      37.026   0.367  19.252  0.00  0.00     0.231 HD
ATOM     38  H   H1S d 501      40.112  -0.424  14.922  0.00  0.00     0.210 HD
ATOM     39  H   H1S d 501      39.516   3.952  11.670  0.00  0.00     0.210 HD
ATOM     40  H   H1S d 501      38.224   4.092  14.087  0.00  0.00     0.080 H 
ATOM     41  H   H1S d 501      36.760   3.498  14.856  0.00  0.00     0.080 H 
ATOM     42  H   H1S d 501      40.683   2.379  10.425  0.00  0.00     0.093 H 
ATOM     43  H   H1S d 501      38.610   1.791  20.458  0.00  0.00     0.231 HD
ATOM     44  H   H1S d 501      39.929  -0.808  18.200  0.00  0.00     0.140 HD
ATOM     45  H   H1S d 501      42.732   2.078  11.876  0.00  0.00     0.085 H 
ATOM     46  H   H1S d 501      38.081   2.213  19.099  0.00  0.00     0.131 H 
ATOM     47  H   H1S d 501      39.476   3.603  16.176  0.00  0.00     0.090 H 
ATOM     48  H   H1S d 501      38.444   1.896  11.608  0.00  0.00     0.097 H 
ATOM     49  H   H1S d 501      38.538   0.360  13.483  0.00  0.00     0.134 H 
ATOM     50  H   H1S d 501      40.322   2.975  17.509  0.00  0.00     0.212 HD
ATOM     51  H   H1S d 501      37.898   0.348  17.532  0.00  0.00     0.076 H 
ATOM     52  H   H1S d 501      40.352  -1.240  20.870  0.00  0.00     0.231 HD
ATOM     53  H   H1S d 501      40.545   1.290  16.446  0.00  0.00     0.089 H 
ENDROOT
TORSDOF 16
ENDMDL
MODEL 66
REMARK VINA RESULT:      -7.2      3.496      6.685
REMARK  0 active torsions:
REMARK  status: ('A' for Active; 'I' for Inactive)
REMARK       I    between atoms: C1_1  and  O3_35 
REMARK       I    between atoms: O18_2  and  C12_24 
REMARK       I    between atoms: O18_2  and  S26_27 
REMARK       I    between atoms: S20_5  and  N14_19 
REMARK       I    between atoms: S20_5  and  O28_18 
REMARK       I    between atoms: S20_5  and  O29_7 
REMARK       I    between atoms: S20_5  and  O30_30 
REMARK       I    between atoms: C27_6  and  C19_33 
REMARK       I    between atoms: O9_8  and  C4_32 
REMARK       I    between atoms: S16_9  and  O11_10 
REMARK       I    between atoms: O11_10  and  C6_15 
REMARK       I    between atoms: O25_14  and  C17_17 
REMARK       I    between atoms: C6_15  and  C2_23 
REMARK       I    between atoms: N14_19  and  C8_29 
REMARK       I    between atoms: C10_22  and  O15_26 
REMARK       I    between atoms: C7_25  and  O3_35 
ROOT
ATOM      1  C1  H1S d 501      39.274   3.056  13.674  0.00  0.00     0.095 C 
ATOM      2  O18 H1S d 501      36.386  -0.514  14.776  0.00  0.00    -0.244 OA
ATOM      3  O34 H1S d 501      37.406   0.275   9.875  0.00  0.00    -0.642 OA
ATOM      4  O35 H1S d 501      35.310   0.976   9.891  0.00  0.00    -0.642 OA
ATOM      5  S20 H1S d 501      43.444   3.756  10.874  0.00  0.00     0.156 S 
ATOM      6  C27 H1S d 501      36.386   0.690  10.463  0.00  0.00     0.233 C 
ATOM      7  O29 H1S d 501      44.125   3.382  12.157  0.00  0.00    -0.296 OA
ATOM      8  O9  H1S d 501      40.067   1.394  12.108  0.00  0.00    -0.391 OA
ATOM      9  S16 H1S d 501      38.173   6.639  16.930  0.00  0.00     0.251 S 
ATOM     10  O11 H1S d 501      38.738   6.187  15.696  0.00  0.00    -0.254 OA
ATOM     11  O32 H1S d 501      37.411  -0.600  16.939  0.00  0.00    -0.572 OA
ATOM     12  O5  H1S d 501      40.680   5.034  13.965  0.00  0.00    -0.350 OA
ATOM     13  O23 H1S d 501      37.997   8.127  16.886  0.00  0.00    -0.572 OA
ATOM     14  O25 H1S d 501      35.347   2.961  14.469  0.00  0.00    -0.389 OA
ATOM     15  C6  H1S d 501      38.745   4.793  15.380  0.00  0.00     0.067 C 
ATOM     16  O21 H1S d 501      36.840   5.984  17.138  0.00  0.00    -0.572 OA
ATOM     17  C17 H1S d 501      35.336   1.562  14.170  0.00  0.00     0.086 C 
ATOM     18  O28 H1S d 501      43.522   5.241  10.683  0.00  0.00    -0.296 OA
ATOM     19  N14 H1S d 501      41.881   3.294  10.919  0.00  0.00    -0.210 NA
ATOM     20  O31 H1S d 501      36.073  -2.476  16.105  0.00  0.00    -0.572 OA
ATOM     21  C24 H1S d 501      35.340   1.368  12.652  0.00  0.00    -0.034 C 
ATOM     22  C10 H1S d 501      41.241   4.920  12.649  0.00  0.00     0.147 C 
ATOM     23  C2  H1S d 501      39.325   4.555  13.985  0.00  0.00     0.091 C 
ATOM     24  C12 H1S d 501      36.582   0.904  14.766  0.00  0.00     0.135 C 
ATOM     25  C7  H1S d 501      37.786   1.213  13.872  0.00  0.00     0.167 C 
ATOM     26  O15 H1S d 501      40.406   5.613  11.715  0.00  0.00    -0.369 OA
ATOM     27  S26 H1S d 501      36.215  -0.983  16.117  0.00  0.00     0.252 S 
ATOM     28  O22 H1S d 501      39.091   6.276  18.061  0.00  0.00    -0.572 OA
ATOM     29  C8  H1S d 501      41.330   3.438  12.274  0.00  0.00     0.081 C 
ATOM     30  O30 H1S d 501      44.125   3.067   9.728  0.00  0.00    -0.296 OA
ATOM     31  O13 H1S d 501      37.594   0.506  12.635  0.00  0.00    -0.311 OA
ATOM     32  C4  H1S d 501      39.939   2.803  12.318  0.00  0.00     0.083 C 
ATOM     33  C19 H1S d 501      36.454   0.863  11.982  0.00  0.00     0.147 C 
ATOM     34  O33 H1S d 501      34.981  -0.371  16.712  0.00  0.00    -0.572 OA
ATOM     35  O3  H1S d 501      37.885   2.638  13.621  0.00  0.00    -0.348 OA
ATOM     36  H   H1S d 501      39.789   2.503  14.431  0.00  0.00     0.091 H 
ATOM     37  H   H1S d 501      43.685   3.827  12.898  0.00  0.00     0.231 HD
ATOM     38  H   H1S d 501      39.188   0.981  12.134  0.00  0.00     0.210 HD
ATOM     39  H   H1S d 501      35.344   3.086  15.431  0.00  0.00     0.210 HD
ATOM     40  H   H1S d 501      37.742   4.420  15.411  0.00  0.00     0.080 H 
ATOM     41  H   H1S d 501      39.354   4.282  16.097  0.00  0.00     0.080 H 
ATOM     42  H   H1S d 501      34.459   1.113  14.588  0.00  0.00     0.093 H 
ATOM     43  H   H1S d 501      43.083   5.686  11.424  0.00  0.00     0.231 HD
ATOM     44  H   H1S d 501      41.813   2.317  10.633  0.00  0.00     0.140 HD
ATOM     45  H   H1S d 501      34.498   1.619  12.110  0.00  0.00     0.085 H 
ATOM     46  H   H1S d 501      42.220   5.352  12.626  0.00  0.00     0.131 H 
ATOM     47  H   H1S d 501      38.760   5.078  13.243  0.00  0.00     0.090 H 
ATOM     48  H   H1S d 501      36.751   1.272  15.756  0.00  0.00     0.097 H 
ATOM     49  H   H1S d 501      38.692   0.905  14.351  0.00  0.00     0.134 H 
ATOM     50  H   H1S d 501      39.516   5.227  11.729  0.00  0.00     0.212 HD
ATOM     51  H   H1S d 501      41.971   2.946  12.975  0.00  0.00     0.076 H 
ATOM     52  H   H1S d 501      43.684   3.309   8.899  0.00  0.00     0.231 HD
ATOM     53  H   H1S d 501      39.331   3.238  11.553  0.00  0.00     0.089 H 
ENDROOT
TORSDOF 16
ENDMDL
MODEL 67
REMARK VINA RESULT:      -7.1      2.951      7.699
REMARK  0 active torsions:
REMARK  status: ('A' for Active; 'I' for Inactive)
REMARK       I    between atoms: C1_1  and  O3_35 
REMARK       I    between atoms: O18_2  and  C12_24 
REMARK       I    between atoms: O18_2  and  S26_27 
REMARK       I    between atoms: S20_5  and  N14_19 
REMARK       I    between atoms: S20_5  and  O28_18 
REMARK       I    between atoms: S20_5  and  O29_7 
REMARK       I    between atoms: S20_5  and  O30_30 
REMARK       I    between atoms: C27_6  and  C19_33 
REMARK       I    between atoms: O9_8  and  C4_32 
REMARK       I    between atoms: S16_9  and  O11_10 
REMARK       I    between atoms: O11_10  and  C6_15 
REMARK       I    between atoms: O25_14  and  C17_17 
REMARK       I    between atoms: C6_15  and  C2_23 
REMARK       I    between atoms: N14_19  and  C8_29 
REMARK       I    between atoms: C10_22  and  O15_26 
REMARK       I    between atoms: C7_25  and  O3_35 
ROOT
ATOM      1  C1  H1S d 501      38.624   2.273  15.563  0.00  0.00     0.095 C 
ATOM      2  O18 H1S d 501      41.831  -0.754  17.252  0.00  0.00    -0.244 OA
ATOM      3  O34 H1S d 501      37.079  -1.141  18.970  0.00  0.00    -0.642 OA
ATOM      4  O35 H1S d 501      38.018  -0.309  20.789  0.00  0.00    -0.642 OA
ATOM      5  S20 H1S d 501      33.998   2.043  13.498  0.00  0.00     0.156 S 
ATOM      6  C27 H1S d 501      37.999  -0.536  19.559  0.00  0.00     0.233 C 
ATOM      7  O29 H1S d 501      34.789   1.915  12.231  0.00  0.00    -0.296 OA
ATOM      8  O9  H1S d 501      37.295   0.254  15.605  0.00  0.00    -0.391 OA
ATOM      9  S16 H1S d 501      41.077   6.555  15.015  0.00  0.00     0.251 S 
ATOM     10  O11 H1S d 501      39.867   5.803  15.148  0.00  0.00    -0.254 OA
ATOM     11  O32 H1S d 501      43.106  -0.431  15.251  0.00  0.00    -0.572 OA
ATOM     12  O5  H1S d 501      37.692   4.163  14.324  0.00  0.00    -0.350 OA
ATOM     13  O23 H1S d 501      40.797   8.006  15.273  0.00  0.00    -0.572 OA
ATOM     14  O25 H1S d 501      41.333   2.631  18.495  0.00  0.00    -0.389 OA
ATOM     15  C6  H1S d 501      39.916   4.377  15.227  0.00  0.00     0.067 C 
ATOM     16  O21 H1S d 501      42.085   6.057  16.008  0.00  0.00    -0.572 OA
ATOM     17  C17 H1S d 501      41.407   1.205  18.580  0.00  0.00     0.086 C 
ATOM     18  O28 H1S d 501      33.465   3.440  13.615  0.00  0.00    -0.296 OA
ATOM     19  N14 H1S d 501      34.948   1.713  14.782  0.00  0.00    -0.210 NA
ATOM     20  O31 H1S d 501      43.531  -2.346  16.719  0.00  0.00    -0.572 OA
ATOM     21  C24 H1S d 501      40.194   0.681  19.353  0.00  0.00    -0.034 C 
ATOM     22  C10 H1S d 501      36.341   3.721  14.523  0.00  0.00     0.147 C 
ATOM     23  C2  H1S d 501      38.517   3.796  15.443  0.00  0.00     0.091 C 
ATOM     24  C12 H1S d 501      41.403   0.609  17.170  0.00  0.00     0.135 C 
ATOM     25  C7  H1S d 501      39.972   0.628  16.625  0.00  0.00     0.167 C 
ATOM     26  O15 H1S d 501      35.846   4.248  15.758  0.00  0.00    -0.369 OA
ATOM     27  S26 H1S d 501      43.133  -0.902  16.676  0.00  0.00     0.252 S 
ATOM     28  O22 H1S d 501      41.617   6.388  13.625  0.00  0.00    -0.572 OA
ATOM     29  C8  H1S d 501      36.319   2.191  14.558  0.00  0.00     0.081 C 
ATOM     30  O30 H1S d 501      32.855   1.072  13.473  0.00  0.00    -0.296 OA
ATOM     31  O13 H1S d 501      39.209  -0.320  17.391  0.00  0.00    -0.311 OA
ATOM     32  C4  H1S d 501      37.218   1.680  15.685  0.00  0.00     0.083 C 
ATOM     33  C19 H1S d 501      39.180  -0.037  18.722  0.00  0.00     0.147 C 
ATOM     34  O33 H1S d 501      44.124  -0.088  17.454  0.00  0.00    -0.572 OA
ATOM     35  O3  H1S d 501      39.393   1.952  16.751  0.00  0.00    -0.348 OA
ATOM     36  H   H1S d 501      39.108   1.866  14.699  0.00  0.00     0.091 H 
ATOM     37  H   H1S d 501      35.528   2.543  12.247  0.00  0.00     0.231 HD
ATOM     38  H   H1S d 501      37.864  -0.080  16.318  0.00  0.00     0.210 HD
ATOM     39  H   H1S d 501      42.101   2.966  18.006  0.00  0.00     0.210 HD
ATOM     40  H   H1S d 501      40.544   4.091  16.045  0.00  0.00     0.080 H 
ATOM     41  H   H1S d 501      40.308   3.996  14.307  0.00  0.00     0.080 H 
ATOM     42  H   H1S d 501      42.307   0.922  19.086  0.00  0.00     0.093 H 
ATOM     43  H   H1S d 501      34.204   4.067  13.631  0.00  0.00     0.231 HD
ATOM     44  H   H1S d 501      34.966   0.704  14.934  0.00  0.00     0.140 HD
ATOM     45  H   H1S d 501      40.126   0.864  20.367  0.00  0.00     0.085 H 
ATOM     46  H   H1S d 501      35.719   4.068  13.724  0.00  0.00     0.131 H 
ATOM     47  H   H1S d 501      38.079   4.180  16.340  0.00  0.00     0.090 H 
ATOM     48  H   H1S d 501      42.050   1.174  16.533  0.00  0.00     0.097 H 
ATOM     49  H   H1S d 501      39.968   0.370  15.586  0.00  0.00     0.134 H 
ATOM     50  H   H1S d 501      36.405   3.938  16.488  0.00  0.00     0.212 HD
ATOM     51  H   H1S d 501      36.677   1.822  13.620  0.00  0.00     0.076 H 
ATOM     52  H   H1S d 501      32.343   1.154  14.293  0.00  0.00     0.231 HD
ATOM     53  H   H1S d 501      36.803   1.977  16.625  0.00  0.00     0.089 H 
ENDROOT
TORSDOF 16
ENDMDL
MODEL 68
REMARK VINA RESULT:      -7.1      3.521      8.244
REMARK  0 active torsions:
REMARK  status: ('A' for Active; 'I' for Inactive)
REMARK       I    between atoms: C1_1  and  O3_35 
REMARK       I    between atoms: O18_2  and  C12_24 
REMARK       I    between atoms: O18_2  and  S26_27 
REMARK       I    between atoms: S20_5  and  N14_19 
REMARK       I    between atoms: S20_5  and  O28_18 
REMARK       I    between atoms: S20_5  and  O29_7 
REMARK       I    between atoms: S20_5  and  O30_30 
REMARK       I    between atoms: C27_6  and  C19_33 
REMARK       I    between atoms: O9_8  and  C4_32 
REMARK       I    between atoms: S16_9  and  O11_10 
REMARK       I    between atoms: O11_10  and  C6_15 
REMARK       I    between atoms: O25_14  and  C17_17 
REMARK       I    between atoms: C6_15  and  C2_23 
REMARK       I    between atoms: N14_19  and  C8_29 
REMARK       I    between atoms: C10_22  and  O15_26 
REMARK       I    between atoms: C7_25  and  O3_35 
ROOT
ATOM      1  C1  H1S d 501      39.304   1.192  17.053  0.00  0.00     0.095 C 
ATOM      2  O18 H1S d 501      41.372   5.174  18.524  0.00  0.00    -0.244 OA
ATOM      3  O34 H1S d 501      38.942   5.275  14.078  0.00  0.00    -0.642 OA
ATOM      4  O35 H1S d 501      41.016   5.373  13.320  0.00  0.00    -0.642 OA
ATOM      5  S20 H1S d 501      34.747  -0.236  15.344  0.00  0.00     0.156 S 
ATOM      6  C27 H1S d 501      40.173   5.117  14.210  0.00  0.00     0.233 C 
ATOM      7  O29 H1S d 501      34.487  -0.444  16.806  0.00  0.00    -0.296 OA
ATOM      8  O9  H1S d 501      37.614   2.793  16.400  0.00  0.00    -0.391 OA
ATOM      9  S16 H1S d 501      42.356  -2.443  18.508  0.00  0.00     0.251 S 
ATOM     10  O11 H1S d 501      41.299  -1.938  17.687  0.00  0.00    -0.254 OA
ATOM     11  O32 H1S d 501      41.183   4.374  20.773  0.00  0.00    -0.572 OA
ATOM     12  O5  H1S d 501      38.647  -1.162  17.006  0.00  0.00    -0.350 OA
ATOM     13  O23 H1S d 501      42.882  -3.718  17.919  0.00  0.00    -0.572 OA
ATOM     14  O25 H1S d 501      43.095   2.468  16.803  0.00  0.00    -0.389 OA
ATOM     15  C6  H1S d 501      40.824  -0.603  17.875  0.00  0.00     0.067 C 
ATOM     16  O21 H1S d 501      43.461  -1.432  18.578  0.00  0.00    -0.572 OA
ATOM     17  C17 H1S d 501      42.640   3.809  17.004  0.00  0.00     0.086 C 
ATOM     18  O28 H1S d 501      34.992  -1.562  14.688  0.00  0.00    -0.296 OA
ATOM     19  N14 H1S d 501      36.052   0.721  15.143  0.00  0.00    -0.210 NA
ATOM     20  O31 H1S d 501      41.614   6.741  20.312  0.00  0.00    -0.572 OA
ATOM     21  C24 H1S d 501      42.055   4.347  15.695  0.00  0.00    -0.034 C 
ATOM     22  C10 H1S d 501      37.652  -0.940  15.995  0.00  0.00     0.147 C 
ATOM     23  C2  H1S d 501      39.751  -0.257  16.840  0.00  0.00     0.091 C 
ATOM     24  C12 H1S d 501      41.557   3.824  18.085  0.00  0.00     0.135 C 
ATOM     25  C7  H1S d 501      40.239   3.336  17.477  0.00  0.00     0.167 C 
ATOM     26  O15 H1S d 501      38.256  -1.051  14.702  0.00  0.00    -0.369 OA
ATOM     27  S26 H1S d 501      41.875   5.338  19.854  0.00  0.00     0.252 S 
ATOM     28  O22 H1S d 501      41.831  -2.708  19.889  0.00  0.00    -0.572 OA
ATOM     29  C8  H1S d 501      37.060   0.459  16.180  0.00  0.00     0.081 C 
ATOM     30  O30 H1S d 501      33.556   0.422  14.713  0.00  0.00    -0.296 OA
ATOM     31  O13 H1S d 501      39.797   4.339  16.547  0.00  0.00    -0.311 OA
ATOM     32  C4  H1S d 501      38.165   1.512  16.080  0.00  0.00     0.083 C 
ATOM     33  C19 H1S d 501      40.688   4.573  15.545  0.00  0.00     0.147 C 
ATOM     34  O33 H1S d 501      43.352   5.075  19.871  0.00  0.00    -0.572 OA
ATOM     35  O3  H1S d 501      40.428   2.070  16.793  0.00  0.00    -0.348 OA
ATOM     36  H   H1S d 501      38.962   1.330  18.058  0.00  0.00     0.091 H 
ATOM     37  H   H1S d 501      35.256  -0.870  17.214  0.00  0.00     0.231 HD
ATOM     38  H   H1S d 501      38.308   3.468  16.339  0.00  0.00     0.210 HD
ATOM     39  H   H1S d 501      43.466   2.125  17.632  0.00  0.00     0.210 HD
ATOM     40  H   H1S d 501      41.642   0.080  17.774  0.00  0.00     0.080 H 
ATOM     41  H   H1S d 501      40.394  -0.526  18.852  0.00  0.00     0.080 H 
ATOM     42  H   H1S d 501      43.461   4.423  17.311  0.00  0.00     0.093 H 
ATOM     43  H   H1S d 501      35.761  -1.988  15.096  0.00  0.00     0.231 HD
ATOM     44  H   H1S d 501      35.762   1.697  15.197  0.00  0.00     0.140 HD
ATOM     45  H   H1S d 501      42.689   4.545  14.905  0.00  0.00     0.085 H 
ATOM     46  H   H1S d 501      36.874  -1.670  16.078  0.00  0.00     0.131 H 
ATOM     47  H   H1S d 501      40.136  -0.354  15.847  0.00  0.00     0.090 H 
ATOM     48  H   H1S d 501      41.846   3.195  18.900  0.00  0.00     0.097 H 
ATOM     49  H   H1S d 501      39.511   3.182  18.246  0.00  0.00     0.134 H 
ATOM     50  H   H1S d 501      38.963  -0.392  14.618  0.00  0.00     0.212 HD
ATOM     51  H   H1S d 501      36.601   0.511  17.145  0.00  0.00     0.076 H 
ATOM     52  H   H1S d 501      33.725   0.557  13.768  0.00  0.00     0.231 HD
ATOM     53  H   H1S d 501      38.557   1.515  15.085  0.00  0.00     0.089 H 
ENDROOT
TORSDOF 16
ENDMDL
MODEL 69
REMARK VINA RESULT:      -7.0      3.483      7.264
REMARK  0 active torsions:
REMARK  status: ('A' for Active; 'I' for Inactive)
REMARK       I    between atoms: C1_1  and  O3_35 
REMARK       I    between atoms: O18_2  and  C12_24 
REMARK       I    between atoms: O18_2  and  S26_27 
REMARK       I    between atoms: S20_5  and  N14_19 
REMARK       I    between atoms: S20_5  and  O28_18 
REMARK       I    between atoms: S20_5  and  O29_7 
REMARK       I    between atoms: S20_5  and  O30_30 
REMARK       I    between atoms: C27_6  and  C19_33 
REMARK       I    between atoms: O9_8  and  C4_32 
REMARK       I    between atoms: S16_9  and  O11_10 
REMARK       I    between atoms: O11_10  and  C6_15 
REMARK       I    between atoms: O25_14  and  C17_17 
REMARK       I    between atoms: C6_15  and  C2_23 
REMARK       I    between atoms: N14_19  and  C8_29 
REMARK       I    between atoms: C10_22  and  O15_26 
REMARK       I    between atoms: C7_25  and  O3_35 
ROOT
ATOM      1  C1  H1S d 501      40.401   2.632  14.382  0.00  0.00     0.095 C 
ATOM      2  O18 H1S d 501      36.731  -0.252  15.099  0.00  0.00    -0.244 OA
ATOM      3  O34 H1S d 501      36.392   3.110  11.323  0.00  0.00    -0.642 OA
ATOM      4  O35 H1S d 501      34.960   4.044  12.722  0.00  0.00    -0.642 OA
ATOM      5  S20 H1S d 501      43.318   4.062  10.488  0.00  0.00     0.156 S 
ATOM      6  C27 H1S d 501      35.911   3.273  12.463  0.00  0.00     0.233 C 
ATOM      7  O29 H1S d 501      44.124   2.872  10.915  0.00  0.00    -0.296 OA
ATOM      8  O9  H1S d 501      39.823   2.131  12.088  0.00  0.00    -0.391 OA
ATOM      9  S16 H1S d 501      42.116   3.668  18.924  0.00  0.00     0.251 S 
ATOM     10  O11 H1S d 501      41.996   3.951  17.527  0.00  0.00    -0.254 OA
ATOM     11  O32 H1S d 501      38.231  -1.813  16.122  0.00  0.00    -0.572 OA
ATOM     12  O5  H1S d 501      42.556   3.725  14.746  0.00  0.00    -0.350 OA
ATOM     13  O23 H1S d 501      42.623   4.884  19.640  0.00  0.00    -0.572 OA
ATOM     14  O25 H1S d 501      37.326   2.829  16.944  0.00  0.00    -0.389 OA
ATOM     15  C6  H1S d 501      41.276   3.057  16.675  0.00  0.00     0.067 C 
ATOM     16  O21 H1S d 501      40.773   3.288  19.473  0.00  0.00    -0.572 OA
ATOM     17  C17 H1S d 501      36.594   1.924  16.112  0.00  0.00     0.086 C 
ATOM     18  O28 H1S d 501      43.990   5.316  10.963  0.00  0.00    -0.296 OA
ATOM     19  N14 H1S d 501      41.818   3.974  11.121  0.00  0.00    -0.210 NA
ATOM     20  O31 H1S d 501      36.008  -2.514  15.369  0.00  0.00    -0.572 OA
ATOM     21  C24 H1S d 501      36.032   2.685  14.908  0.00  0.00    -0.034 C 
ATOM     22  C10 H1S d 501      42.558   4.320  13.440  0.00  0.00     0.147 C 
ATOM     23  C2  H1S d 501      41.215   3.599  15.246  0.00  0.00     0.091 C 
ATOM     24  C12 H1S d 501      37.529   0.818  15.618  0.00  0.00     0.135 C 
ATOM     25  C7  H1S d 501      38.391   1.365  14.478  0.00  0.00     0.167 C 
ATOM     26  O15 H1S d 501      41.878   5.578  13.490  0.00  0.00    -0.369 OA
ATOM     27  S26 H1S d 501      36.800  -1.389  15.965  0.00  0.00     0.252 S 
ATOM     28  O22 H1S d 501      43.077   2.532  19.122  0.00  0.00    -0.572 OA
ATOM     29  C8  H1S d 501      41.849   3.378  12.463  0.00  0.00     0.081 C 
ATOM     30  O30 H1S d 501      43.217   4.086   8.991  0.00  0.00    -0.296 OA
ATOM     31  O13 H1S d 501      37.523   1.596  13.355  0.00  0.00    -0.311 OA
ATOM     32  C4  H1S d 501      40.415   3.123  12.931  0.00  0.00     0.083 C 
ATOM     33  C19 H1S d 501      36.525   2.482  13.620  0.00  0.00     0.147 C 
ATOM     34  O33 H1S d 501      36.231  -1.036  17.308  0.00  0.00    -0.572 OA
ATOM     35  O3  H1S d 501      39.036   2.604  14.873  0.00  0.00    -0.348 OA
ATOM     36  H   H1S d 501      40.822   1.649  14.428  0.00  0.00     0.091 H 
ATOM     37  H   H1S d 501      44.190   2.856  11.882  0.00  0.00     0.231 HD
ATOM     38  H   H1S d 501      38.912   1.962  12.377  0.00  0.00     0.210 HD
ATOM     39  H   H1S d 501      37.683   2.349  17.708  0.00  0.00     0.210 HD
ATOM     40  H   H1S d 501      40.281   2.940  17.049  0.00  0.00     0.080 H 
ATOM     41  H   H1S d 501      41.782   2.114  16.662  0.00  0.00     0.080 H 
ATOM     42  H   H1S d 501      35.791   1.492  16.672  0.00  0.00     0.093 H 
ATOM     43  H   H1S d 501      44.057   5.300  11.931  0.00  0.00     0.231 HD
ATOM     44  H   H1S d 501      41.232   3.401  10.514  0.00  0.00     0.140 HD
ATOM     45  H   H1S d 501      35.270   3.365  15.055  0.00  0.00     0.085 H 
ATOM     46  H   H1S d 501      43.564   4.483  13.111  0.00  0.00     0.131 H 
ATOM     47  H   H1S d 501      40.743   4.559  15.223  0.00  0.00     0.090 H 
ATOM     48  H   H1S d 501      38.147   0.476  16.421  0.00  0.00     0.097 H 
ATOM     49  H   H1S d 501      39.162   0.666  14.227  0.00  0.00     0.134 H 
ATOM     50  H   H1S d 501      40.965   5.440  13.787  0.00  0.00     0.212 HD
ATOM     51  H   H1S d 501      42.385   2.453  12.431  0.00  0.00     0.076 H 
ATOM     52  H   H1S d 501      42.696   4.856   8.715  0.00  0.00     0.231 HD
ATOM     53  H   H1S d 501      39.861   4.036  12.875  0.00  0.00     0.089 H 
ENDROOT
TORSDOF 16
ENDMDL
MODEL 70
REMARK VINA RESULT:      -0.1      2.734      6.889
REMARK  0 active torsions:
REMARK  status: ('A' for Active; 'I' for Inactive)
REMARK       I    between atoms: C1_1  and  O3_35 
REMARK       I    between atoms: O18_2  and  C12_24 
REMARK       I    between atoms: O18_2  and  S26_27 
REMARK       I    between atoms: S20_5  and  N14_19 
REMARK       I    between atoms: S20_5  and  O28_18 
REMARK       I    between atoms: S20_5  and  O29_7 
REMARK       I    between atoms: S20_5  and  O30_30 
REMARK       I    between atoms: C27_6  and  C19_33 
REMARK       I    between atoms: O9_8  and  C4_32 
REMARK       I    between atoms: S16_9  and  O11_10 
REMARK       I    between atoms: O11_10  and  C6_15 
REMARK       I    between atoms: O25_14  and  C17_17 
REMARK       I    between atoms: C6_15  and  C2_23 
REMARK       I    between atoms: N14_19  and  C8_29 
REMARK       I    between atoms: C10_22  and  O15_26 
REMARK       I    between atoms: C7_25  and  O3_35 
ROOT
ATOM      1  C1  H1S d 501      38.365   1.648  14.730  0.00  0.00     0.095 C 
ATOM      2  O18 H1S d 501      42.076   3.991  12.986  0.00  0.00    -0.244 OA
ATOM      3  O34 H1S d 501      40.953   4.648  17.884  0.00  0.00    -0.642 OA
ATOM      4  O35 H1S d 501      40.313   6.626  17.133  0.00  0.00    -0.642 OA
ATOM      5  S20 H1S d 501      37.376  -1.362  18.689  0.00  0.00     0.156 S 
ATOM      6  C27 H1S d 501      40.605   5.420  16.967  0.00  0.00     0.233 C 
ATOM      7  O29 H1S d 501      37.811  -2.430  17.730  0.00  0.00    -0.296 OA
ATOM      8  O9  H1S d 501      39.904   1.407  16.579  0.00  0.00    -0.391 OA
ATOM      9  S16 H1S d 501      35.025   1.634  11.056  0.00  0.00     0.251 S 
ATOM     10  O11 H1S d 501      35.383   1.505  12.435  0.00  0.00    -0.254 OA
ATOM     11  O32 H1S d 501      42.269   2.310  11.292  0.00  0.00    -0.572 OA
ATOM     12  O5  H1S d 501      36.372   0.235  14.783  0.00  0.00    -0.350 OA
ATOM     13  O23 H1S d 501      33.543   1.823  10.938  0.00  0.00    -0.572 OA
ATOM     14  O25 H1S d 501      38.619   5.093  12.697  0.00  0.00    -0.389 OA
ATOM     15  C6  H1S d 501      36.754   1.595  12.830  0.00  0.00     0.067 C 
ATOM     16  O21 H1S d 501      35.729   2.821  10.467  0.00  0.00    -0.572 OA
ATOM     17  C17 H1S d 501      39.996   5.194  13.071  0.00  0.00     0.086 C 
ATOM     18  O28 H1S d 501      35.880  -1.365  18.794  0.00  0.00    -0.296 OA
ATOM     19  N14 H1S d 501      37.883   0.096  18.165  0.00  0.00    -0.210 NA
ATOM     20  O31 H1S d 501      44.125   3.837  11.766  0.00  0.00    -0.572 OA
ATOM     21  C24 H1S d 501      40.094   5.689  14.516  0.00  0.00    -0.034 C 
ATOM     22  C10 H1S d 501      36.387   0.140  16.215  0.00  0.00     0.147 C 
ATOM     23  C2  H1S d 501      36.888   1.505  14.351  0.00  0.00     0.091 C 
ATOM     24  C12 H1S d 501      40.655   3.817  12.963  0.00  0.00     0.135 C 
ATOM     25  C7  H1S d 501      40.258   2.977  14.180  0.00  0.00     0.167 C 
ATOM     26  O15 H1S d 501      35.661   1.239  16.772  0.00  0.00    -0.369 OA
ATOM     27  S26 H1S d 501      42.633   3.708  11.699  0.00  0.00     0.252 S 
ATOM     28  O22 H1S d 501      35.433   0.393  10.317  0.00  0.00    -0.572 OA
ATOM     29  C8  H1S d 501      37.840   0.171  16.698  0.00  0.00     0.081 C 
ATOM     30  O30 H1S d 501      37.973  -1.631  20.039  0.00  0.00    -0.296 OA
ATOM     31  O13 H1S d 501      40.891   3.563  15.330  0.00  0.00    -0.311 OA
ATOM     32  C4  H1S d 501      38.515   1.466  16.243  0.00  0.00     0.083 C 
ATOM     33  C19 H1S d 501      40.526   4.856  15.546  0.00  0.00     0.147 C 
ATOM     34  O33 H1S d 501      42.094   4.680  10.691  0.00  0.00    -0.572 OA
ATOM     35  O3  H1S d 501      38.817   2.974  14.352  0.00  0.00    -0.348 OA
ATOM     36  H   H1S d 501      38.950   0.909  14.223  0.00  0.00     0.091 H 
ATOM     37  H   H1S d 501      37.425  -2.257  16.857  0.00  0.00     0.231 HD
ATOM     38  H   H1S d 501      40.341   2.225  16.294  0.00  0.00     0.210 HD
ATOM     39  H   H1S d 501      38.554   4.780  11.781  0.00  0.00     0.210 HD
ATOM     40  H   H1S d 501      37.156   2.529  12.497  0.00  0.00     0.080 H 
ATOM     41  H   H1S d 501      37.291   0.781  12.390  0.00  0.00     0.080 H 
ATOM     42  H   H1S d 501      40.494   5.882  12.419  0.00  0.00     0.093 H 
ATOM     43  H   H1S d 501      35.495  -1.192  17.921  0.00  0.00     0.231 HD
ATOM     44  H   H1S d 501      38.842   0.250  18.479  0.00  0.00     0.140 HD
ATOM     45  H   H1S d 501      39.833   6.664  14.732  0.00  0.00     0.085 H 
ATOM     46  H   H1S d 501      35.928  -0.775  16.528  0.00  0.00     0.131 H 
ATOM     47  H   H1S d 501      36.335   2.287  14.829  0.00  0.00     0.090 H 
ATOM     48  H   H1S d 501      40.346   3.333  12.061  0.00  0.00     0.097 H 
ATOM     49  H   H1S d 501      40.570   1.962  14.048  0.00  0.00     0.134 H 
ATOM     50  H   H1S d 501      36.071   2.072  16.493  0.00  0.00     0.212 HD
ATOM     51  H   H1S d 501      38.357  -0.668  16.282  0.00  0.00     0.076 H 
ATOM     52  H   H1S d 501      37.692  -0.940  20.660  0.00  0.00     0.231 HD
ATOM     53  H   H1S d 501      38.049   2.294  16.734  0.00  0.00     0.089 H 
ENDROOT
TORSDOF 16
ENDMDL
