REMARK  0 active torsions:
REMARK  status: ('A' for Active; 'I' for Inactive)
REMARK       I    between atoms: O2_1  and  C2_13 
REMARK       I    between atoms: C6_2  and  C5_7 
REMARK       I    between atoms: C6_4  and  C5_18 
REMARK       I    between atoms: C6_4  and  O6_5 
REMARK       I    between atoms: O3_6  and  C1_24 
REMARK       I    between atoms: O3_6  and  C3_11 
REMARK       I    between atoms: C2_8  and  N2_16 
REMARK       I    between atoms: O4_10  and  C4_25 
REMARK       I    between atoms: C3_12  and  O3_26 
REMARK       I    between atoms: C1_14  and  O1_23 
REMARK       I    between atoms: C7_15  and  C8_21 
REMARK       I    between atoms: C7_15  and  N2_16 
ROOT
ATOM      1  O2  GCD d 903      19.659 -17.661  32.645  0.00  0.00    -0.388 OA
ATOM      2  C6  GCD d 903      14.498 -15.173  31.208  0.00  0.00     0.203 C 
ATOM      3  O6B GCD d 903      14.741 -13.972  31.306  0.00  0.00    -0.646 OA
ATOM      4  C5  GCD d 903      15.824 -15.956  31.461  0.00  0.00     0.127 C 
ATOM      5  C4  GCD d 903      15.868 -17.287  31.472  0.00  0.00    -0.005 C 
ATOM      6  C3  GCD d 903      17.242 -17.846  31.719  0.00  0.00     0.068 C 
ATOM      7  C2  GCD d 903      18.335 -17.010  32.503  0.00  0.00     0.107 C 
ATOM      8  O6A GCD d 903      13.357 -15.871  31.046  0.00  0.00    -0.646 OA
ATOM      9  O5  GCD d 903      16.979 -15.008  31.674  0.00  0.00    -0.343 OA
ATOM     10  C1  GCD d 903      18.348 -15.623  31.781  0.00  0.00     0.159 C 
ATOM     11  O3  GCD d 903      17.214 -19.118  32.395  0.00  0.00    -0.393 OA
ATOM     12  H   GCD d 903      19.554 -18.510  33.102  0.00  0.00     0.210 HD
ATOM     13  H   GCD d 903      16.215 -16.947  31.558  0.00  0.00     0.100 H 
ATOM     14  H   GCD d 903      15.524 -17.644  30.524  0.00  0.00     0.041 H 
ATOM     15  H   GCD d 903      15.248 -17.613  32.281  0.00  0.00     0.041 H 
ATOM     16  H   GCD d 903      17.553 -17.867  30.695  0.00  0.00     0.087 H 
ATOM     17  H   GCD d 903      18.081 -16.914  33.538  0.00  0.00     0.094 H 
ATOM     18  H   GCD d 903      18.841 -15.827  30.853  0.00  0.00     0.133 H 
ATOM     19  H   GCD d 903      16.921 -18.991  33.311  0.00  0.00     0.210 HD
ATOM     20  C6  NAG d 904      18.920  -9.646  32.630  0.00  0.00     0.043 C 
ATOM     21  O6  NAG d 904      18.488  -9.625  34.053  0.00  0.00    -0.398 OA
ATOM     22  O3  NAG d 904      18.921 -14.603  32.663  0.00  0.00    -0.348 OA
ATOM     23  C2  NAG d 904      21.021 -13.457  33.147  0.00  0.00     0.087 C 
ATOM     24  O4  NAG d 904      17.601 -12.110  31.864  0.00  0.00    -0.390 OA
ATOM     25  C3  NAG d 904      19.688 -13.437  32.298  0.00  0.00     0.093 C 
ATOM     26  C1  NAG d 904      21.839 -12.232  32.796  0.00  0.00     0.151 C 
ATOM     27  C7  NAG d 904      22.594 -15.485  33.955  0.00  0.00     0.214 C 
ATOM     28  N2  NAG d 904      21.884 -14.719  32.901  0.00  0.00    -0.349 N 
ATOM     29  C5  NAG d 904      19.693 -10.933  32.277  0.00  0.00     0.089 C 
ATOM     30  O5  NAG d 904      21.003 -10.984  33.052  0.00  0.00    -0.349 OA
ATOM     31  C8  NAG d 904      22.486 -14.982  35.408  0.00  0.00    -0.003 C 
ATOM     32  O7  NAG d 904      23.266 -16.509  33.696  0.00  0.00    -0.274 OA
ATOM     33  O1  NAG d 904      23.086 -12.260  33.570  0.00  0.00    -0.369 OA
ATOM     34  C4  NAG d 904      18.857 -12.154  32.626  0.00  0.00     0.089 C 
ATOM     35  H   NAG d 904      18.054  -9.582  32.005  0.00  0.00     0.078 H 
ATOM     36  H   NAG d 904      19.575  -8.815  32.472  0.00  0.00     0.078 H 
ATOM     37  H   NAG d 904      17.892 -10.371  34.221  0.00  0.00     0.209 HD
ATOM     38  H   NAG d 904      20.738 -13.464  34.179  0.00  0.00     0.084 H 
ATOM     39  H   NAG d 904      17.063 -12.887  32.083  0.00  0.00     0.210 HD
ATOM     40  H   NAG d 904      19.918 -13.437  31.253  0.00  0.00     0.091 H 
ATOM     41  H   NAG d 904      22.107 -12.222  31.760  0.00  0.00     0.132 H 
ATOM     42  H   NAG d 904      21.968 -15.038  31.973  0.00  0.00     0.163 HD
ATOM     43  H   NAG d 904      19.900 -10.931  31.227  0.00  0.00     0.090 H 
ATOM     44  H   NAG d 904      21.877 -14.103  35.437  0.00  0.00     0.040 H 
ATOM     45  H   NAG d 904      23.463 -14.751  35.779  0.00  0.00     0.040 H 
ATOM     46  H   NAG d 904      22.044 -15.743  36.017  0.00  0.00     0.040 H 
ATOM     47  H   NAG d 904      22.878 -12.270  34.517  0.00  0.00     0.212 HD
ATOM     48  H   NAG d 904      18.610 -12.168  33.667  0.00  0.00     0.091 H 
ENDROOT
TORSDOF 11
