MODEL 1
REMARK VINA RESULT:      -8.7      0.000      0.000
REMARK  0 active torsions:
REMARK  status: ('A' for Active; 'I' for Inactive)
REMARK       I    between atoms: O2_1  and  C2_13 
REMARK       I    between atoms: C6_2  and  C5_7 
REMARK       I    between atoms: C6_4  and  C5_18 
REMARK       I    between atoms: C6_4  and  O6_5 
REMARK       I    between atoms: O3_6  and  C1_24 
REMARK       I    between atoms: O3_6  and  C3_11 
REMARK       I    between atoms: C2_8  and  N2_16 
REMARK       I    between atoms: O4_10  and  C4_25 
REMARK       I    between atoms: C3_12  and  O3_26 
REMARK       I    between atoms: C1_14  and  O1_23 
REMARK       I    between atoms: C7_15  and  C8_21 
REMARK       I    between atoms: C7_15  and  N2_16 
ROOT
ATOM      1  O2  GCD d 903      20.096 -15.916  33.023  0.00  0.00    -0.388 OA
ATOM      2  C6  GCD d 903      15.582 -19.162  31.029  0.00  0.00     0.203 C 
ATOM      3  O6B GCD d 903      14.672 -18.339  30.950  0.00  0.00    -0.646 OA
ATOM      4  C5  GCD d 903      16.881 -18.407  31.449  0.00  0.00     0.127 C 
ATOM      5  C4  GCD d 903      18.030 -19.043  31.666  0.00  0.00    -0.005 C 
ATOM      6  C3  GCD d 903      19.165 -18.133  32.047  0.00  0.00     0.068 C 
ATOM      7  C2  GCD d 903      18.893 -16.732  32.734  0.00  0.00     0.107 C 
ATOM      8  O6A GCD d 903      15.619 -20.506  30.934  0.00  0.00    -0.646 OA
ATOM      9  O5  GCD d 903      16.632 -16.922  31.557  0.00  0.00    -0.343 OA
ATOM     10  C1  GCD d 903      17.832 -16.051  31.808  0.00  0.00     0.159 C 
ATOM     11  O3  GCD d 903      20.127 -18.771  32.910  0.00  0.00    -0.393 OA
ATOM     12  H   GCD d 903      20.693 -16.416  33.601  0.00  0.00     0.210 HD
ATOM     13  H   GCD d 903      17.905 -18.568  31.712  0.00  0.00     0.100 H 
ATOM     14  H   GCD d 903      18.302 -19.564  30.772  0.00  0.00     0.041 H 
ATOM     15  H   GCD d 903      17.870 -19.704  32.492  0.00  0.00     0.041 H 
ATOM     16  H   GCD d 903      19.496 -17.924  31.051  0.00  0.00     0.087 H 
ATOM     17  H   GCD d 903      18.526 -16.853  33.731  0.00  0.00     0.094 H 
ATOM     18  H   GCD d 903      18.396 -15.773  30.941  0.00  0.00     0.133 H 
ATOM     19  H   GCD d 903      19.732 -18.916  33.784  0.00  0.00     0.210 HD
ATOM     20  C6  NAG d 904      12.926 -12.487  31.748  0.00  0.00     0.043 C 
ATOM     21  O6  NAG d 904      12.474 -12.782  33.134  0.00  0.00    -0.398 OA
ATOM     22  O3  NAG d 904      17.125 -14.999  32.543  0.00  0.00    -0.348 OA
ATOM     23  C2  NAG d 904      17.147 -12.588  32.923  0.00  0.00     0.087 C 
ATOM     24  O4  NAG d 904      14.461 -14.908  31.321  0.00  0.00    -0.390 OA
ATOM     25  C3  NAG d 904      16.581 -13.765  32.032  0.00  0.00     0.093 C 
ATOM     26  C1  NAG d 904      16.577 -11.279  32.418  0.00  0.00     0.151 C 
ATOM     27  C7  NAG d 904      19.543 -12.225  34.091  0.00  0.00     0.214 C 
ATOM     28  N2  NAG d 904      18.693 -12.497  32.906  0.00  0.00    -0.349 N 
ATOM     29  C5  NAG d 904      14.464 -12.491  31.626  0.00  0.00     0.089 C 
ATOM     30  O5  NAG d 904      15.055 -11.354  32.448  0.00  0.00    -0.349 OA
ATOM     31  C8  NAG d 904      18.842 -11.996  35.445  0.00  0.00    -0.003 C 
ATOM     32  O7  NAG d 904      20.792 -12.179  34.018  0.00  0.00    -0.274 OA
ATOM     33  O1  NAG d 904      17.117 -10.184  33.233  0.00  0.00    -0.369 OA
ATOM     34  C4  NAG d 904      15.022 -13.814  32.127  0.00  0.00     0.089 C 
ATOM     35  H   NAG d 904      12.527 -13.229  31.089  0.00  0.00     0.078 H 
ATOM     36  H   NAG d 904      12.578 -11.509  31.488  0.00  0.00     0.078 H 
ATOM     37  H   NAG d 904      12.778 -13.666  33.392  0.00  0.00     0.209 HD
ATOM     38  H   NAG d 904      16.853 -12.787  33.932  0.00  0.00     0.084 H 
ATOM     39  H   NAG d 904      14.814 -15.755  31.637  0.00  0.00     0.210 HD
ATOM     40  H   NAG d 904      16.856 -13.615  31.009  0.00  0.00     0.091 H 
ATOM     41  H   NAG d 904      16.861 -11.092  31.404  0.00  0.00     0.132 H 
ATOM     42  H   NAG d 904      19.146 -12.630  32.042  0.00  0.00     0.163 HD
ATOM     43  H   NAG d 904      14.726 -12.361  30.597  0.00  0.00     0.090 H 
ATOM     44  H   NAG d 904      17.783 -12.073  35.315  0.00  0.00     0.040 H 
ATOM     45  H   NAG d 904      19.086 -11.020  35.812  0.00  0.00     0.040 H 
ATOM     46  H   NAG d 904      19.171 -12.734  36.147  0.00  0.00     0.040 H 
ATOM     47  H   NAG d 904      16.876 -10.324  34.162  0.00  0.00     0.212 HD
ATOM     48  H   NAG d 904      14.750 -13.985  33.148  0.00  0.00     0.091 H 
ENDROOT
TORSDOF 11
ENDMDL
MODEL 2
REMARK VINA RESULT:      -8.6      2.461      5.861
REMARK  0 active torsions:
REMARK  status: ('A' for Active; 'I' for Inactive)
REMARK       I    between atoms: O2_1  and  C2_13 
REMARK       I    between atoms: C6_2  and  C5_7 
REMARK       I    between atoms: C6_4  and  C5_18 
REMARK       I    between atoms: C6_4  and  O6_5 
REMARK       I    between atoms: O3_6  and  C1_24 
REMARK       I    between atoms: O3_6  and  C3_11 
REMARK       I    between atoms: C2_8  and  N2_16 
REMARK       I    between atoms: O4_10  and  C4_25 
REMARK       I    between atoms: C3_12  and  O3_26 
REMARK       I    between atoms: C1_14  and  O1_23 
REMARK       I    between atoms: C7_15  and  C8_21 
REMARK       I    between atoms: C7_15  and  N2_16 
ROOT
ATOM      1  O2  GCD d 903      16.833 -10.289  32.320  0.00  0.00    -0.388 OA
ATOM      2  C6  GCD d 903      13.963 -15.330  31.208  0.00  0.00     0.203 C 
ATOM      3  O6B GCD d 903      14.878 -16.145  31.107  0.00  0.00    -0.646 OA
ATOM      4  C5  GCD d 903      14.583 -13.956  31.612  0.00  0.00     0.127 C 
ATOM      5  C4  GCD d 903      13.841 -12.859  31.748  0.00  0.00    -0.005 C 
ATOM      6  C3  GCD d 903      14.626 -11.643  32.156  0.00  0.00     0.068 C 
ATOM      7  C2  GCD d 903      16.170 -11.520  31.829  0.00  0.00     0.107 C 
ATOM      8  O6A GCD d 903      12.644 -15.390  30.940  0.00  0.00    -0.646 OA
ATOM      9  O5  GCD d 903      16.074 -14.075  31.815  0.00  0.00    -0.343 OA
ATOM     10  C1  GCD d 903      16.781 -12.861  32.353  0.00  0.00     0.159 C 
ATOM     11  O3  GCD d 903      14.057 -10.417  31.656  0.00  0.00    -0.393 OA
ATOM     12  H   GCD d 903      16.390  -9.512  31.944  0.00  0.00     0.210 HD
ATOM     13  H   GCD d 903      14.327 -12.932  31.783  0.00  0.00     0.100 H 
ATOM     14  H   GCD d 903      13.095 -13.045  32.492  0.00  0.00     0.041 H 
ATOM     15  H   GCD d 903      13.416 -12.649  30.788  0.00  0.00     0.041 H 
ATOM     16  H   GCD d 903      14.551 -11.797  33.213  0.00  0.00     0.087 H 
ATOM     17  H   GCD d 903      16.335 -11.395  30.779  0.00  0.00     0.094 H 
ATOM     18  H   GCD d 903      16.765 -12.745  33.417  0.00  0.00     0.133 H 
ATOM     19  H   GCD d 903      14.176 -10.374  30.694  0.00  0.00     0.210 HD
ATOM     20  C6  NAG d 904      20.958 -17.118  31.257  0.00  0.00     0.043 C 
ATOM     21  O6  NAG d 904      21.057 -16.898  29.790  0.00  0.00    -0.398 OA
ATOM     22  O3  NAG d 904      18.068 -13.115  31.701  0.00  0.00    -0.348 OA
ATOM     23  C2  NAG d 904      20.469 -12.834  32.038  0.00  0.00     0.087 C 
ATOM     24  O4  NAG d 904      18.295 -16.037  31.629  0.00  0.00    -0.390 OA
ATOM     25  C3  NAG d 904      19.225 -13.787  32.242  0.00  0.00     0.093 C 
ATOM     26  C1  NAG d 904      21.703 -13.523  32.582  0.00  0.00     0.151 C 
ATOM     27  C7  NAG d 904      20.709 -10.157  32.165  0.00  0.00     0.214 C 
ATOM     28  N2  NAG d 904      20.313 -11.464  32.744  0.00  0.00    -0.349 N 
ATOM     29  C5  NAG d 904      20.687 -15.808  32.024  0.00  0.00     0.089 C 
ATOM     30  O5  NAG d 904      21.875 -14.865  31.880  0.00  0.00    -0.349 OA
ATOM     31  C8  NAG d 904      21.345 -10.154  30.760  0.00  0.00    -0.003 C 
ATOM     32  O7  NAG d 904      20.543  -9.079  32.779  0.00  0.00    -0.274 OA
ATOM     33  O1  NAG d 904      22.856 -12.631  32.411  0.00  0.00    -0.369 OA
ATOM     34  C4  NAG d 904      19.442 -15.131  31.474  0.00  0.00     0.089 C 
ATOM     35  H   NAG d 904      20.158 -17.802  31.451  0.00  0.00     0.078 H 
ATOM     36  H   NAG d 904      21.894 -17.511  31.596  0.00  0.00     0.078 H 
ATOM     37  H   NAG d 904      20.219 -16.542  29.458  0.00  0.00     0.209 HD
ATOM     38  H   NAG d 904      20.552 -12.641  30.989  0.00  0.00     0.084 H 
ATOM     39  H   NAG d 904      17.497 -15.611  31.279  0.00  0.00     0.210 HD
ATOM     40  H   NAG d 904      19.095 -14.005  33.281  0.00  0.00     0.091 H 
ATOM     41  H   NAG d 904      21.610 -13.727  33.629  0.00  0.00     0.132 H 
ATOM     42  H   NAG d 904      19.920 -11.461  33.647  0.00  0.00     0.163 HD
ATOM     43  H   NAG d 904      20.540 -16.040  33.058  0.00  0.00     0.090 H 
ATOM     44  H   NAG d 904      21.406 -11.157  30.394  0.00  0.00     0.040 H 
ATOM     45  H   NAG d 904      22.327  -9.733  30.814  0.00  0.00     0.040 H 
ATOM     46  H   NAG d 904      20.742  -9.568  30.098  0.00  0.00     0.040 H 
ATOM     47  H   NAG d 904      22.968 -12.426  31.470  0.00  0.00     0.212 HD
ATOM     48  H   NAG d 904      19.550 -14.912  30.432  0.00  0.00     0.091 H 
ENDROOT
TORSDOF 11
ENDMDL
MODEL 3
REMARK VINA RESULT:      -8.4      1.985      4.814
REMARK  0 active torsions:
REMARK  status: ('A' for Active; 'I' for Inactive)
REMARK       I    between atoms: O2_1  and  C2_13 
REMARK       I    between atoms: C6_2  and  C5_7 
REMARK       I    between atoms: C6_4  and  C5_18 
REMARK       I    between atoms: C6_4  and  O6_5 
REMARK       I    between atoms: O3_6  and  C1_24 
REMARK       I    between atoms: O3_6  and  C3_11 
REMARK       I    between atoms: C2_8  and  N2_16 
REMARK       I    between atoms: O4_10  and  C4_25 
REMARK       I    between atoms: C3_12  and  O3_26 
REMARK       I    between atoms: C1_14  and  O1_23 
REMARK       I    between atoms: C7_15  and  C8_21 
REMARK       I    between atoms: C7_15  and  N2_16 
ROOT
ATOM      1  O2  GCD d 903      15.351 -16.006  32.134  0.00  0.00    -0.388 OA
ATOM      2  C6  GCD d 903      20.880 -17.773  31.039  0.00  0.00     0.203 C 
ATOM      3  O6B GCD d 903      21.499 -16.712  30.999  0.00  0.00    -0.646 OA
ATOM      4  C5  GCD d 903      19.403 -17.456  31.431  0.00  0.00     0.127 C 
ATOM      5  C4  GCD d 903      18.472 -18.405  31.506  0.00  0.00    -0.005 C 
ATOM      6  C3  GCD d 903      17.118 -17.894  31.914  0.00  0.00     0.068 C 
ATOM      7  C2  GCD d 903      16.698 -16.390  31.649  0.00  0.00     0.107 C 
ATOM      8  O6A GCD d 903      21.204 -19.041  30.717  0.00  0.00    -0.646 OA
ATOM      9  O5  GCD d 903      19.221 -15.982  31.701  0.00  0.00    -0.343 OA
ATOM     10  C1  GCD d 903      17.881 -15.553  32.235  0.00  0.00     0.159 C 
ATOM     11  O3  GCD d 903      16.038 -18.668  31.357  0.00  0.00    -0.393 OA
ATOM     12  H   GCD d 903      14.684 -16.575  31.719  0.00  0.00     0.210 HD
ATOM     13  H   GCD d 903      18.446 -17.915  31.564  0.00  0.00     0.100 H 
ATOM     14  H   GCD d 903      18.788 -19.133  32.223  0.00  0.00     0.041 H 
ATOM     15  H   GCD d 903      18.367 -18.817  30.524  0.00  0.00     0.041 H 
ATOM     16  H   GCD d 903      17.264 -17.987  32.970  0.00  0.00     0.087 H 
ATOM     17  H   GCD d 903      16.562 -16.204  30.604  0.00  0.00     0.094 H 
ATOM     18  H   GCD d 903      17.752 -15.641  33.294  0.00  0.00     0.133 H 
ATOM     19  H   GCD d 903      15.990 -18.515  30.400  0.00  0.00     0.210 HD
ATOM     20  C6  NAG d 904      21.249 -10.574  31.434  0.00  0.00     0.043 C 
ATOM     21  O6  NAG d 904      21.041 -10.451  29.966  0.00  0.00    -0.398 OA
ATOM     22  O3  NAG d 904      17.888 -14.211  31.646  0.00  0.00    -0.348 OA
ATOM     23  C2  NAG d 904      17.132 -11.931  32.077  0.00  0.00     0.087 C 
ATOM     24  O4  NAG d 904      20.709 -13.412  31.662  0.00  0.00    -0.390 OA
ATOM     25  C3  NAG d 904      18.308 -12.972  32.253  0.00  0.00     0.093 C 
ATOM     26  C1  NAG d 904      17.554 -10.613  32.691  0.00  0.00     0.151 C 
ATOM     27  C7  NAG d 904      14.459 -12.229  32.140  0.00  0.00     0.214 C 
ATOM     28  N2  NAG d 904      15.808 -12.387  32.737  0.00  0.00    -0.349 N 
ATOM     29  C5  NAG d 904      20.004 -11.132  32.152  0.00  0.00     0.089 C 
ATOM     30  O5  NAG d 904      18.848 -10.148  32.034  0.00  0.00    -0.349 OA
ATOM     31  C8  NAG d 904      14.355 -11.541  30.765  0.00  0.00    -0.003 C 
ATOM     32  O7  NAG d 904      13.423 -12.632  32.717  0.00  0.00    -0.274 OA
ATOM     33  O1  NAG d 904      16.455  -9.651  32.545  0.00  0.00    -0.369 OA
ATOM     34  C4  NAG d 904      19.597 -12.459  31.532  0.00  0.00     0.089 C 
ATOM     35  H   NAG d 904      22.074 -11.232  31.611  0.00  0.00     0.078 H 
ATOM     36  H   NAG d 904      21.442  -9.596  31.822  0.00  0.00     0.078 H 
ATOM     37  H   NAG d 904      20.863 -11.327  29.590  0.00  0.00     0.209 HD
ATOM     38  H   NAG d 904      16.946 -11.839  31.027  0.00  0.00     0.084 H 
ATOM     39  H   NAG d 904      20.455 -14.261  31.267  0.00  0.00     0.210 HD
ATOM     40  H   NAG d 904      18.528 -13.106  33.291  0.00  0.00     0.091 H 
ATOM     41  H   NAG d 904      17.753 -10.713  33.738  0.00  0.00     0.132 H 
ATOM     42  H   NAG d 904      15.866 -12.815  33.623  0.00  0.00     0.163 HD
ATOM     43  H   NAG d 904      20.242 -11.280  33.185  0.00  0.00     0.090 H 
ATOM     44  H   NAG d 904      15.333 -11.266  30.429  0.00  0.00     0.040 H 
ATOM     45  H   NAG d 904      13.748 -10.664  30.849  0.00  0.00     0.040 H 
ATOM     46  H   NAG d 904      13.912 -12.215  30.061  0.00  0.00     0.040 H 
ATOM     47  H   NAG d 904      16.248  -9.537  31.604  0.00  0.00     0.212 HD
ATOM     48  H   NAG d 904      19.380 -12.348  30.490  0.00  0.00     0.091 H 
ENDROOT
TORSDOF 11
ENDMDL
MODEL 4
REMARK VINA RESULT:      -8.1      2.244      5.931
REMARK  0 active torsions:
REMARK  status: ('A' for Active; 'I' for Inactive)
REMARK       I    between atoms: O2_1  and  C2_13 
REMARK       I    between atoms: C6_2  and  C5_7 
REMARK       I    between atoms: C6_4  and  C5_18 
REMARK       I    between atoms: C6_4  and  O6_5 
REMARK       I    between atoms: O3_6  and  C1_24 
REMARK       I    between atoms: O3_6  and  C3_11 
REMARK       I    between atoms: C2_8  and  N2_16 
REMARK       I    between atoms: O4_10  and  C4_25 
REMARK       I    between atoms: C3_12  and  O3_26 
REMARK       I    between atoms: C1_14  and  O1_23 
REMARK       I    between atoms: C7_15  and  C8_21 
REMARK       I    between atoms: C7_15  and  N2_16 
ROOT
ATOM      1  O2  GCD d 903      15.217 -15.970  31.506  0.00  0.00    -0.388 OA
ATOM      2  C6  GCD d 903      12.343 -10.828  31.072  0.00  0.00     0.203 C 
ATOM      3  O6B GCD d 903      13.164 -10.023  31.507  0.00  0.00    -0.646 OA
ATOM      4  C5  GCD d 903      13.021 -12.233  31.030  0.00  0.00     0.127 C 
ATOM      5  C4  GCD d 903      12.360 -13.326  30.650  0.00  0.00    -0.005 C 
ATOM      6  C3  GCD d 903      13.196 -14.575  30.666  0.00  0.00     0.068 C 
ATOM      7  C2  GCD d 903      14.458 -14.702  31.615  0.00  0.00     0.107 C 
ATOM      8  O6A GCD d 903      11.036 -10.732  30.760  0.00  0.00    -0.646 OA
ATOM      9  O5  GCD d 903      14.464 -12.150  31.464  0.00  0.00    -0.343 OA
ATOM     10  C1  GCD d 903      15.284 -13.405  31.330  0.00  0.00     0.159 C 
ATOM     11  O3  GCD d 903      12.424 -15.760  30.942  0.00  0.00    -0.393 OA
ATOM     12  H   GCD d 903      14.628 -16.716  31.699  0.00  0.00     0.210 HD
ATOM     13  H   GCD d 903      12.820 -13.262  30.817  0.00  0.00     0.100 H 
ATOM     14  H   GCD d 903      12.001 -13.173  29.654  0.00  0.00     0.041 H 
ATOM     15  H   GCD d 903      11.567 -13.471  31.353  0.00  0.00     0.041 H 
ATOM     16  H   GCD d 903      13.575 -14.484  29.669  0.00  0.00     0.087 H 
ATOM     17  H   GCD d 903      14.166 -14.766  32.642  0.00  0.00     0.094 H 
ATOM     18  H   GCD d 903      15.708 -13.583  30.364  0.00  0.00     0.133 H 
ATOM     19  H   GCD d 903      12.130 -15.747  31.866  0.00  0.00     0.210 HD
ATOM     20  C6  NAG d 904      18.786  -9.152  33.866  0.00  0.00     0.043 C 
ATOM     21  O6  NAG d 904      18.256  -9.286  35.249  0.00  0.00    -0.398 OA
ATOM     22  O3  NAG d 904      16.191 -13.131  32.448  0.00  0.00    -0.348 OA
ATOM     23  C2  NAG d 904      18.501 -13.468  33.159  0.00  0.00     0.087 C 
ATOM     24  O4  NAG d 904      16.480 -10.214  32.467  0.00  0.00    -0.390 OA
ATOM     25  C3  NAG d 904      17.493 -12.511  32.409  0.00  0.00     0.093 C 
ATOM     26  C1  NAG d 904      19.875 -12.831  33.149  0.00  0.00     0.151 C 
ATOM     27  C7  NAG d 904      18.668 -16.151  33.274  0.00  0.00     0.214 C 
ATOM     28  N2  NAG d 904      18.600 -14.875  32.520  0.00  0.00    -0.349 N 
ATOM     29  C5  NAG d 904      18.809 -10.503  33.120  0.00  0.00     0.089 C 
ATOM     30  O5  NAG d 904      19.791 -11.453  33.792  0.00  0.00    -0.349 OA
ATOM     31  C8  NAG d 904      18.659 -16.080  34.814  0.00  0.00    -0.003 C 
ATOM     32  O7  NAG d 904      18.731 -17.262  32.700  0.00  0.00    -0.274 OA
ATOM     33  O1  NAG d 904      20.816 -13.729  33.829  0.00  0.00    -0.369 OA
ATOM     34  C4  NAG d 904      17.422 -11.126  33.131  0.00  0.00     0.089 C 
ATOM     35  H   NAG d 904      18.166  -8.470  33.323  0.00  0.00     0.078 H 
ATOM     36  H   NAG d 904      19.792  -8.796  33.931  0.00  0.00     0.078 H 
ATOM     37  H   NAG d 904      17.343  -9.609  35.216  0.00  0.00     0.209 HD
ATOM     38  H   NAG d 904      18.131 -13.599  34.155  0.00  0.00     0.084 H 
ATOM     39  H   NAG d 904      15.593 -10.606  32.471  0.00  0.00     0.210 HD
ATOM     40  H   NAG d 904      17.816 -12.354  31.401  0.00  0.00     0.091 H 
ATOM     41  H   NAG d 904      20.235 -12.689  32.151  0.00  0.00     0.132 H 
ATOM     42  H   NAG d 904      18.619 -14.927  31.537  0.00  0.00     0.163 HD
ATOM     43  H   NAG d 904      19.114 -10.330  32.109  0.00  0.00     0.090 H 
ATOM     44  H   NAG d 904      18.602 -15.058  35.123  0.00  0.00     0.040 H 
ATOM     45  H   NAG d 904      19.558 -16.518  35.196  0.00  0.00     0.040 H 
ATOM     46  H   NAG d 904      17.813 -16.616  35.191  0.00  0.00     0.040 H 
ATOM     47  H   NAG d 904      20.518 -13.880  34.739  0.00  0.00     0.212 HD
ATOM     48  H   NAG d 904      17.077 -11.284  34.132  0.00  0.00     0.091 H 
ENDROOT
TORSDOF 11
ENDMDL
MODEL 5
REMARK VINA RESULT:      -7.8      2.220      7.059
REMARK  0 active torsions:
REMARK  status: ('A' for Active; 'I' for Inactive)
REMARK       I    between atoms: O2_1  and  C2_13 
REMARK       I    between atoms: C6_2  and  C5_7 
REMARK       I    between atoms: C6_4  and  C5_18 
REMARK       I    between atoms: C6_4  and  O6_5 
REMARK       I    between atoms: O3_6  and  C1_24 
REMARK       I    between atoms: O3_6  and  C3_11 
REMARK       I    between atoms: C2_8  and  N2_16 
REMARK       I    between atoms: O4_10  and  C4_25 
REMARK       I    between atoms: C3_12  and  O3_26 
REMARK       I    between atoms: C1_14  and  O1_23 
REMARK       I    between atoms: C7_15  and  C8_21 
REMARK       I    between atoms: C7_15  and  N2_16 
ROOT
ATOM      1  O2  GCD d 903      14.384 -17.323  30.773  0.00  0.00    -0.388 OA
ATOM      2  C6  GCD d 903      15.247 -11.594  31.924  0.00  0.00     0.203 C 
ATOM      3  O6B GCD d 903      16.398 -11.576  32.356  0.00  0.00    -0.646 OA
ATOM      4  C5  GCD d 903      14.923 -13.053  31.475  0.00  0.00     0.127 C 
ATOM      5  C4  GCD d 903      13.725 -13.399  31.008  0.00  0.00    -0.005 C 
ATOM      6  C3  GCD d 903      13.622 -14.847  30.617  0.00  0.00     0.068 C 
ATOM      7  C2  GCD d 903      14.562 -15.939  31.274  0.00  0.00     0.107 C 
ATOM      8  O6A GCD d 903      14.265 -10.672  31.882  0.00  0.00    -0.646 OA
ATOM      9  O5  GCD d 903      16.124 -13.950  31.645  0.00  0.00    -0.343 OA
ATOM     10  C1  GCD d 903      16.003 -15.352  31.112  0.00  0.00     0.159 C 
ATOM     11  O3  GCD d 903      12.292 -15.377  30.782  0.00  0.00    -0.393 OA
ATOM     12  H   GCD d 903      13.466 -17.602  30.914  0.00  0.00     0.210 HD
ATOM     13  H   GCD d 903      14.131 -13.665  31.098  0.00  0.00     0.100 H 
ATOM     14  H   GCD d 903      13.513 -12.801  30.147  0.00  0.00     0.041 H 
ATOM     15  H   GCD d 903      13.023 -13.238  31.800  0.00  0.00     0.041 H 
ATOM     16  H   GCD d 903      13.955 -14.727  29.607  0.00  0.00     0.087 H 
ATOM     17  H   GCD d 903      14.314 -16.098  32.302  0.00  0.00     0.094 H 
ATOM     18  H   GCD d 903      16.208 -15.473  30.069  0.00  0.00     0.133 H 
ATOM     19  H   GCD d 903      12.087 -15.447  31.728  0.00  0.00     0.210 HD
ATOM     20  C6  NAG d 904      21.426 -14.836  33.775  0.00  0.00     0.043 C 
ATOM     21  O6  NAG d 904      20.955 -15.006  35.176  0.00  0.00    -0.398 OA
ATOM     22  O3  NAG d 904      16.911 -15.977  32.077  0.00  0.00    -0.348 OA
ATOM     23  C2  NAG d 904      18.547 -17.778  32.271  0.00  0.00     0.087 C 
ATOM     24  O4  NAG d 904      18.924 -13.920  32.636  0.00  0.00    -0.390 OA
ATOM     25  C3  NAG d 904      18.319 -16.252  31.928  0.00  0.00     0.093 C 
ATOM     26  C1  NAG d 904      20.023 -18.091  32.139  0.00  0.00     0.151 C 
ATOM     27  C7  NAG d 904      17.040 -19.958  31.806  0.00  0.00     0.214 C 
ATOM     28  N2  NAG d 904      17.751 -18.737  31.352  0.00  0.00    -0.349 N 
ATOM     29  C5  NAG d 904      20.603 -15.679  32.780  0.00  0.00     0.089 C 
ATOM     30  O5  NAG d 904      20.813 -17.163  33.054  0.00  0.00    -0.349 OA
ATOM     31  C8  NAG d 904      17.110 -20.318  33.303  0.00  0.00    -0.003 C 
ATOM     32  O7  NAG d 904      16.399 -20.688  31.016  0.00  0.00    -0.274 OA
ATOM     33  O1  NAG d 904      20.233 -19.512  32.439  0.00  0.00    -0.369 OA
ATOM     34  C4  NAG d 904      19.125 -15.349  32.917  0.00  0.00     0.089 C 
ATOM     35  H   NAG d 904      21.343 -13.805  33.505  0.00  0.00     0.078 H 
ATOM     36  H   NAG d 904      22.442 -15.169  33.726  0.00  0.00     0.078 H 
ATOM     37  H   NAG d 904      20.035 -14.710  35.245  0.00  0.00     0.209 HD
ATOM     38  H   NAG d 904      18.196 -17.933  33.270  0.00  0.00     0.084 H 
ATOM     39  H   NAG d 904      17.983 -13.704  32.722  0.00  0.00     0.210 HD
ATOM     40  H   NAG d 904      18.650 -16.047  30.931  0.00  0.00     0.091 H 
ATOM     41  H   NAG d 904      20.373 -17.920  31.142  0.00  0.00     0.132 H 
ATOM     42  H   NAG d 904      17.714 -18.520  30.392  0.00  0.00     0.163 HD
ATOM     43  H   NAG d 904      20.929 -15.451  31.786  0.00  0.00     0.090 H 
ATOM     44  H   NAG d 904      17.696 -19.587  33.819  0.00  0.00     0.040 H 
ATOM     45  H   NAG d 904      17.561 -21.282  33.417  0.00  0.00     0.040 H 
ATOM     46  H   NAG d 904      16.121 -20.337  33.712  0.00  0.00     0.040 H 
ATOM     47  H   NAG d 904      19.924 -19.701  33.339  0.00  0.00     0.212 HD
ATOM     48  H   NAG d 904      18.777 -15.541  33.910  0.00  0.00     0.091 H 
ENDROOT
TORSDOF 11
ENDMDL
MODEL 6
REMARK VINA RESULT:      -7.8      2.326      4.452
REMARK  0 active torsions:
REMARK  status: ('A' for Active; 'I' for Inactive)
REMARK       I    between atoms: O2_1  and  C2_13 
REMARK       I    between atoms: C6_2  and  C5_7 
REMARK       I    between atoms: C6_4  and  C5_18 
REMARK       I    between atoms: C6_4  and  O6_5 
REMARK       I    between atoms: O3_6  and  C1_24 
REMARK       I    between atoms: O3_6  and  C3_11 
REMARK       I    between atoms: C2_8  and  N2_16 
REMARK       I    between atoms: O4_10  and  C4_25 
REMARK       I    between atoms: C3_12  and  O3_26 
REMARK       I    between atoms: C1_14  and  O1_23 
REMARK       I    between atoms: C7_15  and  C8_21 
REMARK       I    between atoms: C7_15  and  N2_16 
ROOT
ATOM      1  O2  GCD d 903      19.423 -17.073  31.794  0.00  0.00    -0.388 OA
ATOM      2  C6  GCD d 903      14.168 -14.420  31.304  0.00  0.00     0.203 C 
ATOM      3  O6B GCD d 903      14.443 -13.239  31.507  0.00  0.00    -0.646 OA
ATOM      4  C5  GCD d 903      15.502 -15.231  31.299  0.00  0.00     0.127 C 
ATOM      5  C4  GCD d 903      15.523 -16.554  31.152  0.00  0.00    -0.005 C 
ATOM      6  C3  GCD d 903      16.907 -17.142  31.161  0.00  0.00     0.068 C 
ATOM      7  C2  GCD d 903      18.103 -16.406  31.893  0.00  0.00     0.107 C 
ATOM      8  O6A GCD d 903      13.004 -15.091  31.206  0.00  0.00    -0.646 OA
ATOM      9  O5  GCD d 903      16.690 -14.317  31.473  0.00  0.00    -0.343 OA
ATOM     10  C1  GCD d 903      18.051 -14.945  31.338  0.00  0.00     0.159 C 
ATOM     11  O3  GCD d 903      16.941 -18.484  31.685  0.00  0.00    -0.393 OA
ATOM     12  H   GCD d 903      19.360 -17.969  32.160  0.00  0.00     0.210 HD
ATOM     13  H   GCD d 903      15.884 -16.228  31.232  0.00  0.00     0.100 H 
ATOM     14  H   GCD d 903      15.059 -16.798  30.220  0.00  0.00     0.041 H 
ATOM     15  H   GCD d 903      15.002 -16.970  31.989  0.00  0.00     0.041 H 
ATOM     16  H   GCD d 903      17.089 -17.046  30.110  0.00  0.00     0.087 H 
ATOM     17  H   GCD d 903      17.980 -16.429  32.956  0.00  0.00     0.094 H 
ATOM     18  H   GCD d 903      18.423 -15.042  30.339  0.00  0.00     0.133 H 
ATOM     19  H   GCD d 903      16.765 -18.462  32.639  0.00  0.00     0.210 HD
ATOM     20  C6  NAG d 904      18.828  -9.108  32.786  0.00  0.00     0.043 C 
ATOM     21  O6  NAG d 904      18.575  -9.250  34.245  0.00  0.00    -0.398 OA
ATOM     22  O3  NAG d 904      18.746 -14.035  32.252  0.00  0.00    -0.348 OA
ATOM     23  C2  NAG d 904      20.910 -12.959  32.599  0.00  0.00     0.087 C 
ATOM     24  O4  NAG d 904      17.382 -11.463  31.914  0.00  0.00    -0.390 OA
ATOM     25  C3  NAG d 904      19.483 -12.837  31.930  0.00  0.00     0.093 C 
ATOM     26  C1  NAG d 904      21.699 -11.705  32.291  0.00  0.00     0.151 C 
ATOM     27  C7  NAG d 904      22.535 -15.072  32.968  0.00  0.00     0.214 C 
ATOM     28  N2  NAG d 904      21.714 -14.187  32.105  0.00  0.00    -0.349 N 
ATOM     29  C5  NAG d 904      19.529 -10.348  32.195  0.00  0.00     0.089 C 
ATOM     30  O5  NAG d 904      20.923 -10.492  32.790  0.00  0.00    -0.349 OA
ATOM     31  C8  NAG d 904      22.615 -14.740  34.471  0.00  0.00    -0.003 C 
ATOM     32  O7  NAG d 904      23.152 -16.061  32.512  0.00  0.00    -0.274 OA
ATOM     33  O1  NAG d 904      23.032 -11.826  32.896  0.00  0.00    -0.369 OA
ATOM     34  C4  NAG d 904      18.721 -11.598  32.503  0.00  0.00     0.089 C 
ATOM     35  H   NAG d 904      17.892  -8.969  32.285  0.00  0.00     0.078 H 
ATOM     36  H   NAG d 904      19.473  -8.266  32.644  0.00  0.00     0.078 H 
ATOM     37  H   NAG d 904      17.991 -10.008  34.399  0.00  0.00     0.209 HD
ATOM     38  H   NAG d 904      20.756 -13.085  33.651  0.00  0.00     0.084 H 
ATOM     39  H   NAG d 904      16.861 -12.258  32.108  0.00  0.00     0.210 HD
ATOM     40  H   NAG d 904      19.582 -12.717  30.872  0.00  0.00     0.091 H 
ATOM     41  H   NAG d 904      21.838 -11.576  31.238  0.00  0.00     0.132 H 
ATOM     42  H   NAG d 904      21.677 -14.397  31.144  0.00  0.00     0.163 HD
ATOM     43  H   NAG d 904      19.605 -10.225  31.134  0.00  0.00     0.090 H 
ATOM     44  H   NAG d 904      22.030 -13.868  34.676  0.00  0.00     0.040 H 
ATOM     45  H   NAG d 904      23.634 -14.556  34.742  0.00  0.00     0.040 H 
ATOM     46  H   NAG d 904      22.238 -15.565  35.040  0.00  0.00     0.040 H 
ATOM     47  H   NAG d 904      22.942 -11.944  33.854  0.00  0.00     0.212 HD
ATOM     48  H   NAG d 904      18.604 -11.731  33.559  0.00  0.00     0.091 H 
ENDROOT
TORSDOF 11
ENDMDL
MODEL 7
REMARK VINA RESULT:      -7.7      2.014      6.777
REMARK  0 active torsions:
REMARK  status: ('A' for Active; 'I' for Inactive)
REMARK       I    between atoms: O2_1  and  C2_13 
REMARK       I    between atoms: C6_2  and  C5_7 
REMARK       I    between atoms: C6_4  and  C5_18 
REMARK       I    between atoms: C6_4  and  O6_5 
REMARK       I    between atoms: O3_6  and  C1_24 
REMARK       I    between atoms: O3_6  and  C3_11 
REMARK       I    between atoms: C2_8  and  N2_16 
REMARK       I    between atoms: O4_10  and  C4_25 
REMARK       I    between atoms: C3_12  and  O3_26 
REMARK       I    between atoms: C1_14  and  O1_23 
REMARK       I    between atoms: C7_15  and  C8_21 
REMARK       I    between atoms: C7_15  and  N2_16 
ROOT
ATOM      1  O2  GCD d 903      14.205 -16.940  30.796  0.00  0.00    -0.388 OA
ATOM      2  C6  GCD d 903      14.348 -11.104  31.696  0.00  0.00     0.203 C 
ATOM      3  O6B GCD d 903      15.425 -10.945  32.266  0.00  0.00    -0.646 OA
ATOM      4  C5  GCD d 903      14.228 -12.608  31.299  0.00  0.00     0.127 C 
ATOM      5  C4  GCD d 903      13.141 -13.100  30.708  0.00  0.00    -0.005 C 
ATOM      6  C3  GCD d 903      13.232 -14.568  30.396  0.00  0.00     0.068 C 
ATOM      7  C2  GCD d 903      14.181 -15.523  31.231  0.00  0.00     0.107 C 
ATOM      8  O6A GCD d 903      13.294 -10.293  31.475  0.00  0.00    -0.646 OA
ATOM      9  O5  GCD d 903      15.479 -13.366  31.673  0.00  0.00    -0.343 OA
ATOM     10  C1  GCD d 903      15.565 -14.797  31.215  0.00  0.00     0.159 C 
ATOM     11  O3  GCD d 903      11.950 -15.225  30.426  0.00  0.00    -0.393 OA
ATOM     12  H   GCD d 903      13.308 -17.306  30.839  0.00  0.00     0.210 HD
ATOM     13  H   GCD d 903      13.556 -13.317  30.864  0.00  0.00     0.100 H 
ATOM     14  H   GCD d 903      12.986 -12.569  29.792  0.00  0.00     0.041 H 
ATOM     15  H   GCD d 903      12.330 -12.976  31.395  0.00  0.00     0.041 H 
ATOM     16  H   GCD d 903      13.681 -14.462  29.431  0.00  0.00     0.087 H 
ATOM     17  H   GCD d 903      13.816 -15.657  32.228  0.00  0.00     0.094 H 
ATOM     18  H   GCD d 903      15.916 -14.946  30.215  0.00  0.00     0.133 H 
ATOM     19  H   GCD d 903      11.631 -15.271  31.341  0.00  0.00     0.210 HD
ATOM     20  C6  NAG d 904      20.519 -13.591  34.498  0.00  0.00     0.043 C 
ATOM     21  O6  NAG d 904      19.888 -13.741  35.837  0.00  0.00    -0.398 OA
ATOM     22  O3  NAG d 904      16.397 -15.277  32.322  0.00  0.00    -0.348 OA
ATOM     23  C2  NAG d 904      18.161 -16.885  32.828  0.00  0.00     0.087 C 
ATOM     24  O4  NAG d 904      18.110 -12.997  33.001  0.00  0.00    -0.390 OA
ATOM     25  C3  NAG d 904      17.832 -15.410  32.367  0.00  0.00     0.093 C 
ATOM     26  C1  NAG d 904      19.665 -17.048  32.901  0.00  0.00     0.151 C 
ATOM     27  C7  NAG d 904      16.947 -19.231  32.312  0.00  0.00     0.214 C 
ATOM     28  N2  NAG d 904      17.589 -17.966  31.877  0.00  0.00    -0.349 N 
ATOM     29  C5  NAG d 904      19.919 -14.561  33.461  0.00  0.00     0.089 C 
ATOM     30  O5  NAG d 904      20.234 -16.000  33.849  0.00  0.00    -0.349 OA
ATOM     31  C8  NAG d 904      16.856 -19.510  33.825  0.00  0.00    -0.003 C 
ATOM     32  O7  NAG d 904      16.489 -20.061  31.494  0.00  0.00    -0.274 OA
ATOM     33  O1  NAG d 904      19.971 -18.424  33.311  0.00  0.00    -0.369 OA
ATOM     34  C4  NAG d 904      18.411 -14.381  33.392  0.00  0.00     0.089 C 
ATOM     35  H   NAG d 904      20.371 -12.587  34.157  0.00  0.00     0.078 H 
ATOM     36  H   NAG d 904      21.560 -13.817  34.597  0.00  0.00     0.078 H 
ATOM     37  H   NAG d 904      18.942 -13.540  35.772  0.00  0.00     0.209 HD
ATOM     38  H   NAG d 904      17.699 -17.028  33.783  0.00  0.00     0.084 H 
ATOM     39  H   NAG d 904      17.148 -12.875  32.956  0.00  0.00     0.210 HD
ATOM     40  H   NAG d 904      18.268 -15.219  31.408  0.00  0.00     0.091 H 
ATOM     41  H   NAG d 904      20.124 -16.890  31.947  0.00  0.00     0.132 H 
ATOM     42  H   NAG d 904      17.656 -17.800  30.909  0.00  0.00     0.163 HD
ATOM     43  H   NAG d 904      20.347 -14.348  32.504  0.00  0.00     0.090 H 
ATOM     44  H   NAG d 904      17.296 -18.697  34.365  0.00  0.00     0.040 H 
ATOM     45  H   NAG d 904      17.380 -20.414  34.053  0.00  0.00     0.040 H 
ATOM     46  H   NAG d 904      15.829 -19.612  34.108  0.00  0.00     0.040 H 
ATOM     47  H   NAG d 904      19.568 -18.601  34.175  0.00  0.00     0.212 HD
ATOM     48  H   NAG d 904      17.956 -14.561  34.344  0.00  0.00     0.091 H 
ENDROOT
TORSDOF 11
ENDMDL
MODEL 8
REMARK VINA RESULT:      -7.7      1.682      4.699
REMARK  0 active torsions:
REMARK  status: ('A' for Active; 'I' for Inactive)
REMARK       I    between atoms: O2_1  and  C2_13 
REMARK       I    between atoms: C6_2  and  C5_7 
REMARK       I    between atoms: C6_4  and  C5_18 
REMARK       I    between atoms: C6_4  and  O6_5 
REMARK       I    between atoms: O3_6  and  C1_24 
REMARK       I    between atoms: O3_6  and  C3_11 
REMARK       I    between atoms: C2_8  and  N2_16 
REMARK       I    between atoms: O4_10  and  C4_25 
REMARK       I    between atoms: C3_12  and  O3_26 
REMARK       I    between atoms: C1_14  and  O1_23 
REMARK       I    between atoms: C7_15  and  C8_21 
REMARK       I    between atoms: C7_15  and  N2_16 
ROOT
ATOM      1  O2  GCD d 903      13.868 -16.071  31.276  0.00  0.00    -0.388 OA
ATOM      2  C6  GCD d 903      19.150 -18.706  31.503  0.00  0.00     0.203 C 
ATOM      3  O6B GCD d 903      19.913 -17.764  31.710  0.00  0.00    -0.646 OA
ATOM      4  C5  GCD d 903      17.689 -18.158  31.526  0.00  0.00     0.127 C 
ATOM      5  C4  GCD d 903      16.638 -18.938  31.281  0.00  0.00    -0.005 C 
ATOM      6  C3  GCD d 903      15.318 -18.221  31.366  0.00  0.00     0.068 C 
ATOM      7  C2  GCD d 903      15.221 -16.659  31.125  0.00  0.00     0.107 C 
ATOM      8  O6A GCD d 903      19.350 -19.997  31.174  0.00  0.00    -0.646 OA
ATOM      9  O5  GCD d 903      17.669 -16.686  31.858  0.00  0.00    -0.343 OA
ATOM     10  C1  GCD d 903      16.318 -16.056  32.062  0.00  0.00     0.159 C 
ATOM     11  O3  GCD d 903      14.321 -18.780  30.489  0.00  0.00    -0.393 OA
ATOM     12  H   GCD d 903      13.258 -16.503  30.659  0.00  0.00     0.210 HD
ATOM     13  H   GCD d 903      16.673 -18.454  31.370  0.00  0.00     0.100 H 
ATOM     14  H   GCD d 903      16.635 -19.735  31.994  0.00  0.00     0.041 H 
ATOM     15  H   GCD d 903      16.738 -19.289  30.275  0.00  0.00     0.041 H 
ATOM     16  H   GCD d 903      15.161 -18.377  32.414  0.00  0.00     0.087 H 
ATOM     17  H   GCD d 903      15.399 -16.413  30.099  0.00  0.00     0.094 H 
ATOM     18  H   GCD d 903      15.898 -16.161  33.041  0.00  0.00     0.133 H 
ATOM     19  H   GCD d 903      14.555 -18.585  29.568  0.00  0.00     0.210 HD
ATOM     20  C6  NAG d 904      20.500 -11.693  32.560  0.00  0.00     0.043 C 
ATOM     21  O6  NAG d 904      20.712 -11.481  31.104  0.00  0.00    -0.398 OA
ATOM     22  O3  NAG d 904      16.688 -14.715  31.604  0.00  0.00    -0.348 OA
ATOM     23  C2  NAG d 904      16.203 -12.357  32.009  0.00  0.00     0.087 C 
ATOM     24  O4  NAG d 904      19.489 -14.405  32.412  0.00  0.00    -0.390 OA
ATOM     25  C3  NAG d 904      17.115 -13.588  32.398  0.00  0.00     0.093 C 
ATOM     26  C1  NAG d 904      16.642 -11.153  32.816  0.00  0.00     0.151 C 
ATOM     27  C7  NAG d 904      13.597 -12.200  31.358  0.00  0.00     0.214 C 
ATOM     28  N2  NAG d 904      14.697 -12.606  32.268  0.00  0.00    -0.349 N 
ATOM     29  C5  NAG d 904      19.037 -12.059  32.886  0.00  0.00     0.089 C 
ATOM     30  O5  NAG d 904      18.120 -10.890  32.554  0.00  0.00    -0.349 OA
ATOM     31  C8  NAG d 904      13.972 -11.454  30.062  0.00  0.00    -0.003 C 
ATOM     32  O7  NAG d 904      12.396 -12.443  31.614  0.00  0.00    -0.274 OA
ATOM     33  O1  NAG d 904      15.783 -10.014  32.470  0.00  0.00    -0.369 OA
ATOM     34  C4  NAG d 904      18.613 -13.274  32.077  0.00  0.00     0.089 C 
ATOM     35  H   NAG d 904      21.135 -12.487  32.891  0.00  0.00     0.078 H 
ATOM     36  H   NAG d 904      20.729 -10.777  33.064  0.00  0.00     0.078 H 
ATOM     37  H   NAG d 904      20.510 -12.300  30.625  0.00  0.00     0.209 HD
ATOM     38  H   NAG d 904      16.321 -12.196  30.958  0.00  0.00     0.084 H 
ATOM     39  H   NAG d 904      19.223 -15.183  31.898  0.00  0.00     0.210 HD
ATOM     40  H   NAG d 904      17.026 -13.795  33.444  0.00  0.00     0.091 H 
ATOM     41  H   NAG d 904      16.536 -11.324  33.867  0.00  0.00     0.132 H 
ATOM     42  H   NAG d 904      14.449 -13.071  33.100  0.00  0.00     0.163 HD
ATOM     43  H   NAG d 904      18.965 -12.284  33.930  0.00  0.00     0.090 H 
ATOM     44  H   NAG d 904      15.034 -11.336  30.013  0.00  0.00     0.040 H 
ATOM     45  H   NAG d 904      13.506 -10.490  30.058  0.00  0.00     0.040 H 
ATOM     46  H   NAG d 904      13.635 -12.016  29.216  0.00  0.00     0.040 H 
ATOM     47  H   NAG d 904      15.856  -9.832  31.520  0.00  0.00     0.212 HD
ATOM     48  H   NAG d 904      18.702 -13.088  31.027  0.00  0.00     0.091 H 
ENDROOT
TORSDOF 11
ENDMDL
MODEL 9
REMARK VINA RESULT:      -7.6      2.043      6.395
REMARK  0 active torsions:
REMARK  status: ('A' for Active; 'I' for Inactive)
REMARK       I    between atoms: O2_1  and  C2_13 
REMARK       I    between atoms: C6_2  and  C5_7 
REMARK       I    between atoms: C6_4  and  C5_18 
REMARK       I    between atoms: C6_4  and  O6_5 
REMARK       I    between atoms: O3_6  and  C1_24 
REMARK       I    between atoms: O3_6  and  C3_11 
REMARK       I    between atoms: C2_8  and  N2_16 
REMARK       I    between atoms: O4_10  and  C4_25 
REMARK       I    between atoms: C3_12  and  O3_26 
REMARK       I    between atoms: C1_14  and  O1_23 
REMARK       I    between atoms: C7_15  and  C8_21 
REMARK       I    between atoms: C7_15  and  N2_16 
ROOT
ATOM      1  O2  GCD d 903      18.380 -14.244  32.781  0.00  0.00    -0.388 OA
ATOM      2  C6  GCD d 903      12.826 -13.185  31.071  0.00  0.00     0.203 C 
ATOM      3  O6B GCD d 903      12.417 -14.305  30.772  0.00  0.00    -0.646 OA
ATOM      4  C5  GCD d 903      14.268 -13.335  31.648  0.00  0.00     0.127 C 
ATOM      5  C4  GCD d 903      14.996 -12.282  32.015  0.00  0.00    -0.005 C 
ATOM      6  C3  GCD d 903      16.351 -12.641  32.558  0.00  0.00     0.068 C 
ATOM      7  C2  GCD d 903      17.065 -13.993  32.145  0.00  0.00     0.107 C 
ATOM      8  O6A GCD d 903      12.327 -11.946  30.894  0.00  0.00    -0.646 OA
ATOM      9  O5  GCD d 903      14.672 -14.787  31.721  0.00  0.00    -0.343 OA
ATOM     10  C1  GCD d 903      15.981 -15.092  32.398  0.00  0.00     0.159 C 
ATOM     11  O3  GCD d 903      17.341 -11.625  32.307  0.00  0.00    -0.393 OA
ATOM     12  H   GCD d 903      18.984 -13.516  32.571  0.00  0.00     0.210 HD
ATOM     13  H   GCD d 903      15.100 -12.764  32.003  0.00  0.00     0.100 H 
ATOM     14  H   GCD d 903      14.460 -11.747  32.771  0.00  0.00     0.041 H 
ATOM     15  H   GCD d 903      15.158 -11.693  31.136  0.00  0.00     0.041 H 
ATOM     16  H   GCD d 903      16.048 -12.758  33.578  0.00  0.00     0.087 H 
ATOM     17  H   GCD d 903      17.373 -13.971  31.120  0.00  0.00     0.094 H 
ATOM     18  H   GCD d 903      15.947 -15.171  33.465  0.00  0.00     0.133 H 
ATOM     19  H   GCD d 903      17.546 -11.600  31.360  0.00  0.00     0.210 HD
ATOM     20  C6  NAG d 904      13.698 -20.312  30.322  0.00  0.00     0.043 C 
ATOM     21  O6  NAG d 904      14.123 -20.144  28.907  0.00  0.00    -0.398 OA
ATOM     22  O3  NAG d 904      16.294 -16.294  31.622  0.00  0.00    -0.348 OA
ATOM     23  C2  NAG d 904      17.379 -18.471  31.826  0.00  0.00     0.087 C 
ATOM     24  O4  NAG d 904      13.686 -17.509  31.057  0.00  0.00    -0.390 OA
ATOM     25  C3  NAG d 904      16.024 -17.670  31.960  0.00  0.00     0.093 C 
ATOM     26  C1  NAG d 904      17.120 -19.925  32.159  0.00  0.00     0.151 C 
ATOM     27  C7  NAG d 904      19.923 -17.782  32.370  0.00  0.00     0.214 C 
ATOM     28  N2  NAG d 904      18.498 -17.940  32.755  0.00  0.00    -0.349 N 
ATOM     29  C5  NAG d 904      14.713 -19.703  31.310  0.00  0.00     0.089 C 
ATOM     30  O5  NAG d 904      16.032 -20.462  31.237  0.00  0.00    -0.349 OA
ATOM     31  C8  NAG d 904      20.334 -18.195  30.943  0.00  0.00    -0.003 C 
ATOM     32  O7  NAG d 904      20.781 -17.331  33.162  0.00  0.00    -0.274 OA
ATOM     33  O1  NAG d 904      18.383 -20.666  32.053  0.00  0.00    -0.369 OA
ATOM     34  C4  NAG d 904      14.958 -18.241  30.969  0.00  0.00     0.089 C 
ATOM     35  H   NAG d 904      12.753 -19.830  30.459  0.00  0.00     0.078 H 
ATOM     36  H   NAG d 904      13.631 -21.361  30.524  0.00  0.00     0.078 H 
ATOM     37  H   NAG d 904      14.191 -19.199  28.700  0.00  0.00     0.209 HD
ATOM     38  H   NAG d 904      17.720 -18.349  30.819  0.00  0.00     0.084 H 
ATOM     39  H   NAG d 904      13.836 -16.575  30.840  0.00  0.00     0.210 HD
ATOM     40  H   NAG d 904      15.644 -17.756  32.957  0.00  0.00     0.091 H 
ATOM     41  H   NAG d 904      16.765 -20.041  33.162  0.00  0.00     0.132 H 
ATOM     42  H   NAG d 904      18.245 -17.687  33.672  0.00  0.00     0.163 HD
ATOM     43  H   NAG d 904      14.314 -19.776  32.300  0.00  0.00     0.090 H 
ATOM     44  H   NAG d 904      19.476 -18.554  30.414  0.00  0.00     0.040 H 
ATOM     45  H   NAG d 904      21.071 -18.969  30.994  0.00  0.00     0.040 H 
ATOM     46  H   NAG d 904      20.741 -17.348  30.430  0.00  0.00     0.040 H 
ATOM     47  H   NAG d 904      18.733 -20.581  31.153  0.00  0.00     0.212 HD
ATOM     48  H   NAG d 904      15.331 -18.135  29.972  0.00  0.00     0.091 H 
ENDROOT
TORSDOF 11
ENDMDL
MODEL 10
REMARK VINA RESULT:      -7.5      2.061      5.227
REMARK  0 active torsions:
REMARK  status: ('A' for Active; 'I' for Inactive)
REMARK       I    between atoms: O2_1  and  C2_13 
REMARK       I    between atoms: C6_2  and  C5_7 
REMARK       I    between atoms: C6_4  and  C5_18 
REMARK       I    between atoms: C6_4  and  O6_5 
REMARK       I    between atoms: O3_6  and  C1_24 
REMARK       I    between atoms: O3_6  and  C3_11 
REMARK       I    between atoms: C2_8  and  N2_16 
REMARK       I    between atoms: O4_10  and  C4_25 
REMARK       I    between atoms: C3_12  and  O3_26 
REMARK       I    between atoms: C1_14  and  O1_23 
REMARK       I    between atoms: C7_15  and  C8_21 
REMARK       I    between atoms: C7_15  and  N2_16 
ROOT
ATOM      1  O2  GCD d 903      16.950 -16.594  31.686  0.00  0.00    -0.388 OA
ATOM      2  C6  GCD d 903      12.855 -12.338  31.599  0.00  0.00     0.203 C 
ATOM      3  O6B GCD d 903      13.394 -11.432  32.232  0.00  0.00    -0.646 OA
ATOM      4  C5  GCD d 903      13.883 -13.502  31.453  0.00  0.00     0.127 C 
ATOM      5  C4  GCD d 903      13.570 -14.650  30.855  0.00  0.00    -0.005 C 
ATOM      6  C3  GCD d 903      14.705 -15.636  30.805  0.00  0.00     0.068 C 
ATOM      7  C2  GCD d 903      15.875 -15.590  31.871  0.00  0.00     0.107 C 
ATOM      8  O6A GCD d 903      11.599 -12.525  31.150  0.00  0.00    -0.646 OA
ATOM      9  O5  GCD d 903      15.213 -13.129  32.062  0.00  0.00    -0.343 OA
ATOM     10  C1  GCD d 903      16.345 -14.099  31.861  0.00  0.00     0.159 C 
ATOM     11  O3  GCD d 903      14.256 -17.005  30.826  0.00  0.00    -0.393 OA
ATOM     12  H   GCD d 903      16.567 -17.485  31.707  0.00  0.00     0.210 HD
ATOM     13  H   GCD d 903      13.982 -14.501  31.083  0.00  0.00     0.100 H 
ATOM     14  H   GCD d 903      13.264 -14.437  29.852  0.00  0.00     0.041 H 
ATOM     15  H   GCD d 903      12.791 -15.101  31.433  0.00  0.00     0.041 H 
ATOM     16  H   GCD d 903      15.124 -15.296  29.880  0.00  0.00     0.087 H 
ATOM     17  H   GCD d 903      15.529 -15.889  32.839  0.00  0.00     0.094 H 
ATOM     18  H   GCD d 903      16.877 -14.010  30.937  0.00  0.00     0.133 H 
ATOM     19  H   GCD d 903      13.896 -17.214  31.703  0.00  0.00     0.210 HD
ATOM     20  C6  NAG d 904      18.374  -9.563  35.336  0.00  0.00     0.043 C 
ATOM     21  O6  NAG d 904      17.790 -10.043  36.617  0.00  0.00    -0.398 OA
ATOM     22  O3  NAG d 904      17.054 -13.788  33.105  0.00  0.00    -0.348 OA
ATOM     23  C2  NAG d 904      19.306 -13.642  34.035  0.00  0.00     0.087 C 
ATOM     24  O4  NAG d 904      16.554 -10.933  33.546  0.00  0.00    -0.390 OA
ATOM     25  C3  NAG d 904      18.143 -12.862  33.303  0.00  0.00     0.093 C 
ATOM     26  C1  NAG d 904      20.457 -12.687  34.272  0.00  0.00     0.151 C 
ATOM     27  C7  NAG d 904      20.171 -16.180  33.812  0.00  0.00     0.214 C 
ATOM     28  N2  NAG d 904      19.827 -14.859  33.231  0.00  0.00    -0.349 N 
ATOM     29  C5  NAG d 904      18.815 -10.727  34.427  0.00  0.00     0.089 C 
ATOM     30  O5  NAG d 904      19.958 -11.495  35.079  0.00  0.00    -0.349 OA
ATOM     31  C8  NAG d 904      20.021 -16.359  35.335  0.00  0.00    -0.003 C 
ATOM     32  O7  NAG d 904      20.574 -17.133  33.107  0.00  0.00    -0.274 OA
ATOM     33  O1  NAG d 904      21.546 -13.416  34.934  0.00  0.00    -0.369 OA
ATOM     34  C4  NAG d 904      17.648 -11.673  34.190  0.00  0.00     0.089 C 
ATOM     35  H   NAG d 904      17.641  -8.980  34.819  0.00  0.00     0.078 H 
ATOM     36  H   NAG d 904      19.240  -8.980  35.568  0.00  0.00     0.078 H 
ATOM     37  H   NAG d 904      17.001 -10.576  36.433  0.00  0.00     0.209 HD
ATOM     38  H   NAG d 904      18.906 -14.018  34.953  0.00  0.00     0.084 H 
ATOM     39  H   NAG d 904      15.806 -11.531  33.392  0.00  0.00     0.210 HD
ATOM     40  H   NAG d 904      18.492 -12.471  32.371  0.00  0.00     0.091 H 
ATOM     41  H   NAG d 904      20.845 -12.303  33.352  0.00  0.00     0.132 H 
ATOM     42  H   NAG d 904      19.937 -14.747  32.259  0.00  0.00     0.163 HD
ATOM     43  H   NAG d 904      19.144 -10.325  33.491  0.00  0.00     0.090 H 
ATOM     44  H   NAG d 904      19.669 -15.447  35.769  0.00  0.00     0.040 H 
ATOM     45  H   NAG d 904      20.970 -16.612  35.760  0.00  0.00     0.040 H 
ATOM     46  H   NAG d 904      19.321 -17.144  35.535  0.00  0.00     0.040 H 
ATOM     47  H   NAG d 904      21.227 -13.780  35.775  0.00  0.00     0.212 HD
ATOM     48  H   NAG d 904      17.279 -12.069  35.112  0.00  0.00     0.091 H 
ENDROOT
TORSDOF 11
ENDMDL
MODEL 11
REMARK VINA RESULT:      -7.4      2.089      5.655
REMARK  0 active torsions:
REMARK  status: ('A' for Active; 'I' for Inactive)
REMARK       I    between atoms: O2_1  and  C2_13 
REMARK       I    between atoms: C6_2  and  C5_7 
REMARK       I    between atoms: C6_4  and  C5_18 
REMARK       I    between atoms: C6_4  and  O6_5 
REMARK       I    between atoms: O3_6  and  C1_24 
REMARK       I    between atoms: O3_6  and  C3_11 
REMARK       I    between atoms: C2_8  and  N2_16 
REMARK       I    between atoms: O4_10  and  C4_25 
REMARK       I    between atoms: C3_12  and  O3_26 
REMARK       I    between atoms: C1_14  and  O1_23 
REMARK       I    between atoms: C7_15  and  C8_21 
REMARK       I    between atoms: C7_15  and  N2_16 
ROOT
ATOM      1  O2  GCD d 903      17.098 -17.145  30.984  0.00  0.00    -0.388 OA
ATOM      2  C6  GCD d 903      13.675 -12.468  32.124  0.00  0.00     0.203 C 
ATOM      3  O6B GCD d 903      14.479 -11.644  32.555  0.00  0.00    -0.646 OA
ATOM      4  C5  GCD d 903      14.473 -13.733  31.678  0.00  0.00     0.127 C 
ATOM      5  C4  GCD d 903      13.866 -14.823  31.212  0.00  0.00    -0.005 C 
ATOM      6  C3  GCD d 903      14.813 -15.925  30.824  0.00  0.00     0.068 C 
ATOM      7  C2  GCD d 903      16.249 -16.036  31.482  0.00  0.00     0.107 C 
ATOM      8  O6A GCD d 903      12.329 -12.505  32.080  0.00  0.00    -0.646 OA
ATOM      9  O5  GCD d 903      15.957 -13.524  31.849  0.00  0.00    -0.343 OA
ATOM     10  C1  GCD d 903      16.859 -14.606  31.319  0.00  0.00     0.159 C 
ATOM     11  O3  GCD d 903      14.242 -17.237  30.991  0.00  0.00    -0.393 OA
ATOM     12  H   GCD d 903      16.642 -17.989  31.126  0.00  0.00     0.210 HD
ATOM     13  H   GCD d 903      14.341 -14.726  31.302  0.00  0.00     0.100 H 
ATOM     14  H   GCD d 903      13.295 -14.549  30.349  0.00  0.00     0.041 H 
ATOM     15  H   GCD d 903      13.254 -15.202  32.004  0.00  0.00     0.041 H 
ATOM     16  H   GCD d 903      14.967 -15.606  29.814  0.00  0.00     0.087 H 
ATOM     17  H   GCD d 903      16.183 -16.322  32.511  0.00  0.00     0.094 H 
ATOM     18  H   GCD d 903      17.091 -14.549  30.276  0.00  0.00     0.133 H 
ATOM     19  H   GCD d 903      14.145 -17.429  31.937  0.00  0.00     0.210 HD
ATOM     20  C6  NAG d 904      20.344 -10.416  33.978  0.00  0.00     0.043 C 
ATOM     21  O6  NAG d 904      20.127 -10.865  35.379  0.00  0.00    -0.398 OA
ATOM     22  O3  NAG d 904      17.943 -14.408  32.284  0.00  0.00    -0.348 OA
ATOM     23  C2  NAG d 904      20.372 -14.535  32.481  0.00  0.00     0.087 C 
ATOM     24  O4  NAG d 904      17.924 -11.529  32.838  0.00  0.00    -0.390 OA
ATOM     25  C3  NAG d 904      19.137 -13.612  32.135  0.00  0.00     0.093 C 
ATOM     26  C1  NAG d 904      21.640 -13.718  32.349  0.00  0.00     0.151 C 
ATOM     27  C7  NAG d 904      20.838 -17.144  32.021  0.00  0.00     0.214 C 
ATOM     28  N2  NAG d 904      20.484 -15.778  31.565  0.00  0.00    -0.349 N 
ATOM     29  C5  NAG d 904      20.354 -11.596  32.985  0.00  0.00     0.089 C 
ATOM     30  O5  NAG d 904      21.547 -12.501  33.261  0.00  0.00    -0.349 OA
ATOM     31  C8  NAG d 904      21.139 -17.349  33.519  0.00  0.00    -0.003 C 
ATOM     32  O7  NAG d 904      20.897 -18.115  31.233  0.00  0.00    -0.274 OA
ATOM     33  O1  NAG d 904      22.790 -14.579  32.652  0.00  0.00    -0.369 OA
ATOM     34  C4  NAG d 904      19.072 -12.401  33.122  0.00  0.00     0.089 C 
ATOM     35  H   NAG d 904      19.558  -9.743  33.705  0.00  0.00     0.078 H 
ATOM     36  H   NAG d 904      21.299  -9.937  33.929  0.00  0.00     0.078 H 
ATOM     37  H   NAG d 904      19.265 -11.304  35.448  0.00  0.00     0.209 HD
ATOM     38  H   NAG d 904      20.231 -14.890  33.480  0.00  0.00     0.084 H 
ATOM     39  H   NAG d 904      17.102 -12.038  32.924  0.00  0.00     0.210 HD
ATOM     40  H   NAG d 904      19.228 -13.235  31.137  0.00  0.00     0.091 H 
ATOM     41  H   NAG d 904      21.770 -13.352  31.352  0.00  0.00     0.132 H 
ATOM     42  H   NAG d 904      20.305 -15.652  30.604  0.00  0.00     0.163 HD
ATOM     43  H   NAG d 904      20.425 -11.206  31.991  0.00  0.00     0.090 H 
ATOM     44  H   NAG d 904      21.040 -16.416  34.033  0.00  0.00     0.040 H 
ATOM     45  H   NAG d 904      22.138 -17.715  33.635  0.00  0.00     0.040 H 
ATOM     46  H   NAG d 904      20.450 -18.057  33.928  0.00  0.00     0.040 H 
ATOM     47  H   NAG d 904      22.703 -14.929  33.552  0.00  0.00     0.212 HD
ATOM     48  H   NAG d 904      18.959 -12.781  34.116  0.00  0.00     0.091 H 
ENDROOT
TORSDOF 11
ENDMDL
MODEL 12
REMARK VINA RESULT:      -7.4      2.564      6.189
REMARK  0 active torsions:
REMARK  status: ('A' for Active; 'I' for Inactive)
REMARK       I    between atoms: O2_1  and  C2_13 
REMARK       I    between atoms: C6_2  and  C5_7 
REMARK       I    between atoms: C6_4  and  C5_18 
REMARK       I    between atoms: C6_4  and  O6_5 
REMARK       I    between atoms: O3_6  and  C1_24 
REMARK       I    between atoms: O3_6  and  C3_11 
REMARK       I    between atoms: C2_8  and  N2_16 
REMARK       I    between atoms: O4_10  and  C4_25 
REMARK       I    between atoms: C3_12  and  O3_26 
REMARK       I    between atoms: C1_14  and  O1_23 
REMARK       I    between atoms: C7_15  and  C8_21 
REMARK       I    between atoms: C7_15  and  N2_16 
ROOT
ATOM      1  O2  GCD d 903      16.584  -9.683  32.590  0.00  0.00    -0.388 OA
ATOM      2  C6  GCD d 903      15.677 -15.431  31.574  0.00  0.00     0.203 C 
ATOM      3  O6B GCD d 903      16.793 -15.915  31.748  0.00  0.00    -0.646 OA
ATOM      4  C5  GCD d 903      15.751 -13.911  31.919  0.00  0.00     0.127 C 
ATOM      5  C4  GCD d 903      14.703 -13.102  31.777  0.00  0.00    -0.005 C 
ATOM      6  C3  GCD d 903      14.977 -11.678  32.176  0.00  0.00     0.068 C 
ATOM      7  C2  GCD d 903      16.446 -11.087  32.136  0.00  0.00     0.107 C 
ATOM      8  O6A GCD d 903      14.528 -15.923  31.070  0.00  0.00    -0.646 OA
ATOM      9  O5  GCD d 903      17.126 -13.535  32.414  0.00  0.00    -0.343 OA
ATOM     10  C1  GCD d 903      17.301 -12.131  32.925  0.00  0.00     0.159 C 
ATOM     11  O3  GCD d 903      14.190 -10.728  31.432  0.00  0.00    -0.393 OA
ATOM     12  H   GCD d 903      16.021  -9.111  32.046  0.00  0.00     0.210 HD
ATOM     13  H   GCD d 903      15.168 -13.013  31.913  0.00  0.00     0.100 H 
ATOM     14  H   GCD d 903      13.904 -13.474  32.383  0.00  0.00     0.041 H 
ATOM     15  H   GCD d 903      14.455 -13.092  30.736  0.00  0.00     0.041 H 
ATOM     16  H   GCD d 903      14.723 -11.788  33.210  0.00  0.00     0.087 H 
ATOM     17  H   GCD d 903      16.791 -10.974  31.129  0.00  0.00     0.094 H 
ATOM     18  H   GCD d 903      17.019 -11.968  33.945  0.00  0.00     0.133 H 
ATOM     19  H   GCD d 903      14.498 -10.703  30.513  0.00  0.00     0.210 HD
ATOM     20  C6  NAG d 904      22.697 -14.887  33.167  0.00  0.00     0.043 C 
ATOM     21  O6  NAG d 904      23.044 -14.729  31.730  0.00  0.00    -0.398 OA
ATOM     22  O3  NAG d 904      18.715 -11.997  32.565  0.00  0.00    -0.348 OA
ATOM     23  C2  NAG d 904      20.786 -10.946  33.316  0.00  0.00     0.087 C 
ATOM     24  O4  NAG d 904      19.819 -14.693  32.892  0.00  0.00    -0.390 OA
ATOM     25  C3  NAG d 904      19.873 -12.234  33.393  0.00  0.00     0.093 C 
ATOM     26  C1  NAG d 904      22.020 -11.174  34.164  0.00  0.00     0.151 C 
ATOM     27  C7  NAG d 904      20.177  -8.330  33.160  0.00  0.00     0.214 C 
ATOM     28  N2  NAG d 904      20.076  -9.661  33.807  0.00  0.00    -0.349 N 
ATOM     29  C5  NAG d 904      21.885 -13.691  33.704  0.00  0.00     0.089 C 
ATOM     30  O5  NAG d 904      22.736 -12.428  33.675  0.00  0.00    -0.349 OA
ATOM     31  C8  NAG d 904      21.073  -8.202  31.912  0.00  0.00    -0.003 C 
ATOM     32  O7  NAG d 904      19.565  -7.329  33.595  0.00  0.00    -0.274 OA
ATOM     33  O1  NAG d 904      22.860  -9.972  34.108  0.00  0.00    -0.369 OA
ATOM     34  C4  NAG d 904      20.646 -13.479  32.849  0.00  0.00     0.089 C 
ATOM     35  H   NAG d 904      22.118 -15.778  33.287  0.00  0.00     0.078 H 
ATOM     36  H   NAG d 904      23.610 -14.941  33.723  0.00  0.00     0.078 H 
ATOM     37  H   NAG d 904      22.231 -14.678  31.205  0.00  0.00     0.209 HD
ATOM     38  H   NAG d 904      21.034 -10.796  32.286  0.00  0.00     0.084 H 
ATOM     39  H   NAG d 904      19.026 -14.564  32.348  0.00  0.00     0.210 HD
ATOM     40  H   NAG d 904      19.590 -12.423  34.408  0.00  0.00     0.091 H 
ATOM     41  H   NAG d 904      21.767 -11.339  35.190  0.00  0.00     0.132 H 
ATOM     42  H   NAG d 904      19.512  -9.733  34.612  0.00  0.00     0.163 HD
ATOM     43  H   NAG d 904      21.592 -13.900  34.712  0.00  0.00     0.090 H 
ATOM     44  H   NAG d 904      21.511  -9.152  31.688  0.00  0.00     0.040 H 
ATOM     45  H   NAG d 904      21.847  -7.488  32.100  0.00  0.00     0.040 H 
ATOM     46  H   NAG d 904      20.482  -7.877  31.080  0.00  0.00     0.040 H 
ATOM     47  H   NAG d 904      23.108  -9.794  33.187  0.00  0.00     0.212 HD
ATOM     48  H   NAG d 904      20.907 -13.295  31.828  0.00  0.00     0.091 H 
ENDROOT
TORSDOF 11
ENDMDL
MODEL 13
REMARK VINA RESULT:      -7.4      1.234      1.314
REMARK  0 active torsions:
REMARK  status: ('A' for Active; 'I' for Inactive)
REMARK       I    between atoms: O2_1  and  C2_13 
REMARK       I    between atoms: C6_2  and  C5_7 
REMARK       I    between atoms: C6_4  and  C5_18 
REMARK       I    between atoms: C6_4  and  O6_5 
REMARK       I    between atoms: O3_6  and  C1_24 
REMARK       I    between atoms: O3_6  and  C3_11 
REMARK       I    between atoms: C2_8  and  N2_16 
REMARK       I    between atoms: O4_10  and  C4_25 
REMARK       I    between atoms: C3_12  and  O3_26 
REMARK       I    between atoms: C1_14  and  O1_23 
REMARK       I    between atoms: C7_15  and  C8_21 
REMARK       I    between atoms: C7_15  and  N2_16 
ROOT
ATOM      1  O2  GCD d 903      20.498 -14.760  33.986  0.00  0.00    -0.388 OA
ATOM      2  C6  GCD d 903      16.656 -19.036  32.625  0.00  0.00     0.203 C 
ATOM      3  O6B GCD d 903      15.651 -18.404  32.308  0.00  0.00    -0.646 OA
ATOM      4  C5  GCD d 903      17.800 -18.013  32.910  0.00  0.00     0.127 C 
ATOM      5  C4  GCD d 903      19.005 -18.397  33.327  0.00  0.00    -0.005 C 
ATOM      6  C3  GCD d 903      19.967 -17.259  33.530  0.00  0.00     0.068 C 
ATOM      7  C2  GCD d 903      19.448 -15.797  33.846  0.00  0.00     0.107 C 
ATOM      8  O6A GCD d 903      16.887 -20.343  32.858  0.00  0.00    -0.646 OA
ATOM      9  O5  GCD d 903      17.339 -16.600  32.645  0.00  0.00    -0.343 OA
ATOM     10  C1  GCD d 903      18.382 -15.520  32.735  0.00  0.00     0.159 C 
ATOM     11  O3  GCD d 903      20.935 -17.524  34.564  0.00  0.00    -0.393 OA
ATOM     12  H   GCD d 903      21.110 -15.015  34.694  0.00  0.00     0.210 HD
ATOM     13  H   GCD d 903      18.812 -17.949  33.251  0.00  0.00     0.100 H 
ATOM     14  H   GCD d 903      19.418 -19.062  32.599  0.00  0.00     0.041 H 
ATOM     15  H   GCD d 903      18.870 -18.866  34.280  0.00  0.00     0.041 H 
ATOM     16  H   GCD d 903      20.346 -17.237  32.529  0.00  0.00     0.087 H 
ATOM     17  H   GCD d 903      19.021 -15.740  34.825  0.00  0.00     0.094 H 
ATOM     18  H   GCD d 903      18.971 -15.366  31.854  0.00  0.00     0.133 H 
ATOM     19  H   GCD d 903      20.493 -17.523  35.428  0.00  0.00     0.210 HD
ATOM     20  C6  NAG d 904      13.050 -12.867  31.592  0.00  0.00     0.043 C 
ATOM     21  O6  NAG d 904      12.531 -12.900  32.985  0.00  0.00    -0.398 OA
ATOM     22  O3  NAG d 904      17.478 -14.449  33.162  0.00  0.00    -0.348 OA
ATOM     23  C2  NAG d 904      17.134 -12.042  32.951  0.00  0.00     0.087 C 
ATOM     24  O4  NAG d 904      14.936 -15.054  31.832  0.00  0.00    -0.390 OA
ATOM     25  C3  NAG d 904      16.812 -13.465  32.344  0.00  0.00     0.093 C 
ATOM     26  C1  NAG d 904      16.431 -10.989  32.120  0.00  0.00     0.151 C 
ATOM     27  C7  NAG d 904      19.353 -11.054  34.108  0.00  0.00     0.214 C 
ATOM     28  N2  NAG d 904      18.648 -11.720  32.985  0.00  0.00    -0.349 N 
ATOM     29  C5  NAG d 904      14.578 -12.662  31.546  0.00  0.00     0.089 C 
ATOM     30  O5  NAG d 904      14.937 -11.288  32.096  0.00  0.00    -0.349 OA
ATOM     31  C8  NAG d 904      18.519 -10.628  35.332  0.00  0.00    -0.003 C 
ATOM     32  O7  NAG d 904      20.586 -10.833  34.083  0.00  0.00    -0.274 OA
ATOM     33  O1  NAG d 904      16.745  -9.665  32.672  0.00  0.00    -0.369 OA
ATOM     34  C4  NAG d 904      15.271 -13.731  32.376  0.00  0.00     0.089 C 
ATOM     35  H   NAG d 904      12.813 -13.794  31.113  0.00  0.00     0.078 H 
ATOM     36  H   NAG d 904      12.592 -12.042  31.089  0.00  0.00     0.078 H 
ATOM     37  H   NAG d 904      12.933 -13.642  33.463  0.00  0.00     0.209 HD
ATOM     38  H   NAG d 904      16.789 -12.045  33.964  0.00  0.00     0.084 H 
ATOM     39  H   NAG d 904      15.376 -15.740  32.358  0.00  0.00     0.210 HD
ATOM     40  H   NAG d 904      17.146 -13.516  31.329  0.00  0.00     0.091 H 
ATOM     41  H   NAG d 904      16.768 -10.999  31.105  0.00  0.00     0.132 H 
ATOM     42  H   NAG d 904      19.185 -11.977  32.200  0.00  0.00     0.163 HD
ATOM     43  H   NAG d 904      14.903 -12.734  30.529  0.00  0.00     0.090 H 
ATOM     44  H   NAG d 904      17.495 -10.895  35.176  0.00  0.00     0.040 H 
ATOM     45  H   NAG d 904      18.595  -9.569  35.464  0.00  0.00     0.040 H 
ATOM     46  H   NAG d 904      18.888 -11.124  36.205  0.00  0.00     0.040 H 
ATOM     47  H   NAG d 904      16.452  -9.622  33.595  0.00  0.00     0.212 HD
ATOM     48  H   NAG d 904      14.944 -13.701  33.394  0.00  0.00     0.091 H 
ENDROOT
TORSDOF 11
ENDMDL
MODEL 14
REMARK VINA RESULT:      -7.4      2.467      5.182
REMARK  0 active torsions:
REMARK  status: ('A' for Active; 'I' for Inactive)
REMARK       I    between atoms: O2_1  and  C2_13 
REMARK       I    between atoms: C6_2  and  C5_7 
REMARK       I    between atoms: C6_4  and  C5_18 
REMARK       I    between atoms: C6_4  and  O6_5 
REMARK       I    between atoms: O3_6  and  C1_24 
REMARK       I    between atoms: O3_6  and  C3_11 
REMARK       I    between atoms: C2_8  and  N2_16 
REMARK       I    between atoms: O4_10  and  C4_25 
REMARK       I    between atoms: C3_12  and  O3_26 
REMARK       I    between atoms: C1_14  and  O1_23 
REMARK       I    between atoms: C7_15  and  C8_21 
REMARK       I    between atoms: C7_15  and  N2_16 
ROOT
ATOM      1  O2  GCD d 903      18.708 -18.396  31.746  0.00  0.00    -0.388 OA
ATOM      2  C6  GCD d 903      14.405 -14.375  31.290  0.00  0.00     0.203 C 
ATOM      3  O6B GCD d 903      15.000 -13.319  31.496  0.00  0.00    -0.646 OA
ATOM      4  C5  GCD d 903      15.458 -15.527  31.276  0.00  0.00     0.127 C 
ATOM      5  C4  GCD d 903      15.107 -16.803  31.125  0.00  0.00    -0.005 C 
ATOM      6  C3  GCD d 903      16.271 -17.755  31.125  0.00  0.00     0.068 C 
ATOM      7  C2  GCD d 903      17.628 -17.386  31.854  0.00  0.00     0.107 C 
ATOM      8  O6A GCD d 903      13.099 -14.692  31.196  0.00  0.00    -0.646 OA
ATOM      9  O5  GCD d 903      16.855 -14.984  31.448  0.00  0.00    -0.343 OA
ATOM     10  C1  GCD d 903      17.985 -15.967  31.304  0.00  0.00     0.159 C 
ATOM     11  O3  GCD d 903      15.929 -19.054  31.645  0.00  0.00    -0.393 OA
ATOM     12  H   GCD d 903      18.398 -19.240  32.110  0.00  0.00     0.210 HD
ATOM     13  H   GCD d 903      15.545 -16.590  31.205  0.00  0.00     0.100 H 
ATOM     14  H   GCD d 903      14.590 -16.903  30.194  0.00  0.00     0.041 H 
ATOM     15  H   GCD d 903      14.494 -17.059  31.964  0.00  0.00     0.041 H 
ATOM     16  H   GCD d 903      16.469 -17.709  30.074  0.00  0.00     0.087 H 
ATOM     17  H   GCD d 903      17.508 -17.379  32.917  0.00  0.00     0.094 H 
ATOM     18  H   GCD d 903      18.311 -16.159  30.303  0.00  0.00     0.133 H 
ATOM     19  H   GCD d 903      15.770 -18.989  32.600  0.00  0.00     0.210 HD
ATOM     20  C6  NAG d 904      20.372 -10.588  32.767  0.00  0.00     0.043 C 
ATOM     21  O6  NAG d 904      20.095 -10.660  34.227  0.00  0.00    -0.398 OA
ATOM     22  O3  NAG d 904      18.911 -15.292  32.218  0.00  0.00    -0.348 OA
ATOM     23  C2  NAG d 904      21.290 -14.867  32.558  0.00  0.00     0.087 C 
ATOM     24  O4  NAG d 904      18.320 -12.439  31.895  0.00  0.00    -0.390 OA
ATOM     25  C3  NAG d 904      19.952 -14.347  31.896  0.00  0.00     0.093 C 
ATOM     26  C1  NAG d 904      22.399 -13.883  32.250  0.00  0.00     0.151 C 
ATOM     27  C7  NAG d 904      22.260 -17.352  32.912  0.00  0.00     0.214 C 
ATOM     28  N2  NAG d 904      21.716 -16.269  32.056  0.00  0.00    -0.349 N 
ATOM     29  C5  NAG d 904      20.695 -11.972  32.169  0.00  0.00     0.089 C 
ATOM     30  O5  NAG d 904      21.995 -12.503  32.757  0.00  0.00    -0.349 OA
ATOM     31  C8  NAG d 904      22.436 -17.063  34.415  0.00  0.00    -0.003 C 
ATOM     32  O7  NAG d 904      22.573 -18.473  32.450  0.00  0.00    -0.274 OA
ATOM     33  O1  NAG d 904      23.646 -14.375  32.848  0.00  0.00    -0.369 OA
ATOM     34  C4  NAG d 904      19.570 -12.947  32.477  0.00  0.00     0.089 C 
ATOM     35  H   NAG d 904      19.511 -10.190  32.272  0.00  0.00     0.078 H 
ATOM     36  H   NAG d 904      21.226  -9.960  32.625  0.00  0.00     0.078 H 
ATOM     37  H   NAG d 904      19.322 -11.225  34.382  0.00  0.00     0.209 HD
ATOM     38  H   NAG d 904      21.112 -14.949  33.610  0.00  0.00     0.084 H 
ATOM     39  H   NAG d 904      17.599 -13.058  32.089  0.00  0.00     0.210 HD
ATOM     40  H   NAG d 904      20.077 -14.255  30.838  0.00  0.00     0.091 H 
ATOM     41  H   NAG d 904      22.564 -13.793  31.196  0.00  0.00     0.132 H 
ATOM     42  H   NAG d 904      21.619 -16.456  31.094  0.00  0.00     0.163 HD
ATOM     43  H   NAG d 904      20.798 -11.870  31.108  0.00  0.00     0.090 H 
ATOM     44  H   NAG d 904      22.119 -16.063  34.626  0.00  0.00     0.040 H 
ATOM     45  H   NAG d 904      23.467 -17.173  34.682  0.00  0.00     0.040 H 
ATOM     46  H   NAG d 904      21.845 -17.752  34.983  0.00  0.00     0.040 H 
ATOM     47  H   NAG d 904      23.530 -14.468  33.806  0.00  0.00     0.212 HD
ATOM     48  H   NAG d 904      19.425 -13.047  33.533  0.00  0.00     0.091 H 
ENDROOT
TORSDOF 11
ENDMDL
MODEL 15
REMARK VINA RESULT:      -7.3      1.832      5.828
REMARK  0 active torsions:
REMARK  status: ('A' for Active; 'I' for Inactive)
REMARK       I    between atoms: O2_1  and  C2_13 
REMARK       I    between atoms: C6_2  and  C5_7 
REMARK       I    between atoms: C6_4  and  C5_18 
REMARK       I    between atoms: C6_4  and  O6_5 
REMARK       I    between atoms: O3_6  and  C1_24 
REMARK       I    between atoms: O3_6  and  C3_11 
REMARK       I    between atoms: C2_8  and  N2_16 
REMARK       I    between atoms: O4_10  and  C4_25 
REMARK       I    between atoms: C3_12  and  O3_26 
REMARK       I    between atoms: C1_14  and  O1_23 
REMARK       I    between atoms: C7_15  and  C8_21 
REMARK       I    between atoms: C7_15  and  N2_16 
ROOT
ATOM      1  O2  GCD d 903      17.602 -12.036  33.330  0.00  0.00    -0.388 OA
ATOM      2  C6  GCD d 903      12.916 -14.585  30.792  0.00  0.00     0.203 C 
ATOM      3  O6B GCD d 903      13.198 -15.781  30.845  0.00  0.00    -0.646 OA
ATOM      4  C5  GCD d 903      14.037 -13.792  31.534  0.00  0.00     0.127 C 
ATOM      5  C4  GCD d 903      14.036 -12.462  31.600  0.00  0.00    -0.005 C 
ATOM      6  C3  GCD d 903      15.194 -11.893  32.372  0.00  0.00     0.068 C 
ATOM      7  C2  GCD d 903      16.554 -12.692  32.512  0.00  0.00     0.107 C 
ATOM      8  O6A GCD d 903      11.948 -13.895  30.159  0.00  0.00    -0.646 OA
ATOM      9  O5  GCD d 903      15.058 -14.730  32.131  0.00  0.00    -0.343 OA
ATOM     10  C1  GCD d 903      16.116 -14.111  33.004  0.00  0.00     0.159 C 
ATOM     11  O3  GCD d 903      15.594 -10.591  31.900  0.00  0.00    -0.393 OA
ATOM     12  H   GCD d 903      17.809 -11.167  32.952  0.00  0.00     0.210 HD
ATOM     13  H   GCD d 903      14.359 -12.798  31.762  0.00  0.00     0.100 H 
ATOM     14  H   GCD d 903      13.129 -12.148  32.073  0.00  0.00     0.041 H 
ATOM     15  H   GCD d 903      14.120 -12.099  30.597  0.00  0.00     0.041 H 
ATOM     16  H   GCD d 903      14.727 -11.918  33.334  0.00  0.00     0.087 H 
ATOM     17  H   GCD d 903      17.073 -12.741  31.578  0.00  0.00     0.094 H 
ATOM     18  H   GCD d 903      15.841 -13.949  34.026  0.00  0.00     0.133 H 
ATOM     19  H   GCD d 903      16.005 -10.677  31.025  0.00  0.00     0.210 HD
ATOM     20  C6  NAG d 904      17.295 -20.043  32.571  0.00  0.00     0.043 C 
ATOM     21  O6  NAG d 904      17.945 -20.000  31.234  0.00  0.00    -0.398 OA
ATOM     22  O3  NAG d 904      17.166 -15.090  32.713  0.00  0.00    -0.348 OA
ATOM     23  C2  NAG d 904      19.070 -16.213  33.747  0.00  0.00     0.087 C 
ATOM     24  O4  NAG d 904      15.732 -17.616  32.318  0.00  0.00    -0.390 OA
ATOM     25  C3  NAG d 904      17.517 -16.271  33.463  0.00  0.00     0.093 C 
ATOM     26  C1  NAG d 904      19.470 -17.453  34.520  0.00  0.00     0.151 C 
ATOM     27  C7  NAG d 904      20.711 -14.151  34.292  0.00  0.00     0.214 C 
ATOM     28  N2  NAG d 904      19.498 -14.964  34.556  0.00  0.00    -0.349 N 
ATOM     29  C5  NAG d 904      17.583 -18.774  33.398  0.00  0.00     0.089 C 
ATOM     30  O5  NAG d 904      19.068 -18.688  33.722  0.00  0.00    -0.349 OA
ATOM     31  C8  NAG d 904      21.633 -14.588  33.137  0.00  0.00    -0.003 C 
ATOM     32  O7  NAG d 904      20.996 -13.140  34.973  0.00  0.00    -0.274 OA
ATOM     33  O1  NAG d 904      20.909 -17.390  34.801  0.00  0.00    -0.369 OA
ATOM     34  C4  NAG d 904      17.169 -17.538  32.615  0.00  0.00     0.089 C 
ATOM     35  H   NAG d 904      16.237 -20.135  32.438  0.00  0.00     0.078 H 
ATOM     36  H   NAG d 904      17.694 -20.881  33.104  0.00  0.00     0.078 H 
ATOM     37  H   NAG d 904      17.599 -19.247  30.731  0.00  0.00     0.209 HD
ATOM     38  H   NAG d 904      19.563 -16.159  32.799  0.00  0.00     0.084 H 
ATOM     39  H   NAG d 904      15.462 -16.830  31.818  0.00  0.00     0.210 HD
ATOM     40  H   NAG d 904      16.976 -16.319  34.385  0.00  0.00     0.091 H 
ATOM     41  H   NAG d 904      18.963 -17.510  35.461  0.00  0.00     0.132 H 
ATOM     42  H   NAG d 904      18.919 -14.687  35.304  0.00  0.00     0.163 HD
ATOM     43  H   NAG d 904      17.022 -18.823  34.308  0.00  0.00     0.090 H 
ATOM     44  H   NAG d 904      21.233 -15.464  32.673  0.00  0.00     0.040 H 
ATOM     45  H   NAG d 904      22.609 -14.802  33.522  0.00  0.00     0.040 H 
ATOM     46  H   NAG d 904      21.699 -13.800  32.416  0.00  0.00     0.040 H 
ATOM     47  H   NAG d 904      21.399 -17.337  33.966  0.00  0.00     0.212 HD
ATOM     48  H   NAG d 904      17.694 -17.477  31.685  0.00  0.00     0.091 H 
ENDROOT
TORSDOF 11
ENDMDL
MODEL 16
REMARK VINA RESULT:      -7.2      2.296      3.290
REMARK  0 active torsions:
REMARK  status: ('A' for Active; 'I' for Inactive)
REMARK       I    between atoms: O2_1  and  C2_13 
REMARK       I    between atoms: C6_2  and  C5_7 
REMARK       I    between atoms: C6_4  and  C5_18 
REMARK       I    between atoms: C6_4  and  O6_5 
REMARK       I    between atoms: O3_6  and  C1_24 
REMARK       I    between atoms: O3_6  and  C3_11 
REMARK       I    between atoms: C2_8  and  N2_16 
REMARK       I    between atoms: O4_10  and  C4_25 
REMARK       I    between atoms: C3_12  and  O3_26 
REMARK       I    between atoms: C1_14  and  O1_23 
REMARK       I    between atoms: C7_15  and  C8_21 
REMARK       I    between atoms: C7_15  and  N2_16 
ROOT
ATOM      1  O2  GCD d 903      21.424 -17.655  32.350  0.00  0.00    -0.388 OA
ATOM      2  C6  GCD d 903      15.617 -17.680  31.270  0.00  0.00     0.203 C 
ATOM      3  O6B GCD d 903      15.317 -16.493  31.383  0.00  0.00    -0.646 OA
ATOM      4  C5  GCD d 903      17.165 -17.803  31.428  0.00  0.00     0.127 C 
ATOM      5  C4  GCD d 903      17.786 -18.980  31.403  0.00  0.00    -0.005 C 
ATOM      6  C3  GCD d 903      19.279 -18.881  31.558  0.00  0.00     0.068 C 
ATOM      7  C2  GCD d 903      19.943 -17.649  32.299  0.00  0.00     0.107 C 
ATOM      8  O6A GCD d 903      14.888 -18.807  31.155  0.00  0.00    -0.646 OA
ATOM      9  O5  GCD d 903      17.800 -16.444  31.598  0.00  0.00    -0.343 OA
ATOM     10  C1  GCD d 903      19.304 -16.398  31.612  0.00  0.00     0.159 C 
ATOM     11  O3  GCD d 903      19.851 -20.035  32.203  0.00  0.00    -0.393 OA
ATOM     12  H   GCD d 903      21.729 -18.463  32.791  0.00  0.00     0.210 HD
ATOM     13  H   GCD d 903      17.955 -18.523  31.478  0.00  0.00     0.100 H 
ATOM     14  H   GCD d 903      17.575 -19.454  30.468  0.00  0.00     0.041 H 
ATOM     15  H   GCD d 903      17.422 -19.543  32.238  0.00  0.00     0.041 H 
ATOM     16  H   GCD d 903      19.504 -18.767  30.518  0.00  0.00     0.087 H 
ATOM     17  H   GCD d 903      19.737 -17.671  33.349  0.00  0.00     0.094 H 
ATOM     18  H   GCD d 903      19.778 -16.368  30.653  0.00  0.00     0.133 H 
ATOM     19  H   GCD d 903      19.589 -20.047  33.137  0.00  0.00     0.210 HD
ATOM     20  C6  NAG d 904      17.259 -10.771  32.575  0.00  0.00     0.043 C 
ATOM     21  O6  NAG d 904      16.950 -10.938  34.021  0.00  0.00    -0.398 OA
ATOM     22  O3  NAG d 904      19.427 -15.228  32.485  0.00  0.00    -0.348 OA
ATOM     23  C2  NAG d 904      20.841 -13.278  32.878  0.00  0.00     0.087 C 
ATOM     24  O4  NAG d 904      17.104 -13.566  31.825  0.00  0.00    -0.390 OA
ATOM     25  C3  NAG d 904      19.584 -13.845  32.107  0.00  0.00     0.093 C 
ATOM     26  C1  NAG d 904      21.018 -11.819  32.512  0.00  0.00     0.151 C 
ATOM     27  C7  NAG d 904      23.189 -14.411  33.545  0.00  0.00     0.214 C 
ATOM     28  N2  NAG d 904      22.152 -14.035  32.552  0.00  0.00    -0.349 N 
ATOM     29  C5  NAG d 904      18.493 -11.591  32.147  0.00  0.00     0.089 C 
ATOM     30  O5  NAG d 904      19.739 -11.062  32.845  0.00  0.00    -0.349 OA
ATOM     31  C8  NAG d 904      22.962 -14.002  35.014  0.00  0.00    -0.003 C 
ATOM     32  O7  NAG d 904      24.223 -15.038  33.223  0.00  0.00    -0.274 OA
ATOM     33  O1  NAG d 904      22.197 -11.297  33.213  0.00  0.00    -0.369 OA
ATOM     34  C4  NAG d 904      18.298 -13.054  32.513  0.00  0.00     0.089 C 
ATOM     35  H   NAG d 904      16.415 -11.094  32.002  0.00  0.00     0.078 H 
ATOM     36  H   NAG d 904      17.474  -9.738  32.401  0.00  0.00     0.078 H 
ATOM     37  H   NAG d 904      16.751 -11.869  34.204  0.00  0.00     0.209 HD
ATOM     38  H   NAG d 904      20.654 -13.405  33.924  0.00  0.00     0.084 H 
ATOM     39  H   NAG d 904      16.974 -14.499  32.054  0.00  0.00     0.210 HD
ATOM     40  H   NAG d 904      19.725 -13.747  31.051  0.00  0.00     0.091 H 
ATOM     41  H   NAG d 904      21.190 -11.695  31.463  0.00  0.00     0.132 H 
ATOM     42  H   NAG d 904      22.309 -14.288  31.613  0.00  0.00     0.163 HD
ATOM     43  H   NAG d 904      18.613 -11.501  31.088  0.00  0.00     0.090 H 
ATOM     44  H   NAG d 904      22.033 -13.478  35.099  0.00  0.00     0.040 H 
ATOM     45  H   NAG d 904      23.760 -13.366  35.334  0.00  0.00     0.040 H 
ATOM     46  H   NAG d 904      22.935 -14.878  35.628  0.00  0.00     0.040 H 
ATOM     47  H   NAG d 904      22.074 -11.394  34.170  0.00  0.00     0.212 HD
ATOM     48  H   NAG d 904      18.146 -13.172  33.565  0.00  0.00     0.091 H 
ENDROOT
TORSDOF 11
ENDMDL
MODEL 17
REMARK VINA RESULT:      -7.0      2.035      7.453
REMARK  0 active torsions:
REMARK  status: ('A' for Active; 'I' for Inactive)
REMARK       I    between atoms: O2_1  and  C2_13 
REMARK       I    between atoms: C6_2  and  C5_7 
REMARK       I    between atoms: C6_4  and  C5_18 
REMARK       I    between atoms: C6_4  and  O6_5 
REMARK       I    between atoms: O3_6  and  C1_24 
REMARK       I    between atoms: O3_6  and  C3_11 
REMARK       I    between atoms: C2_8  and  N2_16 
REMARK       I    between atoms: O4_10  and  C4_25 
REMARK       I    between atoms: C3_12  and  O3_26 
REMARK       I    between atoms: C1_14  and  O1_23 
REMARK       I    between atoms: C7_15  and  C8_21 
REMARK       I    between atoms: C7_15  and  N2_16 
ROOT
ATOM      1  O2  GCD d 903      14.570 -16.231  31.437  0.00  0.00    -0.388 OA
ATOM      2  C6  GCD d 903      17.241 -11.079  32.540  0.00  0.00     0.203 C 
ATOM      3  O6B GCD d 903      18.412 -11.412  32.704  0.00  0.00    -0.646 OA
ATOM      4  C5  GCD d 903      16.430 -12.349  32.130  0.00  0.00     0.127 C 
ATOM      5  C4  GCD d 903      15.114 -12.314  31.932  0.00  0.00    -0.005 C 
ATOM      6  C3  GCD d 903      14.526 -13.638  31.531  0.00  0.00     0.068 C 
ATOM      7  C2  GCD d 903      15.233 -14.999  31.927  0.00  0.00     0.107 C 
ATOM      8  O6A GCD d 903      16.574  -9.927  32.746  0.00  0.00    -0.646 OA
ATOM      9  O5  GCD d 903      17.336 -13.549  32.000  0.00  0.00    -0.343 OA
ATOM     10  C1  GCD d 903      16.715 -14.811  31.466  0.00  0.00     0.159 C 
ATOM     11  O3  GCD d 903      13.165 -13.802  31.973  0.00  0.00    -0.393 OA
ATOM     12  H   GCD d 903      13.660 -16.264  31.771  0.00  0.00     0.210 HD
ATOM     13  H   GCD d 903      15.437 -12.686  31.921  0.00  0.00     0.100 H 
ATOM     14  H   GCD d 903      14.908 -11.605  31.158  0.00  0.00     0.041 H 
ATOM     15  H   GCD d 903      14.665 -12.043  32.865  0.00  0.00     0.041 H 
ATOM     16  H   GCD d 903      14.665 -13.521  30.476  0.00  0.00     0.087 H 
ATOM     17  H   GCD d 903      15.167 -15.178  32.980  0.00  0.00     0.094 H 
ATOM     18  H   GCD d 903      16.658 -14.887  30.399  0.00  0.00     0.133 H 
ATOM     19  H   GCD d 903      13.148 -13.900  32.937  0.00  0.00     0.210 HD
ATOM     20  C6  NAG d 904      22.489 -16.026  32.864  0.00  0.00     0.043 C 
ATOM     21  O6  NAG d 904      22.288 -16.189  34.328  0.00  0.00    -0.398 OA
ATOM     22  O3  NAG d 904      17.587 -15.744  32.184  0.00  0.00    -0.348 OA
ATOM     23  C2  NAG d 904      18.648 -17.930  31.953  0.00  0.00     0.087 C 
ATOM     24  O4  NAG d 904      20.171 -14.368  32.340  0.00  0.00    -0.390 OA
ATOM     25  C3  NAG d 904      18.797 -16.374  31.715  0.00  0.00     0.093 C 
ATOM     26  C1  NAG d 904      19.915 -18.616  31.485  0.00  0.00     0.151 C 
ATOM     27  C7  NAG d 904      16.523 -19.569  31.770  0.00  0.00     0.214 C 
ATOM     28  N2  NAG d 904      17.441 -18.550  31.206  0.00  0.00    -0.349 N 
ATOM     29  C5  NAG d 904      21.274 -16.520  32.052  0.00  0.00     0.089 C 
ATOM     30  O5  NAG d 904      21.106 -18.023  32.227  0.00  0.00    -0.349 OA
ATOM     31  C8  NAG d 904      16.794 -20.071  33.202  0.00  0.00    -0.003 C 
ATOM     32  O7  NAG d 904      15.553 -20.023  31.122  0.00  0.00    -0.274 OA
ATOM     33  O1  NAG d 904      19.769 -20.062  31.687  0.00  0.00    -0.369 OA
ATOM     34  C4  NAG d 904      20.012 -15.817  32.526  0.00  0.00     0.089 C 
ATOM     35  H   NAG d 904      22.648 -14.990  32.650  0.00  0.00     0.078 H 
ATOM     36  H   NAG d 904      23.336 -16.615  32.579  0.00  0.00     0.078 H 
ATOM     37  H   NAG d 904      21.524 -15.664  34.610  0.00  0.00     0.209 HD
ATOM     38  H   NAG d 904      18.481 -18.075  32.999  0.00  0.00     0.084 H 
ATOM     39  H   NAG d 904      19.368 -13.913  32.641  0.00  0.00     0.210 HD
ATOM     40  H   NAG d 904      18.960 -16.175  30.676  0.00  0.00     0.091 H 
ATOM     41  H   NAG d 904      20.086 -18.455  30.441  0.00  0.00     0.132 H 
ATOM     42  H   NAG d 904      17.270 -18.243  30.286  0.00  0.00     0.163 HD
ATOM     43  H   NAG d 904      21.439 -16.298  31.019  0.00  0.00     0.090 H 
ATOM     44  H   NAG d 904      17.657 -19.576  33.596  0.00  0.00     0.040 H 
ATOM     45  H   NAG d 904      16.967 -21.127  33.184  0.00  0.00     0.040 H 
ATOM     46  H   NAG d 904      15.947 -19.859  33.821  0.00  0.00     0.040 H 
ATOM     47  H   NAG d 904      19.612 -20.243  32.627  0.00  0.00     0.212 HD
ATOM     48  H   NAG d 904      19.836 -15.998  33.566  0.00  0.00     0.091 H 
ENDROOT
TORSDOF 11
ENDMDL
MODEL 18
REMARK VINA RESULT:      -7.0      3.146      4.995
REMARK  0 active torsions:
REMARK  status: ('A' for Active; 'I' for Inactive)
REMARK       I    between atoms: O2_1  and  C2_13 
REMARK       I    between atoms: C6_2  and  C5_7 
REMARK       I    between atoms: C6_4  and  C5_18 
REMARK       I    between atoms: C6_4  and  O6_5 
REMARK       I    between atoms: O3_6  and  C1_24 
REMARK       I    between atoms: O3_6  and  C3_11 
REMARK       I    between atoms: C2_8  and  N2_16 
REMARK       I    between atoms: O4_10  and  C4_25 
REMARK       I    between atoms: C3_12  and  O3_26 
REMARK       I    between atoms: C1_14  and  O1_23 
REMARK       I    between atoms: C7_15  and  C8_21 
REMARK       I    between atoms: C7_15  and  N2_16 
ROOT
ATOM      1  O2  GCD d 903      21.673 -14.445  31.874  0.00  0.00    -0.388 OA
ATOM      2  C6  GCD d 903      15.773 -14.205  32.028  0.00  0.00     0.203 C 
ATOM      3  O6B GCD d 903      15.555 -13.000  32.131  0.00  0.00    -0.646 OA
ATOM      4  C5  GCD d 903      17.313 -14.405  31.868  0.00  0.00     0.127 C 
ATOM      5  C4  GCD d 903      17.864 -15.614  31.785  0.00  0.00    -0.005 C 
ATOM      6  C3  GCD d 903      19.358 -15.589  31.620  0.00  0.00     0.068 C 
ATOM      7  C2  GCD d 903      20.216 -14.360  32.132  0.00  0.00     0.107 C 
ATOM      8  O6A GCD d 903      14.989 -15.295  32.135  0.00  0.00    -0.646 OA
ATOM      9  O5  GCD d 903      18.028 -13.076  31.821  0.00  0.00    -0.343 OA
ATOM     10  C1  GCD d 903      19.501 -13.112  31.520  0.00  0.00     0.159 C 
ATOM     11  O3  GCD d 903      20.003 -16.740  32.199  0.00  0.00    -0.393 OA
ATOM     12  H   GCD d 903      22.029 -15.246  32.289  0.00  0.00     0.210 HD
ATOM     13  H   GCD d 903      18.064 -15.163  31.795  0.00  0.00     0.100 H 
ATOM     14  H   GCD d 903      17.440 -16.121  30.944  0.00  0.00     0.041 H 
ATOM     15  H   GCD d 903      17.660 -16.114  32.709  0.00  0.00     0.041 H 
ATOM     16  H   GCD d 903      19.364 -15.539  30.551  0.00  0.00     0.087 H 
ATOM     17  H   GCD d 903      20.235 -14.320  33.201  0.00  0.00     0.094 H 
ATOM     18  H   GCD d 903      19.764 -13.155  30.483  0.00  0.00     0.133 H 
ATOM     19  H   GCD d 903      19.944 -16.691  33.166  0.00  0.00     0.210 HD
ATOM     20  C6  NAG d 904      17.949  -7.341  32.549  0.00  0.00     0.043 C 
ATOM     21  O6  NAG d 904      17.945  -7.419  34.035  0.00  0.00    -0.398 OA
ATOM     22  O3  NAG d 904      19.856 -11.909  32.277  0.00  0.00    -0.348 OA
ATOM     23  C2  NAG d 904      21.404 -10.021  32.250  0.00  0.00     0.087 C 
ATOM     24  O4  NAG d 904      17.520 -10.157  32.015  0.00  0.00    -0.390 OA
ATOM     25  C3  NAG d 904      19.989 -10.556  31.792  0.00  0.00     0.093 C 
ATOM     26  C1  NAG d 904      21.562  -8.594  31.768  0.00  0.00     0.151 C 
ATOM     27  C7  NAG d 904      23.788 -11.247  32.480  0.00  0.00     0.214 C 
ATOM     28  N2  NAG d 904      22.582 -10.865  31.704  0.00  0.00    -0.349 N 
ATOM     29  C5  NAG d 904      19.029  -8.247  31.924  0.00  0.00     0.089 C 
ATOM     30  O5  NAG d 904      20.416  -7.753  32.315  0.00  0.00    -0.349 OA
ATOM     31  C8  NAG d 904      23.893 -10.754  33.937  0.00  0.00    -0.003 C 
ATOM     32  O7  NAG d 904      24.703 -11.945  31.988  0.00  0.00    -0.274 OA
ATOM     33  O1  NAG d 904      22.884  -8.103  32.176  0.00  0.00    -0.369 OA
ATOM     34  C4  NAG d 904      18.852  -9.677  32.409  0.00  0.00     0.089 C 
ATOM     35  H   NAG d 904      16.991  -7.645  32.185  0.00  0.00     0.078 H 
ATOM     36  H   NAG d 904      18.167  -6.331  32.273  0.00  0.00     0.078 H 
ATOM     37  H   NAG d 904      17.749  -8.328  34.310  0.00  0.00     0.209 HD
ATOM     38  H   NAG d 904      21.436 -10.087  33.317  0.00  0.00     0.084 H 
ATOM     39  H   NAG d 904      17.401 -11.069  32.322  0.00  0.00     0.210 HD
ATOM     40  H   NAG d 904      19.909 -10.518  30.725  0.00  0.00     0.091 H 
ATOM     41  H   NAG d 904      21.515  -8.532  30.701  0.00  0.00     0.132 H 
ATOM     42  H   NAG d 904      22.527 -11.171  30.770  0.00  0.00     0.163 HD
ATOM     43  H   NAG d 904      18.927  -8.216  30.859  0.00  0.00     0.090 H 
ATOM     44  H   NAG d 904      23.027 -10.177  34.182  0.00  0.00     0.040 H 
ATOM     45  H   NAG d 904      24.768 -10.148  34.046  0.00  0.00     0.040 H 
ATOM     46  H   NAG d 904      23.959 -11.597  34.594  0.00  0.00     0.040 H 
ATOM     47  H   NAG d 904      22.961  -8.147  33.142  0.00  0.00     0.212 HD
ATOM     48  H   NAG d 904      18.921  -9.735  33.475  0.00  0.00     0.091 H 
ENDROOT
TORSDOF 11
ENDMDL
MODEL 19
REMARK VINA RESULT:      -7.0      2.154      6.235
REMARK  0 active torsions:
REMARK  status: ('A' for Active; 'I' for Inactive)
REMARK       I    between atoms: O2_1  and  C2_13 
REMARK       I    between atoms: C6_2  and  C5_7 
REMARK       I    between atoms: C6_4  and  C5_18 
REMARK       I    between atoms: C6_4  and  O6_5 
REMARK       I    between atoms: O3_6  and  C1_24 
REMARK       I    between atoms: O3_6  and  C3_11 
REMARK       I    between atoms: C2_8  and  N2_16 
REMARK       I    between atoms: O4_10  and  C4_25 
REMARK       I    between atoms: C3_12  and  O3_26 
REMARK       I    between atoms: C1_14  and  O1_23 
REMARK       I    between atoms: C7_15  and  C8_21 
REMARK       I    between atoms: C7_15  and  N2_16 
ROOT
ATOM      1  O2  GCD d 903      17.049 -17.405  31.046  0.00  0.00    -0.388 OA
ATOM      2  C6  GCD d 903      14.714 -12.117  32.263  0.00  0.00     0.203 C 
ATOM      3  O6B GCD d 903      15.681 -11.486  32.684  0.00  0.00    -0.646 OA
ATOM      4  C5  GCD d 903      15.218 -13.519  31.798  0.00  0.00     0.127 C 
ATOM      5  C4  GCD d 903      14.387 -14.452  31.338  0.00  0.00    -0.005 C 
ATOM      6  C3  GCD d 903      15.073 -15.727  30.929  0.00  0.00     0.068 C 
ATOM      7  C2  GCD d 903      16.463 -16.145  31.563  0.00  0.00     0.107 C 
ATOM      8  O6A GCD d 903      13.390 -11.868  32.241  0.00  0.00    -0.646 OA
ATOM      9  O5  GCD d 903      16.716 -13.630  31.945  0.00  0.00    -0.343 OA
ATOM     10  C1  GCD d 903      17.359 -14.875  31.396  0.00  0.00     0.159 C 
ATOM     11  O3  GCD d 903      14.239 -16.889  31.100  0.00  0.00    -0.393 OA
ATOM     12  H   GCD d 903      16.427 -18.134  31.193  0.00  0.00     0.210 HD
ATOM     13  H   GCD d 903      14.873 -14.459  31.420  0.00  0.00     0.100 H 
ATOM     14  H   GCD d 903      13.874 -14.058  30.486  0.00  0.00     0.041 H 
ATOM     15  H   GCD d 903      13.721 -14.699  32.138  0.00  0.00     0.041 H 
ATOM     16  H   GCD d 903      15.275 -15.440  29.918  0.00  0.00     0.087 H 
ATOM     17  H   GCD d 903      16.353 -16.418  32.592  0.00  0.00     0.094 H 
ATOM     18  H   GCD d 903      17.582 -14.860  30.349  0.00  0.00     0.133 H 
ATOM     19  H   GCD d 903      14.118 -17.064  32.047  0.00  0.00     0.210 HD
ATOM     20  C6  NAG d 904      21.694 -11.539  34.014  0.00  0.00     0.043 C 
ATOM     21  O6  NAG d 904      21.408 -11.943  35.416  0.00  0.00    -0.398 OA
ATOM     22  O3  NAG d 904      18.475 -14.919  32.344  0.00  0.00    -0.348 OA
ATOM     23  C2  NAG d 904      20.826 -15.559  32.499  0.00  0.00     0.087 C 
ATOM     24  O4  NAG d 904      19.075 -12.105  32.910  0.00  0.00    -0.390 OA
ATOM     25  C3  NAG d 904      19.808 -14.393  32.178  0.00  0.00     0.093 C 
ATOM     26  C1  NAG d 904      22.236 -15.028  32.350  0.00  0.00     0.151 C 
ATOM     27  C7  NAG d 904      20.720 -18.204  32.021  0.00  0.00     0.214 C 
ATOM     28  N2  NAG d 904      20.657 -16.790  31.576  0.00  0.00    -0.349 N 
ATOM     29  C5  NAG d 904      21.438 -12.686  33.016  0.00  0.00     0.089 C 
ATOM     30  O5  NAG d 904      22.416 -13.826  33.269  0.00  0.00    -0.349 OA
ATOM     31  C8  NAG d 904      20.995 -18.479  33.513  0.00  0.00    -0.003 C 
ATOM     32  O7  NAG d 904      20.560 -19.160  31.228  0.00  0.00    -0.274 OA
ATOM     33  O1  NAG d 904      23.181 -16.115  32.630  0.00  0.00    -0.369 OA
ATOM     34  C4  NAG d 904      20.017 -13.203  33.171  0.00  0.00     0.089 C 
ATOM     35  H   NAG d 904      21.065 -10.713  33.757  0.00  0.00     0.078 H 
ATOM     36  H   NAG d 904      22.728 -11.273  33.951  0.00  0.00     0.078 H 
ATOM     37  H   NAG d 904      20.474 -12.189  35.498  0.00  0.00     0.209 HD
ATOM     38  H   NAG d 904      20.627 -15.884  33.499  0.00  0.00     0.084 H 
ATOM     39  H   NAG d 904      18.166 -12.429  33.007  0.00  0.00     0.210 HD
ATOM     40  H   NAG d 904      19.962 -14.036  31.181  0.00  0.00     0.091 H 
ATOM     41  H   NAG d 904      22.425 -14.690  31.352  0.00  0.00     0.132 H 
ATOM     42  H   NAG d 904      20.494 -16.622  30.619  0.00  0.00     0.163 HD
ATOM     43  H   NAG d 904      21.575 -12.313  32.022  0.00  0.00     0.090 H 
ATOM     44  H   NAG d 904      21.103 -17.550  34.032  0.00  0.00     0.040 H 
ATOM     45  H   NAG d 904      21.895 -19.050  33.610  0.00  0.00     0.040 H 
ATOM     46  H   NAG d 904      20.177 -19.029  33.930  0.00  0.00     0.040 H 
ATOM     47  H   NAG d 904      23.036 -16.446  33.530  0.00  0.00     0.212 HD
ATOM     48  H   NAG d 904      19.841 -13.558  34.165  0.00  0.00     0.091 H 
ENDROOT
TORSDOF 11
ENDMDL
MODEL 20
REMARK VINA RESULT:      -6.9      2.327      5.239
REMARK  0 active torsions:
REMARK  status: ('A' for Active; 'I' for Inactive)
REMARK       I    between atoms: O2_1  and  C2_13 
REMARK       I    between atoms: C6_2  and  C5_7 
REMARK       I    between atoms: C6_4  and  C5_18 
REMARK       I    between atoms: C6_4  and  O6_5 
REMARK       I    between atoms: O3_6  and  C1_24 
REMARK       I    between atoms: O3_6  and  C3_11 
REMARK       I    between atoms: C2_8  and  N2_16 
REMARK       I    between atoms: O4_10  and  C4_25 
REMARK       I    between atoms: C3_12  and  O3_26 
REMARK       I    between atoms: C1_14  and  O1_23 
REMARK       I    between atoms: C7_15  and  C8_21 
REMARK       I    between atoms: C7_15  and  N2_16 
ROOT
ATOM      1  O2  GCD d 903      17.911 -16.002  31.470  0.00  0.00    -0.388 OA
ATOM      2  C6  GCD d 903      13.287 -12.371  32.051  0.00  0.00     0.203 C 
ATOM      3  O6B GCD d 903      13.812 -11.323  32.421  0.00  0.00    -0.646 OA
ATOM      4  C5  GCD d 903      14.422 -13.401  31.753  0.00  0.00     0.127 C 
ATOM      5  C4  GCD d 903      14.161 -14.652  31.380  0.00  0.00    -0.005 C 
ATOM      6  C3  GCD d 903      15.392 -15.479  31.128  0.00  0.00     0.068 C 
ATOM      7  C2  GCD d 903      16.767 -15.132  31.833  0.00  0.00     0.107 C 
ATOM      8  O6A GCD d 903      12.007 -12.782  31.975  0.00  0.00    -0.646 OA
ATOM      9  O5  GCD d 903      15.782 -12.775  31.944  0.00  0.00    -0.343 OA
ATOM     10  C1  GCD d 903      16.971 -13.608  31.547  0.00  0.00     0.159 C 
ATOM     11  O3  GCD d 903      15.192 -16.878  31.408  0.00  0.00    -0.393 OA
ATOM     12  H   GCD d 903      17.695 -16.923  31.682  0.00  0.00     0.210 HD
ATOM     13  H   GCD d 903      14.586 -14.420  31.473  0.00  0.00     0.100 H 
ATOM     14  H   GCD d 903      13.584 -14.623  30.480  0.00  0.00     0.041 H 
ATOM     15  H   GCD d 903      13.634 -15.115  32.189  0.00  0.00     0.041 H 
ATOM     16  H   GCD d 903      15.506 -15.219  30.096  0.00  0.00     0.087 H 
ATOM     17  H   GCD d 903      16.727 -15.334  32.883  0.00  0.00     0.094 H 
ATOM     18  H   GCD d 903      17.234 -13.580  30.510  0.00  0.00     0.133 H 
ATOM     19  H   GCD d 903      15.100 -17.007  32.365  0.00  0.00     0.210 HD
ATOM     20  C6  NAG d 904      19.037  -8.404  33.875  0.00  0.00     0.043 C 
ATOM     21  O6  NAG d 904      18.876  -8.772  35.307  0.00  0.00    -0.398 OA
ATOM     22  O3  NAG d 904      17.908 -13.036  32.517  0.00  0.00    -0.348 OA
ATOM     23  C2  NAG d 904      20.266 -12.468  32.792  0.00  0.00     0.087 C 
ATOM     24  O4  NAG d 904      17.075 -10.237  32.785  0.00  0.00    -0.390 OA
ATOM     25  C3  NAG d 904      18.846 -11.957  32.323  0.00  0.00     0.093 C 
ATOM     26  C1  NAG d 904      21.268 -11.347  32.614  0.00  0.00     0.151 C 
ATOM     27  C7  NAG d 904      21.449 -14.878  32.603  0.00  0.00     0.214 C 
ATOM     28  N2  NAG d 904      20.760 -13.707  32.005  0.00  0.00    -0.349 N 
ATOM     29  C5  NAG d 904      19.420  -9.617  33.003  0.00  0.00     0.089 C 
ATOM     30  O5  NAG d 904      20.799 -10.129  33.400  0.00  0.00    -0.349 OA
ATOM     31  C8  NAG d 904      21.714 -14.859  34.121  0.00  0.00    -0.003 C 
ATOM     32  O7  NAG d 904      21.812 -15.859  31.916  0.00  0.00    -0.274 OA
ATOM     33  O1  NAG d 904      22.591 -11.828  33.031  0.00  0.00    -0.369 OA
ATOM     34  C4  NAG d 904      18.401 -10.730  33.184  0.00  0.00     0.089 C 
ATOM     35  H   NAG d 904      18.113  -8.000  33.517  0.00  0.00     0.078 H 
ATOM     36  H   NAG d 904      19.827  -7.686  33.806  0.00  0.00     0.078 H 
ATOM     37  H   NAG d 904      18.164  -9.424  35.396  0.00  0.00     0.209 HD
ATOM     38  H   NAG d 904      20.173 -12.761  33.817  0.00  0.00     0.084 H 
ATOM     39  H   NAG d 904      16.420 -10.944  32.898  0.00  0.00     0.210 HD
ATOM     40  H   NAG d 904      18.883 -11.658  31.296  0.00  0.00     0.091 H 
ATOM     41  H   NAG d 904      21.346 -11.048  31.590  0.00  0.00     0.132 H 
ATOM     42  H   NAG d 904      20.605 -13.719  31.032  0.00  0.00     0.163 HD
ATOM     43  H   NAG d 904      19.436  -9.310  31.978  0.00  0.00     0.090 H 
ATOM     44  H   NAG d 904      21.337 -13.949  34.538  0.00  0.00     0.040 H 
ATOM     45  H   NAG d 904      22.767 -14.924  34.300  0.00  0.00     0.040 H 
ATOM     46  H   NAG d 904      21.223 -15.693  34.579  0.00  0.00     0.040 H 
ATOM     47  H   NAG d 904      22.555 -12.108  33.959  0.00  0.00     0.212 HD
ATOM     48  H   NAG d 904      18.343 -11.038  34.207  0.00  0.00     0.091 H 
ENDROOT
TORSDOF 11
ENDMDL
MODEL 21
REMARK VINA RESULT:      -6.9      2.055      6.862
REMARK  0 active torsions:
REMARK  status: ('A' for Active; 'I' for Inactive)
REMARK       I    between atoms: O2_1  and  C2_13 
REMARK       I    between atoms: C6_2  and  C5_7 
REMARK       I    between atoms: C6_4  and  C5_18 
REMARK       I    between atoms: C6_4  and  O6_5 
REMARK       I    between atoms: O3_6  and  C1_24 
REMARK       I    between atoms: O3_6  and  C3_11 
REMARK       I    between atoms: C2_8  and  N2_16 
REMARK       I    between atoms: O4_10  and  C4_25 
REMARK       I    between atoms: C3_12  and  O3_26 
REMARK       I    between atoms: C1_14  and  O1_23 
REMARK       I    between atoms: C7_15  and  C8_21 
REMARK       I    between atoms: C7_15  and  N2_16 
ROOT
ATOM      1  O2  GCD d 903      16.510 -10.014  32.436  0.00  0.00    -0.388 OA
ATOM      2  C6  GCD d 903      21.364 -12.365  34.844  0.00  0.00     0.203 C 
ATOM      3  O6B GCD d 903      21.147 -13.572  34.765  0.00  0.00    -0.646 OA
ATOM      4  C5  GCD d 903      20.191 -11.616  34.138  0.00  0.00     0.127 C 
ATOM      5  C4  GCD d 903      20.119 -10.287  34.105  0.00  0.00    -0.005 C 
ATOM      6  C3  GCD d 903      18.920  -9.763  33.364  0.00  0.00     0.068 C 
ATOM      7  C2  GCD d 903      17.604 -10.632  33.222  0.00  0.00     0.107 C 
ATOM      8  O6A GCD d 903      22.303 -11.639  35.481  0.00  0.00    -0.646 OA
ATOM      9  O5  GCD d 903      19.213 -12.593  33.532  0.00  0.00    -0.343 OA
ATOM     10  C1  GCD d 903      18.110 -12.012  32.690  0.00  0.00     0.159 C 
ATOM     11  O3  GCD d 903      18.458  -8.497  33.873  0.00  0.00    -0.393 OA
ATOM     12  H   GCD d 903      16.262  -9.167  32.838  0.00  0.00     0.210 HD
ATOM     13  H   GCD d 903      19.812 -10.636  33.939  0.00  0.00     0.100 H 
ATOM     14  H   GCD d 903      21.001  -9.913  33.627  0.00  0.00     0.041 H 
ATOM     15  H   GCD d 903      20.031  -9.954  35.118  0.00  0.00     0.041 H 
ATOM     16  H   GCD d 903      19.374  -9.740  32.395  0.00  0.00     0.087 H 
ATOM     17  H   GCD d 903      17.102 -10.731  34.162  0.00  0.00     0.094 H 
ATOM     18  H   GCD d 903      18.360 -11.811  31.669  0.00  0.00     0.133 H 
ATOM     19  H   GCD d 903      18.066  -8.625  34.751  0.00  0.00     0.210 HD
ATOM     20  C6  NAG d 904      17.260 -18.009  32.992  0.00  0.00     0.043 C 
ATOM     21  O6  NAG d 904      16.629 -18.032  34.339  0.00  0.00    -0.398 OA
ATOM     22  O3  NAG d 904      17.119 -13.054  32.971  0.00  0.00    -0.348 OA
ATOM     23  C2  NAG d 904      15.262 -14.253  31.936  0.00  0.00     0.087 C 
ATOM     24  O4  NAG d 904      18.693 -15.507  33.283  0.00  0.00    -0.390 OA
ATOM     25  C3  NAG d 904      16.821 -14.234  32.197  0.00  0.00     0.093 C 
ATOM     26  C1  NAG d 904      14.919 -15.494  31.139  0.00  0.00     0.151 C 
ATOM     27  C7  NAG d 904      13.505 -12.271  31.465  0.00  0.00     0.214 C 
ATOM     28  N2  NAG d 904      14.756 -13.010  31.164  0.00  0.00    -0.349 N 
ATOM     29  C5  NAG d 904      16.891 -16.737  32.201  0.00  0.00     0.089 C 
ATOM     30  O5  NAG d 904      15.398 -16.724  31.900  0.00  0.00    -0.349 OA
ATOM     31  C8  NAG d 904      12.625 -12.785  32.622  0.00  0.00    -0.003 C 
ATOM     32  O7  NAG d 904      13.155 -11.261  30.814  0.00  0.00    -0.274 OA
ATOM     33  O1  NAG d 904      13.474 -15.503  30.879  0.00  0.00    -0.369 OA
ATOM     34  C4  NAG d 904      17.249 -15.500  33.009  0.00  0.00     0.089 C 
ATOM     35  H   NAG d 904      18.323 -18.046  33.108  0.00  0.00     0.078 H 
ATOM     36  H   NAG d 904      16.899 -18.853  32.444  0.00  0.00     0.078 H 
ATOM     37  H   NAG d 904      16.941 -17.274  34.856  0.00  0.00     0.209 HD
ATOM     38  H   NAG d 904      14.782 -14.249  32.892  0.00  0.00     0.084 H 
ATOM     39  H   NAG d 904      18.928 -14.719  33.799  0.00  0.00     0.210 HD
ATOM     40  H   NAG d 904      17.350 -14.230  31.267  0.00  0.00     0.091 H 
ATOM     41  H   NAG d 904      15.413 -15.501  30.190  0.00  0.00     0.132 H 
ATOM     42  H   NAG d 904      15.307 -12.685  30.416  0.00  0.00     0.163 HD
ATOM     43  H   NAG d 904      17.440 -16.734  31.282  0.00  0.00     0.090 H 
ATOM     44  H   NAG d 904      13.079 -13.649  33.059  0.00  0.00     0.040 H 
ATOM     45  H   NAG d 904      11.657 -13.042  32.246  0.00  0.00     0.040 H 
ATOM     46  H   NAG d 904      12.528 -12.019  33.363  0.00  0.00     0.040 H 
ATOM     47  H   NAG d 904      12.995 -15.497  31.722  0.00  0.00     0.212 HD
ATOM     48  H   NAG d 904      16.736 -15.490  33.947  0.00  0.00     0.091 H 
ENDROOT
TORSDOF 11
ENDMDL
MODEL 22
REMARK VINA RESULT:      -6.8      2.558      6.326
REMARK  0 active torsions:
REMARK  status: ('A' for Active; 'I' for Inactive)
REMARK       I    between atoms: O2_1  and  C2_13 
REMARK       I    between atoms: C6_2  and  C5_7 
REMARK       I    between atoms: C6_4  and  C5_18 
REMARK       I    between atoms: C6_4  and  O6_5 
REMARK       I    between atoms: O3_6  and  C1_24 
REMARK       I    between atoms: O3_6  and  C3_11 
REMARK       I    between atoms: C2_8  and  N2_16 
REMARK       I    between atoms: O4_10  and  C4_25 
REMARK       I    between atoms: C3_12  and  O3_26 
REMARK       I    between atoms: C1_14  and  O1_23 
REMARK       I    between atoms: C7_15  and  C8_21 
REMARK       I    between atoms: C7_15  and  N2_16 
ROOT
ATOM      1  O2  GCD d 903      18.510 -10.316  32.985  0.00  0.00    -0.388 OA
ATOM      2  C6  GCD d 903      15.378 -15.136  31.626  0.00  0.00     0.203 C 
ATOM      3  O6B GCD d 903      16.244 -16.005  31.542  0.00  0.00    -0.646 OA
ATOM      4  C5  GCD d 903      16.065 -13.814  32.091  0.00  0.00     0.127 C 
ATOM      5  C4  GCD d 903      15.388 -12.675  32.225  0.00  0.00    -0.005 C 
ATOM      6  C3  GCD d 903      16.230 -11.522  32.696  0.00  0.00     0.068 C 
ATOM      7  C2  GCD d 903      17.792 -11.490  32.436  0.00  0.00     0.107 C 
ATOM      8  O6A GCD d 903      14.070 -15.106  31.304  0.00  0.00    -0.646 OA
ATOM      9  O5  GCD d 903      17.536 -14.032  32.352  0.00  0.00    -0.343 OA
ATOM     10  C1  GCD d 903      18.295 -12.879  32.950  0.00  0.00     0.159 C 
ATOM     11  O3  GCD d 903      15.762 -10.251  32.205  0.00  0.00    -0.393 OA
ATOM     12  H   GCD d 903      18.133  -9.504  32.612  0.00  0.00     0.210 HD
ATOM     13  H   GCD d 903      15.868 -12.780  32.278  0.00  0.00     0.100 H 
ATOM     14  H   GCD d 903      14.602 -12.831  32.933  0.00  0.00     0.041 H 
ATOM     15  H   GCD d 903      15.019 -12.416  31.254  0.00  0.00     0.041 H 
ATOM     16  H   GCD d 903      16.101 -11.695  33.745  0.00  0.00     0.087 H 
ATOM     17  H   GCD d 903      18.009 -11.352  31.397  0.00  0.00     0.094 H 
ATOM     18  H   GCD d 903      18.241 -12.788  34.015  0.00  0.00     0.133 H 
ATOM     19  H   GCD d 903      15.924 -10.193  31.251  0.00  0.00     0.210 HD
ATOM     20  C6  NAG d 904      22.238 -17.368  31.915  0.00  0.00     0.043 C 
ATOM     21  O6  NAG d 904      22.413 -17.121  30.459  0.00  0.00    -0.398 OA
ATOM     22  O3  NAG d 904      19.590 -13.200  32.344  0.00  0.00    -0.348 OA
ATOM     23  C2  NAG d 904      21.988 -13.081  32.786  0.00  0.00     0.087 C 
ATOM     24  O4  NAG d 904      19.635 -16.128  32.205  0.00  0.00    -0.390 OA
ATOM     25  C3  NAG d 904      20.678 -13.956  32.914  0.00  0.00     0.093 C 
ATOM     26  C1  NAG d 904      23.151 -13.860  33.362  0.00  0.00     0.151 C 
ATOM     27  C7  NAG d 904      22.389 -10.428  32.992  0.00  0.00     0.214 C 
ATOM     28  N2  NAG d 904      21.888 -11.721  33.520  0.00  0.00    -0.349 N 
ATOM     29  C5  NAG d 904      22.019 -16.061  32.703  0.00  0.00     0.089 C 
ATOM     30  O5  NAG d 904      23.268 -15.193  32.633  0.00  0.00    -0.349 OA
ATOM     31  C8  NAG d 904      23.083 -10.432  31.615  0.00  0.00    -0.003 C 
ATOM     32  O7  NAG d 904      22.266  -9.356  33.626  0.00  0.00    -0.274 OA
ATOM     33  O1  NAG d 904      24.364 -13.039  33.261  0.00  0.00    -0.369 OA
ATOM     34  C4  NAG d 904      20.842 -15.294  32.121  0.00  0.00     0.089 C 
ATOM     35  H   NAG d 904      21.389 -18.003  32.058  0.00  0.00     0.078 H 
ATOM     36  H   NAG d 904      23.133 -17.827  32.281  0.00  0.00     0.078 H 
ATOM     37  H   NAG d 904      21.614 -16.704  30.103  0.00  0.00     0.209 HD
ATOM     38  H   NAG d 904      22.126 -12.869  31.747  0.00  0.00     0.084 H 
ATOM     39  H   NAG d 904      18.881 -15.643  31.834  0.00  0.00     0.210 HD
ATOM     40  H   NAG d 904      20.491 -14.190  33.941  0.00  0.00     0.091 H 
ATOM     41  H   NAG d 904      23.002 -14.082  34.398  0.00  0.00     0.132 H 
ATOM     42  H   NAG d 904      21.458 -11.713  34.406  0.00  0.00     0.163 HD
ATOM     43  H   NAG d 904      21.813 -16.308  33.724  0.00  0.00     0.090 H 
ATOM     44  H   NAG d 904      23.097 -11.429  31.226  0.00  0.00     0.040 H 
ATOM     45  H   NAG d 904      24.087 -10.077  31.720  0.00  0.00     0.040 H 
ATOM     46  H   NAG d 904      22.547  -9.794  30.944  0.00  0.00     0.040 H 
ATOM     47  H   NAG d 904      24.529 -12.819  32.332  0.00  0.00     0.212 HD
ATOM     48  H   NAG d 904      21.008 -15.058  31.090  0.00  0.00     0.091 H 
ENDROOT
TORSDOF 11
ENDMDL
MODEL 23
REMARK VINA RESULT:      -6.8      2.648      8.049
REMARK  0 active torsions:
REMARK  status: ('A' for Active; 'I' for Inactive)
REMARK       I    between atoms: O2_1  and  C2_13 
REMARK       I    between atoms: C6_2  and  C5_7 
REMARK       I    between atoms: C6_4  and  C5_18 
REMARK       I    between atoms: C6_4  and  O6_5 
REMARK       I    between atoms: O3_6  and  C1_24 
REMARK       I    between atoms: O3_6  and  C3_11 
REMARK       I    between atoms: C2_8  and  N2_16 
REMARK       I    between atoms: O4_10  and  C4_25 
REMARK       I    between atoms: C3_12  and  O3_26 
REMARK       I    between atoms: C1_14  and  O1_23 
REMARK       I    between atoms: C7_15  and  C8_21 
REMARK       I    between atoms: C7_15  and  N2_16 
ROOT
ATOM      1  O2  GCD d 903      17.127 -12.588  32.176  0.00  0.00    -0.388 OA
ATOM      2  C6  GCD d 903      22.686 -10.594  32.273  0.00  0.00     0.203 C 
ATOM      3  O6B GCD d 903      23.345 -11.630  32.225  0.00  0.00    -0.646 OA
ATOM      4  C5  GCD d 903      21.178 -10.974  32.145  0.00  0.00     0.127 C 
ATOM      5  C4  GCD d 903      20.210 -10.062  32.215  0.00  0.00    -0.005 C 
ATOM      6  C3  GCD d 903      18.828 -10.632  32.055  0.00  0.00     0.068 C 
ATOM      7  C2  GCD d 903      18.520 -12.143  32.415  0.00  0.00     0.107 C 
ATOM      8  O6A GCD d 903      23.009  -9.307  32.510  0.00  0.00    -0.646 OA
ATOM      9  O5  GCD d 903      21.011 -12.460  31.938  0.00  0.00    -0.343 OA
ATOM     10  C1  GCD d 903      19.619 -12.951  31.650  0.00  0.00     0.159 C 
ATOM     11  O3  GCD d 903      17.829  -9.884  32.775  0.00  0.00    -0.393 OA
ATOM     12  H   GCD d 903      16.518 -12.033  32.689  0.00  0.00     0.210 HD
ATOM     13  H   GCD d 903      20.195 -10.553  32.171  0.00  0.00     0.100 H 
ATOM     14  H   GCD d 903      20.370  -9.341  31.441  0.00  0.00     0.041 H 
ATOM     15  H   GCD d 903      20.259  -9.630  33.193  0.00  0.00     0.041 H 
ATOM     16  H   GCD d 903      18.787 -10.560  30.988  0.00  0.00     0.087 H 
ATOM     17  H   GCD d 903      18.572 -12.308  33.471  0.00  0.00     0.094 H 
ATOM     18  H   GCD d 903      19.307 -12.893  30.627  0.00  0.00     0.133 H 
ATOM     19  H   GCD d 903      17.951 -10.015  33.728  0.00  0.00     0.210 HD
ATOM     20  C6  NAG d 904      23.271 -17.782  31.951  0.00  0.00     0.043 C 
ATOM     21  O6  NAG d 904      23.321 -17.876  33.435  0.00  0.00    -0.398 OA
ATOM     22  O3  NAG d 904      19.780 -14.276  32.254  0.00  0.00    -0.348 OA
ATOM     23  C2  NAG d 904      19.053 -16.592  32.001  0.00  0.00     0.087 C 
ATOM     24  O4  NAG d 904      22.586 -14.972  31.767  0.00  0.00    -0.390 OA
ATOM     25  C3  NAG d 904      20.139 -15.514  31.606  0.00  0.00     0.093 C 
ATOM     26  C1  NAG d 904      19.417 -17.909  31.347  0.00  0.00     0.151 C 
ATOM     27  C7  NAG d 904      16.399 -16.394  32.392  0.00  0.00     0.214 C 
ATOM     28  N2  NAG d 904      17.619 -16.202  31.569  0.00  0.00    -0.349 N 
ATOM     29  C5  NAG d 904      21.900 -17.287  31.447  0.00  0.00     0.089 C 
ATOM     30  O5  NAG d 904      20.821 -18.310  31.780  0.00  0.00    -0.349 OA
ATOM     31  C8  NAG d 904      16.560 -17.050  33.777  0.00  0.00    -0.003 C 
ATOM     32  O7  NAG d 904      15.265 -16.043  31.994  0.00  0.00    -0.274 OA
ATOM     33  O1  NAG d 904      18.398 -18.906  31.697  0.00  0.00    -0.369 OA
ATOM     34  C4  NAG d 904      21.552 -15.961  32.104  0.00  0.00     0.089 C 
ATOM     35  H   NAG d 904      24.026 -17.099  31.622  0.00  0.00     0.078 H 
ATOM     36  H   NAG d 904      23.434 -18.762  31.553  0.00  0.00     0.078 H 
ATOM     37  H   NAG d 904      23.176 -16.999  33.819  0.00  0.00     0.209 HD
ATOM     38  H   NAG d 904      19.054 -16.665  33.068  0.00  0.00     0.084 H 
ATOM     39  H   NAG d 904      22.369 -14.124  32.184  0.00  0.00     0.210 HD
ATOM     40  H   NAG d 904      20.173 -15.398  30.543  0.00  0.00     0.091 H 
ATOM     41  H   NAG d 904      19.430 -17.828  30.280  0.00  0.00     0.132 H 
ATOM     42  H   NAG d 904      17.507 -15.794  30.680  0.00  0.00     0.163 HD
ATOM     43  H   NAG d 904      21.952 -17.157  30.386  0.00  0.00     0.090 H 
ATOM     44  H   NAG d 904      17.591 -17.281  33.945  0.00  0.00     0.040 H 
ATOM     45  H   NAG d 904      15.983 -17.951  33.814  0.00  0.00     0.040 H 
ATOM     46  H   NAG d 904      16.217 -16.376  34.534  0.00  0.00     0.040 H 
ATOM     47  H   NAG d 904      18.360 -19.004  32.661  0.00  0.00     0.212 HD
ATOM     48  H   NAG d 904      21.521 -16.055  33.170  0.00  0.00     0.091 H 
ENDROOT
TORSDOF 11
ENDMDL
MODEL 24
REMARK VINA RESULT:      -6.7      2.660      6.940
REMARK  0 active torsions:
REMARK  status: ('A' for Active; 'I' for Inactive)
REMARK       I    between atoms: O2_1  and  C2_13 
REMARK       I    between atoms: C6_2  and  C5_7 
REMARK       I    between atoms: C6_4  and  C5_18 
REMARK       I    between atoms: C6_4  and  O6_5 
REMARK       I    between atoms: O3_6  and  C1_24 
REMARK       I    between atoms: O3_6  and  C3_11 
REMARK       I    between atoms: C2_8  and  N2_16 
REMARK       I    between atoms: O4_10  and  C4_25 
REMARK       I    between atoms: C3_12  and  O3_26 
REMARK       I    between atoms: C1_14  and  O1_23 
REMARK       I    between atoms: C7_15  and  C8_21 
REMARK       I    between atoms: C7_15  and  N2_16 
ROOT
ATOM      1  O2  GCD d 903      22.098 -14.632  31.978  0.00  0.00    -0.388 OA
ATOM      2  C6  GCD d 903      16.365 -13.306  32.491  0.00  0.00     0.203 C 
ATOM      3  O6B GCD d 903      15.851 -14.403  32.699  0.00  0.00    -0.646 OA
ATOM      4  C5  GCD d 903      17.912 -13.498  32.440  0.00  0.00     0.127 C 
ATOM      5  C4  GCD d 903      18.742 -12.490  32.177  0.00  0.00    -0.005 C 
ATOM      6  C3  GCD d 903      20.194 -12.882  32.189  0.00  0.00     0.068 C 
ATOM      7  C2  GCD d 903      20.641 -14.373  31.898  0.00  0.00     0.107 C 
ATOM      8  O6A GCD d 903      15.856 -12.090  32.209  0.00  0.00    -0.646 OA
ATOM      9  O5  GCD d 903      18.288 -14.932  32.727  0.00  0.00    -0.343 OA
ATOM     10  C1  GCD d 903      19.756 -15.233  32.859  0.00  0.00     0.159 C 
ATOM     11  O3  GCD d 903      20.994 -12.088  31.291  0.00  0.00    -0.393 OA
ATOM     12  H   GCD d 903      22.563 -14.058  31.350  0.00  0.00     0.210 HD
ATOM     13  H   GCD d 903      18.824 -12.971  32.253  0.00  0.00     0.100 H 
ATOM     14  H   GCD d 903      18.592 -11.729  32.913  0.00  0.00     0.041 H 
ATOM     15  H   GCD d 903      18.518 -12.152  31.187  0.00  0.00     0.041 H 
ATOM     16  H   GCD d 903      20.359 -12.714  33.234  0.00  0.00     0.087 H 
ATOM     17  H   GCD d 903      20.478 -14.633  30.873  0.00  0.00     0.094 H 
ATOM     18  H   GCD d 903      20.184 -15.053  33.823  0.00  0.00     0.133 H 
ATOM     19  H   GCD d 903      20.770 -12.314  30.374  0.00  0.00     0.210 HD
ATOM     20  C6  NAG d 904      16.728 -20.460  33.390  0.00  0.00     0.043 C 
ATOM     21  O6  NAG d 904      16.504 -20.686  31.937  0.00  0.00    -0.398 OA
ATOM     22  O3  NAG d 904      19.688 -16.615  32.376  0.00  0.00    -0.348 OA
ATOM     23  C2  NAG d 904      20.724 -18.802  32.691  0.00  0.00     0.087 C 
ATOM     24  O4  NAG d 904      17.074 -17.585  33.283  0.00  0.00    -0.390 OA
ATOM     25  C3  NAG d 904      19.570 -17.825  33.151  0.00  0.00     0.093 C 
ATOM     26  C1  NAG d 904      20.613 -20.091  33.478  0.00  0.00     0.151 C 
ATOM     27  C7  NAG d 904      23.263 -18.334  31.933  0.00  0.00     0.214 C 
ATOM     28  N2  NAG d 904      22.141 -18.214  32.897  0.00  0.00    -0.349 N 
ATOM     29  C5  NAG d 904      18.079 -19.769  33.669  0.00  0.00     0.089 C 
ATOM     30  O5  NAG d 904      19.226 -20.686  33.266  0.00  0.00    -0.349 OA
ATOM     31  C8  NAG d 904      23.013 -19.121  30.631  0.00  0.00    -0.003 C 
ATOM     32  O7  NAG d 904      24.385 -17.823  32.149  0.00  0.00    -0.274 OA
ATOM     33  O1  NAG d 904      21.696 -20.991  33.064  0.00  0.00    -0.369 OA
ATOM     34  C4  NAG d 904      18.173 -18.473  32.880  0.00  0.00     0.089 C 
ATOM     35  H   NAG d 904      15.941 -19.842  33.769  0.00  0.00     0.078 H 
ATOM     36  H   NAG d 904      16.740 -21.414  33.874  0.00  0.00     0.078 H 
ATOM     37  H   NAG d 904      16.490 -19.833  31.476  0.00  0.00     0.209 HD
ATOM     38  H   NAG d 904      20.599 -18.965  31.640  0.00  0.00     0.084 H 
ATOM     39  H   NAG d 904      17.129 -16.755  32.783  0.00  0.00     0.210 HD
ATOM     40  H   NAG d 904      19.655 -17.624  34.199  0.00  0.00     0.091 H 
ATOM     41  H   NAG d 904      20.723 -19.921  34.528  0.00  0.00     0.132 H 
ATOM     42  H   NAG d 904      22.312 -17.721  33.732  0.00  0.00     0.163 HD
ATOM     43  H   NAG d 904      18.144 -19.555  34.716  0.00  0.00     0.090 H 
ATOM     44  H   NAG d 904      22.006 -19.482  30.620  0.00  0.00     0.040 H 
ATOM     45  H   NAG d 904      23.689 -19.950  30.580  0.00  0.00     0.040 H 
ATOM     46  H   NAG d 904      23.172 -18.479  29.790  0.00  0.00     0.040 H 
ATOM     47  H   NAG d 904      21.625 -21.166  32.113  0.00  0.00     0.212 HD
ATOM     48  H   NAG d 904      18.082 -18.653  31.829  0.00  0.00     0.091 H 
ENDROOT
TORSDOF 11
ENDMDL
MODEL 25
REMARK VINA RESULT:      -6.7      2.053      5.226
REMARK  0 active torsions:
REMARK  status: ('A' for Active; 'I' for Inactive)
REMARK       I    between atoms: O2_1  and  C2_13 
REMARK       I    between atoms: C6_2  and  C5_7 
REMARK       I    between atoms: C6_4  and  C5_18 
REMARK       I    between atoms: C6_4  and  O6_5 
REMARK       I    between atoms: O3_6  and  C1_24 
REMARK       I    between atoms: O3_6  and  C3_11 
REMARK       I    between atoms: C2_8  and  N2_16 
REMARK       I    between atoms: O4_10  and  C4_25 
REMARK       I    between atoms: C3_12  and  O3_26 
REMARK       I    between atoms: C1_14  and  O1_23 
REMARK       I    between atoms: C7_15  and  C8_21 
REMARK       I    between atoms: C7_15  and  N2_16 
ROOT
ATOM      1  O2  GCD d 903      15.645 -13.672  31.789  0.00  0.00    -0.388 OA
ATOM      2  C6  GCD d 903      18.306 -18.941  31.552  0.00  0.00     0.203 C 
ATOM      3  O6B GCD d 903      19.470 -18.668  31.837  0.00  0.00    -0.646 OA
ATOM      4  C5  GCD d 903      17.458 -17.637  31.683  0.00  0.00     0.127 C 
ATOM      5  C4  GCD d 903      16.160 -17.604  31.387  0.00  0.00    -0.005 C 
ATOM      6  C3  GCD d 903      15.525 -16.257  31.594  0.00  0.00     0.068 C 
ATOM      7  C2  GCD d 903      16.386 -14.930  31.530  0.00  0.00     0.107 C 
ATOM      8  O6A GCD d 903      17.711 -20.052  31.076  0.00  0.00    -0.646 OA
ATOM      9  O5  GCD d 903      18.306 -16.489  32.176  0.00  0.00    -0.343 OA
ATOM     10  C1  GCD d 903      17.588 -15.205  32.492  0.00  0.00     0.159 C 
ATOM     11  O3  GCD d 903      14.427 -16.013  30.693  0.00  0.00    -0.393 OA
ATOM     12  H   GCD d 903      14.922 -13.586  31.148  0.00  0.00     0.210 HD
ATOM     13  H   GCD d 903      16.473 -17.250  31.528  0.00  0.00     0.100 H 
ATOM     14  H   GCD d 903      15.655 -18.314  32.007  0.00  0.00     0.041 H 
ATOM     15  H   GCD d 903      16.072 -17.835  30.346  0.00  0.00     0.041 H 
ATOM     16  H   GCD d 903      15.263 -16.400  32.622  0.00  0.00     0.087 H 
ATOM     17  H   GCD d 903      16.717 -14.729  30.533  0.00  0.00     0.094 H 
ATOM     18  H   GCD d 903      17.149 -15.144  33.467  0.00  0.00     0.133 H 
ATOM     19  H   GCD d 903      14.768 -15.898  29.792  0.00  0.00     0.210 HD
ATOM     20  C6  NAG d 904      23.521 -14.277  33.335  0.00  0.00     0.043 C 
ATOM     21  O6  NAG d 904      23.876 -14.078  31.905  0.00  0.00    -0.398 OA
ATOM     22  O3  NAG d 904      18.702 -14.308  32.174  0.00  0.00    -0.348 OA
ATOM     23  C2  NAG d 904      19.700 -12.187  32.853  0.00  0.00     0.087 C 
ATOM     24  O4  NAG d 904      21.102 -15.818  32.920  0.00  0.00    -0.390 OA
ATOM     25  C3  NAG d 904      19.683 -13.752  33.073  0.00  0.00     0.093 C 
ATOM     26  C1  NAG d 904      20.736 -11.577  33.774  0.00  0.00     0.151 C 
ATOM     27  C7  NAG d 904      17.728 -10.439  32.308  0.00  0.00     0.214 C 
ATOM     28  N2  NAG d 904      18.332 -11.515  33.131  0.00  0.00    -0.349 N 
ATOM     29  C5  NAG d 904      22.116 -13.733  33.666  0.00  0.00     0.089 C 
ATOM     30  O5  NAG d 904      22.090 -12.220  33.495  0.00  0.00    -0.349 OA
ATOM     31  C8  NAG d 904      18.525  -9.928  31.091  0.00  0.00    -0.003 C 
ATOM     32  O7  NAG d 904      16.609  -9.945  32.574  0.00  0.00    -0.274 OA
ATOM     33  O1  NAG d 904      20.738 -10.122  33.583  0.00  0.00    -0.369 OA
ATOM     34  C4  NAG d 904      21.085 -14.359  32.741  0.00  0.00     0.089 C 
ATOM     35  H   NAG d 904      23.545 -15.324  33.555  0.00  0.00     0.078 H 
ATOM     36  H   NAG d 904      24.230 -13.740  33.929  0.00  0.00     0.078 H 
ATOM     37  H   NAG d 904      23.245 -14.557  31.345  0.00  0.00     0.209 HD
ATOM     38  H   NAG d 904      19.932 -12.015  31.823  0.00  0.00     0.084 H 
ATOM     39  H   NAG d 904      20.445 -16.223  32.332  0.00  0.00     0.210 HD
ATOM     40  H   NAG d 904      19.446 -13.977  34.092  0.00  0.00     0.091 H 
ATOM     41  H   NAG d 904      20.507 -11.764  34.802  0.00  0.00     0.132 H 
ATOM     42  H   NAG d 904      17.823 -11.828  33.914  0.00  0.00     0.163 HD
ATOM     43  H   NAG d 904      21.883 -13.981  34.680  0.00  0.00     0.090 H 
ATOM     44  H   NAG d 904      19.450 -10.462  31.021  0.00  0.00     0.040 H 
ATOM     45  H   NAG d 904      18.725  -8.883  31.209  0.00  0.00     0.040 H 
ATOM     46  H   NAG d 904      17.954 -10.084  30.199  0.00  0.00     0.040 H 
ATOM     47  H   NAG d 904      20.943  -9.917  32.658  0.00  0.00     0.212 HD
ATOM     48  H   NAG d 904      21.309 -14.151  31.715  0.00  0.00     0.091 H 
ENDROOT
TORSDOF 11
ENDMDL
MODEL 26
REMARK VINA RESULT:      -6.6      2.149      6.005
REMARK  0 active torsions:
REMARK  status: ('A' for Active; 'I' for Inactive)
REMARK       I    between atoms: O2_1  and  C2_13 
REMARK       I    between atoms: C6_2  and  C5_7 
REMARK       I    between atoms: C6_4  and  C5_18 
REMARK       I    between atoms: C6_4  and  O6_5 
REMARK       I    between atoms: O3_6  and  C1_24 
REMARK       I    between atoms: O3_6  and  C3_11 
REMARK       I    between atoms: C2_8  and  N2_16 
REMARK       I    between atoms: O4_10  and  C4_25 
REMARK       I    between atoms: C3_12  and  O3_26 
REMARK       I    between atoms: C1_14  and  O1_23 
REMARK       I    between atoms: C7_15  and  C8_21 
REMARK       I    between atoms: C7_15  and  N2_16 
ROOT
ATOM      1  O2  GCD d 903      17.821 -11.173  32.001  0.00  0.00    -0.388 OA
ATOM      2  C6  GCD d 903      22.259 -15.036  32.521  0.00  0.00     0.203 C 
ATOM      3  O6B GCD d 903      21.687 -16.119  32.419  0.00  0.00    -0.646 OA
ATOM      4  C5  GCD d 903      21.203 -13.909  32.293  0.00  0.00     0.127 C 
ATOM      5  C4  GCD d 903      21.515 -12.618  32.392  0.00  0.00    -0.005 C 
ATOM      6  C3  GCD d 903      20.360 -11.694  32.121  0.00  0.00     0.068 C 
ATOM      7  C2  GCD d 903      18.865 -12.168  32.341  0.00  0.00     0.107 C 
ATOM      8  O6A GCD d 903      23.510 -14.686  32.879  0.00  0.00    -0.646 OA
ATOM      9  O5  GCD d 903      19.853 -14.494  31.956  0.00  0.00    -0.343 OA
ATOM     10  C1  GCD d 903      18.774 -13.522  31.564  0.00  0.00     0.159 C 
ATOM     11  O3  GCD d 903      20.452 -10.456  32.853  0.00  0.00    -0.393 OA
ATOM     12  H   GCD d 903      17.955 -10.371  32.529  0.00  0.00     0.210 HD
ATOM     13  H   GCD d 903      21.085 -12.846  32.307  0.00  0.00     0.100 H 
ATOM     14  H   GCD d 903      22.291 -12.403  31.689  0.00  0.00     0.041 H 
ATOM     15  H   GCD d 903      21.820 -12.448  33.404  0.00  0.00     0.041 H 
ATOM     16  H   GCD d 903      20.504 -11.623  31.063  0.00  0.00     0.087 H 
ATOM     17  H   GCD d 903      18.647 -12.295  33.381  0.00  0.00     0.094 H 
ATOM     18  H   GCD d 903      18.768 -13.222  30.536  0.00  0.00     0.133 H 
ATOM     19  H   GCD d 903      20.308 -10.627  33.797  0.00  0.00     0.210 HD
ATOM     20  C6  NAG d 904      16.342 -19.076  31.635  0.00  0.00     0.043 C 
ATOM     21  O6  NAG d 904      16.144 -19.167  33.107  0.00  0.00    -0.398 OA
ATOM     22  O3  NAG d 904      17.647 -14.313  32.063  0.00  0.00    -0.348 OA
ATOM     23  C2  NAG d 904      15.307 -14.818  31.586  0.00  0.00     0.087 C 
ATOM     24  O4  NAG d 904      18.461 -17.100  31.652  0.00  0.00    -0.390 OA
ATOM     25  C3  NAG d 904      16.810 -15.234  31.333  0.00  0.00     0.093 C 
ATOM     26  C1  NAG d 904      14.404 -15.782  30.844  0.00  0.00     0.151 C 
ATOM     27  C7  NAG d 904      14.144 -12.408  31.868  0.00  0.00     0.214 C 
ATOM     28  N2  NAG d 904      14.985 -13.376  31.122  0.00  0.00    -0.349 N 
ATOM     29  C5  NAG d 904      16.148 -17.639  31.111  0.00  0.00     0.089 C 
ATOM     30  O5  NAG d 904      14.702 -17.202  31.308  0.00  0.00    -0.349 OA
ATOM     31  C8  NAG d 904      13.522 -12.871  33.200  0.00  0.00    -0.003 C 
ATOM     32  O7  NAG d 904      13.931 -11.248  31.448  0.00  0.00    -0.274 OA
ATOM     33  O1  NAG d 904      13.008 -15.384  31.063  0.00  0.00    -0.369 OA
ATOM     34  C4  NAG d 904      17.066 -16.685  31.858  0.00  0.00     0.089 C 
ATOM     35  H   NAG d 904      17.334 -19.398  31.400  0.00  0.00     0.078 H 
ATOM     36  H   NAG d 904      15.610 -19.699  31.166  0.00  0.00     0.078 H 
ATOM     37  H   NAG d 904      16.798 -18.608  33.555  0.00  0.00     0.209 HD
ATOM     38  H   NAG d 904      15.143 -14.854  32.643  0.00  0.00     0.084 H 
ATOM     39  H   NAG d 904      19.051 -16.494  32.127  0.00  0.00     0.210 HD
ATOM     40  H   NAG d 904      17.028 -15.207  30.286  0.00  0.00     0.091 H 
ATOM     41  H   NAG d 904      14.582 -15.753  29.789  0.00  0.00     0.132 H 
ATOM     42  H   NAG d 904      15.368 -13.079  30.265  0.00  0.00     0.163 HD
ATOM     43  H   NAG d 904      16.387 -17.620  30.068  0.00  0.00     0.090 H 
ATOM     44  H   NAG d 904      13.810 -13.882  33.396  0.00  0.00     0.040 H 
ATOM     45  H   NAG d 904      12.455 -12.811  33.136  0.00  0.00     0.040 H 
ATOM     46  H   NAG d 904      13.867 -12.241  33.993  0.00  0.00     0.040 H 
ATOM     47  H   NAG d 904      12.814 -15.399  32.012  0.00  0.00     0.212 HD
ATOM     48  H   NAG d 904      16.869 -16.703  32.909  0.00  0.00     0.091 H 
ENDROOT
TORSDOF 11
ENDMDL
MODEL 27
REMARK VINA RESULT:      -6.6      2.216      5.415
REMARK  0 active torsions:
REMARK  status: ('A' for Active; 'I' for Inactive)
REMARK       I    between atoms: O2_1  and  C2_13 
REMARK       I    between atoms: C6_2  and  C5_7 
REMARK       I    between atoms: C6_4  and  C5_18 
REMARK       I    between atoms: C6_4  and  O6_5 
REMARK       I    between atoms: O3_6  and  C1_24 
REMARK       I    between atoms: O3_6  and  C3_11 
REMARK       I    between atoms: C2_8  and  N2_16 
REMARK       I    between atoms: O4_10  and  C4_25 
REMARK       I    between atoms: C3_12  and  O3_26 
REMARK       I    between atoms: C1_14  and  O1_23 
REMARK       I    between atoms: C7_15  and  C8_21 
REMARK       I    between atoms: C7_15  and  N2_16 
ROOT
ATOM      1  O2  GCD d 903      16.110 -14.037  31.567  0.00  0.00    -0.388 OA
ATOM      2  C6  GCD d 903      17.088 -19.860  31.414  0.00  0.00     0.203 C 
ATOM      3  O6B GCD d 903      18.251 -19.949  31.804  0.00  0.00    -0.646 OA
ATOM      4  C5  GCD d 903      16.660 -18.362  31.508  0.00  0.00     0.127 C 
ATOM      5  C4  GCD d 903      15.463 -17.943  31.105  0.00  0.00    -0.005 C 
ATOM      6  C3  GCD d 903      15.242 -16.467  31.294  0.00  0.00     0.068 C 
ATOM      7  C2  GCD d 903      16.462 -15.458  31.338  0.00  0.00     0.107 C 
ATOM      8  O6A GCD d 903      16.233 -20.742  30.861  0.00  0.00    -0.646 OA
ATOM      9  O5  GCD d 903      17.765 -17.521  32.101  0.00  0.00    -0.343 OA
ATOM     10  C1  GCD d 903      17.437 -16.081  32.390  0.00  0.00     0.159 C 
ATOM     11  O3  GCD d 903      14.351 -15.906  30.310  0.00  0.00    -0.393 OA
ATOM     12  H   GCD d 903      15.506 -13.738  30.870  0.00  0.00     0.210 HD
ATOM     13  H   GCD d 903      15.853 -17.698  31.282  0.00  0.00     0.100 H 
ATOM     14  H   GCD d 903      14.716 -18.469  31.662  0.00  0.00     0.041 H 
ATOM     15  H   GCD d 903      15.402 -18.136  30.055  0.00  0.00     0.041 H 
ATOM     16  H   GCD d 903      14.860 -16.526  32.292  0.00  0.00     0.087 H 
ATOM     17  H   GCD d 903      16.924 -15.366  30.377  0.00  0.00     0.094 H 
ATOM     18  H   GCD d 903      16.952 -15.892  33.325  0.00  0.00     0.133 H 
ATOM     19  H   GCD d 903      14.789 -15.897  29.445  0.00  0.00     0.210 HD
ATOM     20  C6  NAG d 904      23.278 -16.973  33.753  0.00  0.00     0.043 C 
ATOM     21  O6  NAG d 904      23.802 -16.889  32.364  0.00  0.00    -0.398 OA
ATOM     22  O3  NAG d 904      18.791 -15.559  32.191  0.00  0.00    -0.348 OA
ATOM     23  C2  NAG d 904      20.313 -13.834  33.007  0.00  0.00     0.087 C 
ATOM     24  O4  NAG d 904      20.556 -17.718  33.095  0.00  0.00    -0.390 OA
ATOM     25  C3  NAG d 904      19.811 -15.322  33.183  0.00  0.00     0.093 C 
ATOM     26  C1  NAG d 904      21.399 -13.563  34.027  0.00  0.00     0.151 C 
ATOM     27  C7  NAG d 904      19.008 -11.576  32.344  0.00  0.00     0.214 C 
ATOM     28  N2  NAG d 904      19.189 -12.784  33.186  0.00  0.00    -0.349 N 
ATOM     29  C5  NAG d 904      22.077 -16.033  33.979  0.00  0.00     0.089 C 
ATOM     30  O5  NAG d 904      22.518 -14.581  33.847  0.00  0.00    -0.349 OA
ATOM     31  C8  NAG d 904      20.026 -11.327  31.213  0.00  0.00    -0.003 C 
ATOM     32  O7  NAG d 904      18.069 -10.769  32.529  0.00  0.00    -0.274 OA
ATOM     33  O1  NAG d 904      21.852 -12.175  33.877  0.00  0.00    -0.369 OA
ATOM     34  C4  NAG d 904      20.991 -16.321  32.954  0.00  0.00     0.089 C 
ATOM     35  H   NAG d 904      22.970 -17.979  33.946  0.00  0.00     0.078 H 
ATOM     36  H   NAG d 904      24.060 -16.672  34.419  0.00  0.00     0.078 H 
ATOM     37  H   NAG d 904      23.109 -17.157  31.741  0.00  0.00     0.209 HD
ATOM     38  H   NAG d 904      20.676 -13.740  32.005  0.00  0.00     0.084 H 
ATOM     39  H   NAG d 904      19.864 -17.908  32.443  0.00  0.00     0.210 HD
ATOM     40  H   NAG d 904      19.429 -15.466  34.172  0.00  0.00     0.091 H 
ATOM     41  H   NAG d 904      21.034 -13.673  35.028  0.00  0.00     0.132 H 
ATOM     42  H   NAG d 904      18.543 -12.930  33.916  0.00  0.00     0.163 HD
ATOM     43  H   NAG d 904      21.691 -16.200  34.963  0.00  0.00     0.090 H 
ATOM     44  H   NAG d 904      20.751 -12.113  31.207  0.00  0.00     0.040 H 
ATOM     45  H   NAG d 904      20.517 -10.390  31.375  0.00  0.00     0.040 H 
ATOM     46  H   NAG d 904      19.515 -11.305  30.273  0.00  0.00     0.040 H 
ATOM     47  H   NAG d 904      22.189 -12.041  32.978  0.00  0.00     0.212 HD
ATOM     48  H   NAG d 904      21.357 -16.190  31.957  0.00  0.00     0.091 H 
ENDROOT
TORSDOF 11
ENDMDL
MODEL 28
REMARK VINA RESULT:      -6.5      2.169      6.675
REMARK  0 active torsions:
REMARK  status: ('A' for Active; 'I' for Inactive)
REMARK       I    between atoms: O2_1  and  C2_13 
REMARK       I    between atoms: C6_2  and  C5_7 
REMARK       I    between atoms: C6_4  and  C5_18 
REMARK       I    between atoms: C6_4  and  O6_5 
REMARK       I    between atoms: O3_6  and  C1_24 
REMARK       I    between atoms: O3_6  and  C3_11 
REMARK       I    between atoms: C2_8  and  N2_16 
REMARK       I    between atoms: O4_10  and  C4_25 
REMARK       I    between atoms: C3_12  and  O3_26 
REMARK       I    between atoms: C1_14  and  O1_23 
REMARK       I    between atoms: C7_15  and  C8_21 
REMARK       I    between atoms: C7_15  and  N2_16 
ROOT
ATOM      1  O2  GCD d 903      21.007 -13.607  34.083  0.00  0.00    -0.388 OA
ATOM      2  C6  GCD d 903      19.717  -7.852  33.755  0.00  0.00     0.203 C 
ATOM      3  O6B GCD d 903      18.568  -7.857  33.317  0.00  0.00    -0.646 OA
ATOM      4  C5  GCD d 903      20.150  -9.332  33.993  0.00  0.00     0.127 C 
ATOM      5  C4  GCD d 903      21.370  -9.652  34.420  0.00  0.00    -0.005 C 
ATOM      6  C3  GCD d 903      21.582 -11.130  34.600  0.00  0.00     0.068 C 
ATOM      7  C2  GCD d 903      20.726 -12.183  33.783  0.00  0.00     0.107 C 
ATOM      8  O6A GCD d 903      20.627  -6.875  33.939  0.00  0.00    -0.646 OA
ATOM      9  O5  GCD d 903      19.019 -10.282  33.683  0.00  0.00    -0.343 OA
ATOM     10  C1  GCD d 903      19.245 -11.733  34.011  0.00  0.00     0.159 C 
ATOM     11  O3  GCD d 903      22.947 -11.530  34.375  0.00  0.00    -0.393 OA
ATOM     12  H   GCD d 903      21.943 -13.794  33.913  0.00  0.00     0.210 HD
ATOM     13  H   GCD d 903      20.986  -9.931  34.288  0.00  0.00     0.100 H 
ATOM     14  H   GCD d 903      21.537  -9.170  35.360  0.00  0.00     0.041 H 
ATOM     15  H   GCD d 903      22.059  -9.327  33.667  0.00  0.00     0.041 H 
ATOM     16  H   GCD d 903      21.239 -11.181  35.613  0.00  0.00     0.087 H 
ATOM     17  H   GCD d 903      20.986 -12.173  32.745  0.00  0.00     0.094 H 
ATOM     18  H   GCD d 903      19.049 -12.018  35.024  0.00  0.00     0.133 H 
ATOM     19  H   GCD d 903      23.157 -11.448  33.432  0.00  0.00     0.210 HD
ATOM     20  C6  NAG d 904      13.799 -11.244  31.390  0.00  0.00     0.043 C 
ATOM     21  O6  NAG d 904      14.282 -11.175  29.985  0.00  0.00    -0.398 OA
ATOM     22  O3  NAG d 904      18.387 -12.279  32.957  0.00  0.00    -0.348 OA
ATOM     23  C2  NAG d 904      16.891 -14.150  32.488  0.00  0.00     0.087 C 
ATOM     24  O4  NAG d 904      16.225 -10.318  32.676  0.00  0.00    -0.390 OA
ATOM     25  C3  NAG d 904      17.003 -12.676  33.049  0.00  0.00     0.093 C 
ATOM     26  C1  NAG d 904      15.443 -14.587  32.558  0.00  0.00     0.151 C 
ATOM     27  C7  NAG d 904      18.557 -16.256  32.653  0.00  0.00     0.214 C 
ATOM     28  N2  NAG d 904      17.756 -15.169  33.269  0.00  0.00    -0.349 N 
ATOM     29  C5  NAG d 904      14.683 -12.158  32.263  0.00  0.00     0.089 C 
ATOM     30  O5  NAG d 904      14.585 -13.598  31.777  0.00  0.00    -0.349 OA
ATOM     31  C8  NAG d 904      18.515 -16.401  31.119  0.00  0.00    -0.003 C 
ATOM     32  O7  NAG d 904      19.251 -17.042  33.337  0.00  0.00    -0.274 OA
ATOM     33  O1  NAG d 904      15.340 -15.962  32.055  0.00  0.00    -0.369 OA
ATOM     34  C4  NAG d 904      16.132 -11.702  32.191  0.00  0.00     0.089 C 
ATOM     35  H   NAG d 904      13.805 -10.259  31.806  0.00  0.00     0.078 H 
ATOM     36  H   NAG d 904      12.811 -11.655  31.379  0.00  0.00     0.078 H 
ATOM     37  H   NAG d 904      15.178 -10.805  29.969  0.00  0.00     0.209 HD
ATOM     38  H   NAG d 904      17.253 -14.133  31.482  0.00  0.00     0.084 H 
ATOM     39  H   NAG d 904      17.148 -10.022  32.632  0.00  0.00     0.210 HD
ATOM     40  H   NAG d 904      16.658 -12.641  34.062  0.00  0.00     0.091 H 
ATOM     41  H   NAG d 904      15.080 -14.588  33.565  0.00  0.00     0.132 H 
ATOM     42  H   NAG d 904      17.777 -15.090  34.250  0.00  0.00     0.163 HD
ATOM     43  H   NAG d 904      14.341 -12.099  33.275  0.00  0.00     0.090 H 
ATOM     44  H   NAG d 904      17.876 -15.649  30.706  0.00  0.00     0.040 H 
ATOM     45  H   NAG d 904      18.138 -17.369  30.863  0.00  0.00     0.040 H 
ATOM     46  H   NAG d 904      19.503 -16.287  30.723  0.00  0.00     0.040 H 
ATOM     47  H   NAG d 904      15.662 -15.996  31.141  0.00  0.00     0.212 HD
ATOM     48  H   NAG d 904      16.494 -11.723  31.184  0.00  0.00     0.091 H 
ENDROOT
TORSDOF 11
ENDMDL
MODEL 29
REMARK VINA RESULT:      -6.5      1.980      6.173
REMARK  0 active torsions:
REMARK  status: ('A' for Active; 'I' for Inactive)
REMARK       I    between atoms: O2_1  and  C2_13 
REMARK       I    between atoms: C6_2  and  C5_7 
REMARK       I    between atoms: C6_4  and  C5_18 
REMARK       I    between atoms: C6_4  and  O6_5 
REMARK       I    between atoms: O3_6  and  C1_24 
REMARK       I    between atoms: O3_6  and  C3_11 
REMARK       I    between atoms: C2_8  and  N2_16 
REMARK       I    between atoms: O4_10  and  C4_25 
REMARK       I    between atoms: C3_12  and  O3_26 
REMARK       I    between atoms: C1_14  and  O1_23 
REMARK       I    between atoms: C7_15  and  C8_21 
REMARK       I    between atoms: C7_15  and  N2_16 
ROOT
ATOM      1  O2  GCD d 903      20.266 -12.066  33.159  0.00  0.00    -0.388 OA
ATOM      2  C6  GCD d 903      14.505 -11.945  31.859  0.00  0.00     0.203 C 
ATOM      3  O6B GCD d 903      14.199 -13.135  31.876  0.00  0.00    -0.646 OA
ATOM      4  C5  GCD d 903      15.998 -11.823  32.296  0.00  0.00     0.127 C 
ATOM      5  C4  GCD d 903      16.633 -10.653  32.326  0.00  0.00    -0.005 C 
ATOM      6  C3  GCD d 903      18.061 -10.750  32.789  0.00  0.00     0.068 C 
ATOM      7  C2  GCD d 903      18.882 -12.094  32.627  0.00  0.00     0.107 C 
ATOM      8  O6A GCD d 903      13.859 -10.835  31.452  0.00  0.00    -0.646 OA
ATOM      9  O5  GCD d 903      16.566 -13.173  32.662  0.00  0.00    -0.343 OA
ATOM     10  C1  GCD d 903      17.952 -13.188  33.245  0.00  0.00     0.159 C 
ATOM     11  O3  GCD d 903      18.907  -9.742  32.202  0.00  0.00    -0.393 OA
ATOM     12  H   GCD d 903      20.766 -11.361  32.720  0.00  0.00     0.210 HD
ATOM     13  H   GCD d 903      16.789 -11.113  32.416  0.00  0.00     0.100 H 
ATOM     14  H   GCD d 903      16.107 -10.000  32.990  0.00  0.00     0.041 H 
ATOM     15  H   GCD d 903      16.655 -10.284  31.321  0.00  0.00     0.041 H 
ATOM     16  H   GCD d 903      17.859 -10.641  33.834  0.00  0.00     0.087 H 
ATOM     17  H   GCD d 903      19.099 -12.295  31.599  0.00  0.00     0.094 H 
ATOM     18  H   GCD d 903      18.017 -13.008  34.299  0.00  0.00     0.133 H 
ATOM     19  H   GCD d 903      19.027  -9.930  31.258  0.00  0.00     0.210 HD
ATOM     20  C6  NAG d 904      16.096 -18.936  32.705  0.00  0.00     0.043 C 
ATOM     21  O6  NAG d 904      16.380 -19.080  31.253  0.00  0.00    -0.398 OA
ATOM     22  O3  NAG d 904      18.331 -14.511  32.742  0.00  0.00    -0.348 OA
ATOM     23  C2  NAG d 904      19.664 -16.470  33.331  0.00  0.00     0.087 C 
ATOM     24  O4  NAG d 904      15.836 -16.050  32.762  0.00  0.00    -0.390 OA
ATOM     25  C3  NAG d 904      18.244 -15.782  33.420  0.00  0.00     0.093 C 
ATOM     26  C1  NAG d 904      19.596 -17.816  34.020  0.00  0.00     0.151 C 
ATOM     27  C7  NAG d 904      22.152 -15.448  33.421  0.00  0.00     0.214 C 
ATOM     28  N2  NAG d 904      20.791 -15.632  33.983  0.00  0.00    -0.349 N 
ATOM     29  C5  NAG d 904      17.117 -18.018  33.408  0.00  0.00     0.089 C 
ATOM     30  O5  NAG d 904      18.501 -18.654  33.372  0.00  0.00    -0.349 OA
ATOM     31  C8  NAG d 904      22.485 -16.158  32.094  0.00  0.00    -0.003 C 
ATOM     32  O7  NAG d 904      23.018 -14.745  33.988  0.00  0.00    -0.274 OA
ATOM     33  O1  NAG d 904      20.920 -18.447  33.954  0.00  0.00    -0.369 OA
ATOM     34  C4  NAG d 904      17.168 -16.668  32.711  0.00  0.00     0.089 C 
ATOM     35  H   NAG d 904      15.118 -18.520  32.827  0.00  0.00     0.078 H 
ATOM     36  H   NAG d 904      16.163 -19.906  33.152  0.00  0.00     0.078 H 
ATOM     37  H   NAG d 904      16.325 -18.212  30.825  0.00  0.00     0.209 HD
ATOM     38  H   NAG d 904      19.903 -16.566  32.292  0.00  0.00     0.084 H 
ATOM     39  H   NAG d 904      15.862 -15.188  32.318  0.00  0.00     0.210 HD
ATOM     40  H   NAG d 904      17.961 -15.655  34.444  0.00  0.00     0.091 H 
ATOM     41  H   NAG d 904      19.342 -17.715  35.055  0.00  0.00     0.132 H 
ATOM     42  H   NAG d 904      20.589 -15.187  34.838  0.00  0.00     0.163 HD
ATOM     43  H   NAG d 904      16.813 -17.883  34.425  0.00  0.00     0.090 H 
ATOM     44  H   NAG d 904      21.631 -16.709  31.759  0.00  0.00     0.040 H 
ATOM     45  H   NAG d 904      23.305 -16.829  32.244  0.00  0.00     0.040 H 
ATOM     46  H   NAG d 904      22.751 -15.430  31.356  0.00  0.00     0.040 H 
ATOM     47  H   NAG d 904      21.182 -18.553  33.027  0.00  0.00     0.212 HD
ATOM     48  H   NAG d 904      17.443 -16.774  31.682  0.00  0.00     0.091 H 
ENDROOT
TORSDOF 11
ENDMDL
MODEL 30
REMARK VINA RESULT:      -6.5      2.380      5.696
REMARK  0 active torsions:
REMARK  status: ('A' for Active; 'I' for Inactive)
REMARK       I    between atoms: O2_1  and  C2_13 
REMARK       I    between atoms: C6_2  and  C5_7 
REMARK       I    between atoms: C6_4  and  C5_18 
REMARK       I    between atoms: C6_4  and  O6_5 
REMARK       I    between atoms: O3_6  and  C1_24 
REMARK       I    between atoms: O3_6  and  C3_11 
REMARK       I    between atoms: C2_8  and  N2_16 
REMARK       I    between atoms: O4_10  and  C4_25 
REMARK       I    between atoms: C3_12  and  O3_26 
REMARK       I    between atoms: C1_14  and  O1_23 
REMARK       I    between atoms: C7_15  and  C8_21 
REMARK       I    between atoms: C7_15  and  N2_16 
ROOT
ATOM      1  O2  GCD d 903      16.897 -12.125  32.259  0.00  0.00    -0.388 OA
ATOM      2  C6  GCD d 903      15.960 -17.875  31.283  0.00  0.00     0.203 C 
ATOM      3  O6B GCD d 903      17.091 -18.351  31.369  0.00  0.00    -0.646 OA
ATOM      4  C5  GCD d 903      16.049 -16.356  31.629  0.00  0.00     0.127 C 
ATOM      5  C4  GCD d 903      14.986 -15.555  31.572  0.00  0.00    -0.005 C 
ATOM      6  C3  GCD d 903      15.279 -14.131  31.957  0.00  0.00     0.068 C 
ATOM      7  C2  GCD d 903      16.736 -13.528  31.808  0.00  0.00     0.107 C 
ATOM      8  O6A GCD d 903      14.781 -18.375  30.865  0.00  0.00    -0.646 OA
ATOM      9  O5  GCD d 903      17.455 -15.972  32.021  0.00  0.00    -0.343 OA
ATOM     10  C1  GCD d 903      17.657 -14.569  32.525  0.00  0.00     0.159 C 
ATOM     11  O3  GCD d 903      14.430 -13.184  31.280  0.00  0.00    -0.393 OA
ATOM     12  H   GCD d 903      16.290 -11.555  31.762  0.00  0.00     0.210 HD
ATOM     13  H   GCD d 903      15.460 -15.464  31.673  0.00  0.00     0.100 H 
ATOM     14  H   GCD d 903      14.239 -15.937  32.235  0.00  0.00     0.041 H 
ATOM     15  H   GCD d 903      14.660 -15.542  30.553  0.00  0.00     0.041 H 
ATOM     16  H   GCD d 903      15.105 -14.249  33.007  0.00  0.00     0.087 H 
ATOM     17  H   GCD d 903      17.002 -13.408  30.779  0.00  0.00     0.094 H 
ATOM     18  H   GCD d 903      17.452 -14.413  33.564  0.00  0.00     0.133 H 
ATOM     19  H   GCD d 903      14.667 -13.152  30.340  0.00  0.00     0.210 HD
ATOM     20  C6  NAG d 904      23.077 -17.281  32.341  0.00  0.00     0.043 C 
ATOM     21  O6  NAG d 904      23.313 -17.113  30.882  0.00  0.00    -0.398 OA
ATOM     22  O3  NAG d 904      19.038 -14.421  32.059  0.00  0.00    -0.348 OA
ATOM     23  C2  NAG d 904      21.152 -13.357  32.656  0.00  0.00     0.087 C 
ATOM     24  O4  NAG d 904      20.185 -17.110  32.287  0.00  0.00    -0.390 OA
ATOM     25  C3  NAG d 904      20.257 -14.652  32.796  0.00  0.00     0.093 C 
ATOM     26  C1  NAG d 904      22.448 -13.579  33.406  0.00  0.00     0.151 C 
ATOM     27  C7  NAG d 904      20.512 -10.745  32.561  0.00  0.00     0.214 C 
ATOM     28  N2  NAG d 904      20.471 -12.080  33.207  0.00  0.00    -0.349 N 
ATOM     29  C5  NAG d 904      22.299 -16.094  32.944  0.00  0.00     0.089 C 
ATOM     30  O5  NAG d 904      23.135 -14.824  32.858  0.00  0.00    -0.349 OA
ATOM     31  C8  NAG d 904      21.309 -10.604  31.249  0.00  0.00    -0.003 C 
ATOM     32  O7  NAG d 904      19.927  -9.751  33.048  0.00  0.00    -0.274 OA
ATOM     33  O1  NAG d 904      23.272 -12.369  33.293  0.00  0.00    -0.369 OA
ATOM     34  C4  NAG d 904      20.996 -15.888  32.188  0.00  0.00     0.089 C 
ATOM     35  H   NAG d 904      22.515 -18.178  32.500  0.00  0.00     0.078 H 
ATOM     36  H   NAG d 904      24.030 -17.330  32.825  0.00  0.00     0.078 H 
ATOM     37  H   NAG d 904      22.461 -17.066  30.421  0.00  0.00     0.209 HD
ATOM     38  H   NAG d 904      21.319 -13.200  31.611  0.00  0.00     0.084 H 
ATOM     39  H   NAG d 904      19.352 -16.984  31.805  0.00  0.00     0.210 HD
ATOM     40  H   NAG d 904      20.054 -14.849  33.828  0.00  0.00     0.091 H 
ATOM     41  H   NAG d 904      22.275 -13.750  34.448  0.00  0.00     0.132 H 
ATOM     42  H   NAG d 904      19.971 -12.161  34.052  0.00  0.00     0.163 HD
ATOM     43  H   NAG d 904      22.085 -16.311  33.970  0.00  0.00     0.090 H 
ATOM     44  H   NAG d 904      21.737 -11.549  30.988  0.00  0.00     0.040 H 
ATOM     45  H   NAG d 904      22.090  -9.884  31.382  0.00  0.00     0.040 H 
ATOM     46  H   NAG d 904      20.655 -10.279  30.467  0.00  0.00     0.040 H 
ATOM     47  H   NAG d 904      23.448 -12.185  32.358  0.00  0.00     0.212 HD
ATOM     48  H   NAG d 904      21.178 -15.697  31.151  0.00  0.00     0.091 H 
ENDROOT
TORSDOF 11
ENDMDL
MODEL 31
REMARK VINA RESULT:      -6.5      2.324      6.627
REMARK  0 active torsions:
REMARK  status: ('A' for Active; 'I' for Inactive)
REMARK       I    between atoms: O2_1  and  C2_13 
REMARK       I    between atoms: C6_2  and  C5_7 
REMARK       I    between atoms: C6_4  and  C5_18 
REMARK       I    between atoms: C6_4  and  O6_5 
REMARK       I    between atoms: O3_6  and  C1_24 
REMARK       I    between atoms: O3_6  and  C3_11 
REMARK       I    between atoms: C2_8  and  N2_16 
REMARK       I    between atoms: O4_10  and  C4_25 
REMARK       I    between atoms: C3_12  and  O3_26 
REMARK       I    between atoms: C1_14  and  O1_23 
REMARK       I    between atoms: C7_15  and  C8_21 
REMARK       I    between atoms: C7_15  and  N2_16 
ROOT
ATOM      1  O2  GCD d 903      21.687 -14.208  31.949  0.00  0.00    -0.388 OA
ATOM      2  C6  GCD d 903      16.075 -12.453  32.514  0.00  0.00     0.203 C 
ATOM      3  O6B GCD d 903      15.465 -13.518  32.585  0.00  0.00    -0.646 OA
ATOM      4  C5  GCD d 903      17.602 -12.773  32.468  0.00  0.00     0.127 C 
ATOM      5  C4  GCD d 903      18.520 -11.818  32.338  0.00  0.00    -0.005 C 
ATOM      6  C3  GCD d 903      19.933 -12.333  32.329  0.00  0.00     0.068 C 
ATOM      7  C2  GCD d 903      20.259 -13.815  31.875  0.00  0.00     0.107 C 
ATOM      8  O6A GCD d 903      15.679 -11.174  32.366  0.00  0.00    -0.646 OA
ATOM      9  O5  GCD d 903      17.846 -14.257  32.593  0.00  0.00    -0.343 OA
ATOM     10  C1  GCD d 903      19.280 -14.699  32.714  0.00  0.00     0.159 C 
ATOM     11  O3  GCD d 903      20.821 -11.516  31.543  0.00  0.00    -0.393 OA
ATOM     12  H   GCD d 903      22.216 -13.608  31.400  0.00  0.00     0.210 HD
ATOM     13  H   GCD d 903      18.559 -12.310  32.359  0.00  0.00     0.100 H 
ATOM     14  H   GCD d 903      18.415 -11.135  33.154  0.00  0.00     0.041 H 
ATOM     15  H   GCD d 903      18.353 -11.351  31.390  0.00  0.00     0.041 H 
ATOM     16  H   GCD d 903      20.083 -12.301  33.389  0.00  0.00     0.087 H 
ATOM     17  H   GCD d 903      20.103 -13.941  30.824  0.00  0.00     0.094 H 
ATOM     18  H   GCD d 903      19.695 -14.667  33.700  0.00  0.00     0.133 H 
ATOM     19  H   GCD d 903      20.604 -11.615  30.602  0.00  0.00     0.210 HD
ATOM     20  C6  NAG d 904      15.806 -19.668  32.584  0.00  0.00     0.043 C 
ATOM     21  O6  NAG d 904      15.604 -19.706  31.111  0.00  0.00    -0.398 OA
ATOM     22  O3  NAG d 904      19.107 -16.005  32.073  0.00  0.00    -0.348 OA
ATOM     23  C2  NAG d 904      19.946 -18.296  32.150  0.00  0.00     0.087 C 
ATOM     24  O4  NAG d 904      16.397 -16.840  32.817  0.00  0.00    -0.390 OA
ATOM     25  C3  NAG d 904      18.866 -17.281  32.701  0.00  0.00     0.093 C 
ATOM     26  C1  NAG d 904      19.705 -19.651  32.781  0.00  0.00     0.151 C 
ATOM     27  C7  NAG d 904      22.535 -17.968  31.495  0.00  0.00     0.214 C 
ATOM     28  N2  NAG d 904      21.402 -17.861  32.447  0.00  0.00    -0.349 N 
ATOM     29  C5  NAG d 904      17.203 -19.134  32.964  0.00  0.00     0.089 C 
ATOM     30  O5  NAG d 904      18.279 -20.095  32.478  0.00  0.00    -0.349 OA
ATOM     31  C8  NAG d 904      22.255 -18.577  30.107  0.00  0.00    -0.003 C 
ATOM     32  O7  NAG d 904      23.690 -17.585  31.788  0.00  0.00    -0.274 OA
ATOM     33  O1  NAG d 904      20.719 -20.589  32.284  0.00  0.00    -0.369 OA
ATOM     34  C4  NAG d 904      17.428 -17.770  32.333  0.00  0.00     0.089 C 
ATOM     35  H   NAG d 904      15.064 -19.031  33.018  0.00  0.00     0.078 H 
ATOM     36  H   NAG d 904      15.724 -20.668  32.955  0.00  0.00     0.078 H 
ATOM     37  H   NAG d 904      15.674 -18.809  30.752  0.00  0.00     0.209 HD
ATOM     38  H   NAG d 904      19.836 -18.327  31.086  0.00  0.00     0.084 H 
ATOM     39  H   NAG d 904      16.536 -15.967  32.417  0.00  0.00     0.210 HD
ATOM     40  H   NAG d 904      18.940 -17.209  33.766  0.00  0.00     0.091 H 
ATOM     41  H   NAG d 904      19.801 -19.612  33.846  0.00  0.00     0.132 H 
ATOM     42  H   NAG d 904      21.591 -17.483  33.337  0.00  0.00     0.163 HD
ATOM     43  H   NAG d 904      17.257 -19.047  34.030  0.00  0.00     0.090 H 
ATOM     44  H   NAG d 904      21.222 -18.845  30.037  0.00  0.00     0.040 H 
ATOM     45  H   NAG d 904      22.859 -19.450  29.972  0.00  0.00     0.040 H 
ATOM     46  H   NAG d 904      22.490 -17.859  29.349  0.00  0.00     0.040 H 
ATOM     47  H   NAG d 904      20.659 -20.648  31.318  0.00  0.00     0.212 HD
ATOM     48  H   NAG d 904      17.350 -17.820  31.267  0.00  0.00     0.091 H 
ENDROOT
TORSDOF 11
ENDMDL
MODEL 32
REMARK VINA RESULT:      -6.5      2.471      5.980
REMARK  0 active torsions:
REMARK  status: ('A' for Active; 'I' for Inactive)
REMARK       I    between atoms: O2_1  and  C2_13 
REMARK       I    between atoms: C6_2  and  C5_7 
REMARK       I    between atoms: C6_4  and  C5_18 
REMARK       I    between atoms: C6_4  and  O6_5 
REMARK       I    between atoms: O3_6  and  C1_24 
REMARK       I    between atoms: O3_6  and  C3_11 
REMARK       I    between atoms: C2_8  and  N2_16 
REMARK       I    between atoms: O4_10  and  C4_25 
REMARK       I    between atoms: C3_12  and  O3_26 
REMARK       I    between atoms: C1_14  and  O1_23 
REMARK       I    between atoms: C7_15  and  C8_21 
REMARK       I    between atoms: C7_15  and  N2_16 
ROOT
ATOM      1  O2  GCD d 903      15.750  -9.874  32.251  0.00  0.00    -0.388 OA
ATOM      2  C6  GCD d 903      15.612 -15.759  31.767  0.00  0.00     0.203 C 
ATOM      3  O6B GCD d 903      16.717 -16.091  32.192  0.00  0.00    -0.646 OA
ATOM      4  C5  GCD d 903      15.472 -14.215  31.939  0.00  0.00     0.127 C 
ATOM      5  C4  GCD d 903      14.397 -13.551  31.520  0.00  0.00    -0.005 C 
ATOM      6  C3  GCD d 903      14.451 -12.073  31.793  0.00  0.00     0.068 C 
ATOM      7  C2  GCD d 903      15.837 -11.322  31.946  0.00  0.00     0.107 C 
ATOM      8  O6A GCD d 903      14.633 -16.429  31.128  0.00  0.00    -0.646 OA
ATOM      9  O5  GCD d 903      16.686 -13.635  32.624  0.00  0.00    -0.343 OA
ATOM     10  C1  GCD d 903      16.625 -12.177  32.991  0.00  0.00     0.159 C 
ATOM     11  O3  GCD d 903      13.732 -11.298  30.815  0.00  0.00    -0.393 OA
ATOM     12  H   GCD d 903      15.248  -9.426  31.552  0.00  0.00     0.210 HD
ATOM     13  H   GCD d 903      14.818 -13.396  31.726  0.00  0.00     0.100 H 
ATOM     14  H   GCD d 903      13.538 -13.954  32.014  0.00  0.00     0.041 H 
ATOM     15  H   GCD d 903      14.351 -13.671  30.458  0.00  0.00     0.041 H 
ATOM     16  H   GCD d 903      14.018 -12.112  32.771  0.00  0.00     0.087 H 
ATOM     17  H   GCD d 903      16.354 -11.268  31.010  0.00  0.00     0.094 H 
ATOM     18  H   GCD d 903      16.140 -11.950  33.918  0.00  0.00     0.133 H 
ATOM     19  H   GCD d 903      14.204 -11.326  29.968  0.00  0.00     0.210 HD
ATOM     20  C6  NAG d 904      22.118 -14.249  34.509  0.00  0.00     0.043 C 
ATOM     21  O6  NAG d 904      22.714 -14.191  33.147  0.00  0.00    -0.398 OA
ATOM     22  O3  NAG d 904      18.061 -11.915  32.875  0.00  0.00    -0.348 OA
ATOM     23  C2  NAG d 904      19.841 -10.562  33.854  0.00  0.00     0.087 C 
ATOM     24  O4  NAG d 904      19.339 -14.420  33.706  0.00  0.00    -0.390 OA
ATOM     25  C3  NAG d 904      19.058 -11.933  33.918  0.00  0.00     0.093 C 
ATOM     26  C1  NAG d 904      20.908 -10.562  34.929  0.00  0.00     0.151 C 
ATOM     27  C7  NAG d 904      19.023  -8.062  33.288  0.00  0.00     0.214 C 
ATOM     28  N2  NAG d 904      18.929  -9.327  34.058  0.00  0.00    -0.349 N 
ATOM     29  C5  NAG d 904      21.107 -13.109  34.749  0.00  0.00     0.089 C 
ATOM     30  O5  NAG d 904      21.821 -11.764  34.725  0.00  0.00    -0.349 OA
ATOM     31  C8  NAG d 904      20.122  -7.952  32.213  0.00  0.00    -0.003 C 
ATOM     32  O7  NAG d 904      18.245  -7.101  33.488  0.00  0.00    -0.274 OA
ATOM     33  O1  NAG d 904      21.623  -9.280  34.883  0.00  0.00    -0.369 OA
ATOM     34  C4  NAG d 904      20.037 -13.127  33.669  0.00  0.00     0.089 C 
ATOM     35  H   NAG d 904      21.615 -15.186  34.627  0.00  0.00     0.078 H 
ATOM     36  H   NAG d 904      22.910 -14.141  35.220  0.00  0.00     0.078 H 
ATOM     37  H   NAG d 904      22.013 -14.286  32.484  0.00  0.00     0.209 HD
ATOM     38  H   NAG d 904      20.264 -10.484  32.874  0.00  0.00     0.084 H 
ATOM     39  H   NAG d 904      18.655 -14.437  33.018  0.00  0.00     0.210 HD
ATOM     40  H   NAG d 904      18.609 -12.056  34.881  0.00  0.00     0.091 H 
ATOM     41  H   NAG d 904      20.482 -10.654  35.906  0.00  0.00     0.132 H 
ATOM     42  H   NAG d 904      18.234  -9.386  34.753  0.00  0.00     0.163 HD
ATOM     43  H   NAG d 904      20.650 -13.253  35.706  0.00  0.00     0.090 H 
ATOM     44  H   NAG d 904      20.684  -8.861  32.183  0.00  0.00     0.040 H 
ATOM     45  H   NAG d 904      20.773  -7.137  32.451  0.00  0.00     0.040 H 
ATOM     46  H   NAG d 904      19.670  -7.780  31.258  0.00  0.00     0.040 H 
ATOM     47  H   NAG d 904      22.023  -9.164  34.007  0.00  0.00     0.212 HD
ATOM     48  H   NAG d 904      20.469 -13.014  32.696  0.00  0.00     0.091 H 
ENDROOT
TORSDOF 11
ENDMDL
MODEL 33
REMARK VINA RESULT:      -6.5      2.322      5.282
REMARK  0 active torsions:
REMARK  status: ('A' for Active; 'I' for Inactive)
REMARK       I    between atoms: O2_1  and  C2_13 
REMARK       I    between atoms: C6_2  and  C5_7 
REMARK       I    between atoms: C6_4  and  C5_18 
REMARK       I    between atoms: C6_4  and  O6_5 
REMARK       I    between atoms: O3_6  and  C1_24 
REMARK       I    between atoms: O3_6  and  C3_11 
REMARK       I    between atoms: C2_8  and  N2_16 
REMARK       I    between atoms: O4_10  and  C4_25 
REMARK       I    between atoms: C3_12  and  O3_26 
REMARK       I    between atoms: C1_14  and  O1_23 
REMARK       I    between atoms: C7_15  and  C8_21 
REMARK       I    between atoms: C7_15  and  N2_16 
ROOT
ATOM      1  O2  GCD d 903      17.868 -15.995  32.620  0.00  0.00    -0.388 OA
ATOM      2  C6  GCD d 903      13.629 -12.054  31.445  0.00  0.00     0.203 C 
ATOM      3  O6B GCD d 903      14.126 -10.999  31.833  0.00  0.00    -0.646 OA
ATOM      4  C5  GCD d 903      14.699 -13.178  31.601  0.00  0.00     0.127 C 
ATOM      5  C4  GCD d 903      14.436 -14.451  31.308  0.00  0.00    -0.005 C 
ATOM      6  C3  GCD d 903      15.605 -15.374  31.513  0.00  0.00     0.068 C 
ATOM      7  C2  GCD d 903      16.756 -15.019  32.541  0.00  0.00     0.107 C 
ATOM      8  O6A GCD d 903      12.387 -12.395  31.049  0.00  0.00    -0.646 OA
ATOM      9  O5  GCD d 903      16.006 -12.615  32.105  0.00  0.00    -0.343 OA
ATOM     10  C1  GCD d 903      17.174 -13.561  32.161  0.00  0.00     0.159 C 
ATOM     11  O3  GCD d 903      15.204 -16.710  31.875  0.00  0.00    -0.393 OA
ATOM     12  H   GCD d 903      17.517 -16.867  32.861  0.00  0.00     0.210 HD
ATOM     13  H   GCD d 903      14.838 -14.234  31.494  0.00  0.00     0.100 H 
ATOM     14  H   GCD d 903      14.138 -14.506  30.282  0.00  0.00     0.041 H 
ATOM     15  H   GCD d 903      13.664 -14.771  31.976  0.00  0.00     0.041 H 
ATOM     16  H   GCD d 903      16.025 -15.260  30.535  0.00  0.00     0.087 H 
ATOM     17  H   GCD d 903      16.406 -15.079  33.551  0.00  0.00     0.094 H 
ATOM     18  H   GCD d 903      17.717 -13.686  31.246  0.00  0.00     0.133 H 
ATOM     19  H   GCD d 903      14.838 -16.706  32.773  0.00  0.00     0.210 HD
ATOM     20  C6  NAG d 904      18.990  -8.226  34.400  0.00  0.00     0.043 C 
ATOM     21  O6  NAG d 904      18.404  -8.393  35.756  0.00  0.00    -0.398 OA
ATOM     22  O3  NAG d 904      17.853 -12.922  33.291  0.00  0.00    -0.348 OA
ATOM     23  C2  NAG d 904      20.084 -12.464  34.168  0.00  0.00     0.087 C 
ATOM     24  O4  NAG d 904      17.246 -10.069  32.999  0.00  0.00    -0.390 OA
ATOM     25  C3  NAG d 904      18.905 -11.936  33.257  0.00  0.00     0.093 C 
ATOM     26  C1  NAG d 904      21.197 -11.437  34.165  0.00  0.00     0.151 C 
ATOM     27  C7  NAG d 904      21.041 -14.942  34.592  0.00  0.00     0.214 C 
ATOM     28  N2  NAG d 904      20.659 -13.822  33.697  0.00  0.00    -0.349 N 
ATOM     29  C5  NAG d 904      19.485  -9.564  33.813  0.00  0.00     0.089 C 
ATOM     30  O5  NAG d 904      20.644 -10.100  34.643  0.00  0.00    -0.349 OA
ATOM     31  C8  NAG d 904      20.874 -14.740  36.111  0.00  0.00    -0.003 C 
ATOM     32  O7  NAG d 904      21.487 -16.026  34.151  0.00  0.00    -0.274 OA
ATOM     33  O1  NAG d 904      22.301 -11.936  34.995  0.00  0.00    -0.369 OA
ATOM     34  C4  NAG d 904      18.356 -10.582  33.814  0.00  0.00     0.089 C 
ATOM     35  H   NAG d 904      18.245  -7.820  33.749  0.00  0.00     0.078 H 
ATOM     36  H   NAG d 904      19.832  -7.572  34.482  0.00  0.00     0.078 H 
ATOM     37  H   NAG d 904      17.637  -8.984  35.707  0.00  0.00     0.209 HD
ATOM     38  H   NAG d 904      19.683 -12.613  35.148  0.00  0.00     0.084 H 
ATOM     39  H   NAG d 904      16.522 -10.714  32.996  0.00  0.00     0.210 HD
ATOM     40  H   NAG d 904      19.255 -11.777  32.258  0.00  0.00     0.091 H 
ATOM     41  H   NAG d 904      21.585 -11.280  33.180  0.00  0.00     0.132 H 
ATOM     42  H   NAG d 904      20.781 -13.953  32.729  0.00  0.00     0.163 HD
ATOM     43  H   NAG d 904      19.814  -9.397  32.809  0.00  0.00     0.090 H 
ATOM     44  H   NAG d 904      20.483 -13.762  36.300  0.00  0.00     0.040 H 
ATOM     45  H   NAG d 904      21.825 -14.843  36.591  0.00  0.00     0.040 H 
ATOM     46  H   NAG d 904      20.199 -15.475  36.497  0.00  0.00     0.040 H 
ATOM     47  H   NAG d 904      21.982 -12.089  35.897  0.00  0.00     0.212 HD
ATOM     48  H   NAG d 904      17.987 -10.749  34.805  0.00  0.00     0.091 H 
ENDROOT
TORSDOF 11
ENDMDL
MODEL 34
REMARK VINA RESULT:      -6.5      2.229      7.908
REMARK  0 active torsions:
REMARK  status: ('A' for Active; 'I' for Inactive)
REMARK       I    between atoms: O2_1  and  C2_13 
REMARK       I    between atoms: C6_2  and  C5_7 
REMARK       I    between atoms: C6_4  and  C5_18 
REMARK       I    between atoms: C6_4  and  O6_5 
REMARK       I    between atoms: O3_6  and  C1_24 
REMARK       I    between atoms: O3_6  and  C3_11 
REMARK       I    between atoms: C2_8  and  N2_16 
REMARK       I    between atoms: O4_10  and  C4_25 
REMARK       I    between atoms: C3_12  and  O3_26 
REMARK       I    between atoms: C1_14  and  O1_23 
REMARK       I    between atoms: C7_15  and  C8_21 
REMARK       I    between atoms: C7_15  and  N2_16 
ROOT
ATOM      1  O2  GCD d 903      16.041 -13.687  32.043  0.00  0.00    -0.388 OA
ATOM      2  C6  GCD d 903      20.597 -10.298  33.670  0.00  0.00     0.203 C 
ATOM      3  O6B GCD d 903      21.528 -11.098  33.709  0.00  0.00    -0.646 OA
ATOM      4  C5  GCD d 903      19.335 -11.050  33.144  0.00  0.00     0.127 C 
ATOM      5  C4  GCD d 903      18.149 -10.454  33.040  0.00  0.00    -0.005 C 
ATOM      6  C3  GCD d 903      17.067 -11.347  32.498  0.00  0.00     0.068 C 
ATOM      7  C2  GCD d 903      17.153 -12.921  32.654  0.00  0.00     0.107 C 
ATOM      8  O6A GCD d 903      20.463  -9.020  34.078  0.00  0.00    -0.646 OA
ATOM      9  O5  GCD d 903      19.667 -12.479  32.789  0.00  0.00    -0.343 OA
ATOM     10  C1  GCD d 903      18.580 -13.281  32.127  0.00  0.00     0.159 C 
ATOM     11  O3  GCD d 903      15.760 -11.010  33.002  0.00  0.00    -0.393 OA
ATOM     12  H   GCD d 903      15.199 -13.398  32.429  0.00  0.00     0.210 HD
ATOM     13  H   GCD d 903      18.290 -10.919  32.956  0.00  0.00     0.100 H 
ATOM     14  H   GCD d 903      18.250  -9.612  32.387  0.00  0.00     0.041 H 
ATOM     15  H   GCD d 903      17.854 -10.171  34.029  0.00  0.00     0.041 H 
ATOM     16  H   GCD d 903      17.238 -11.135  31.463  0.00  0.00     0.087 H 
ATOM     17  H   GCD d 903      17.022 -13.217  33.674  0.00  0.00     0.094 H 
ATOM     18  H   GCD d 903      18.494 -13.163  31.067  0.00  0.00     0.133 H 
ATOM     19  H   GCD d 903      15.707 -11.240  33.943  0.00  0.00     0.210 HD
ATOM     20  C6  NAG d 904      23.349 -16.934  32.958  0.00  0.00     0.043 C 
ATOM     21  O6  NAG d 904      23.103 -17.225  34.396  0.00  0.00    -0.398 OA
ATOM     22  O3  NAG d 904      18.994 -14.586  32.650  0.00  0.00    -0.348 OA
ATOM     23  C2  NAG d 904      19.062 -16.951  32.048  0.00  0.00     0.087 C 
ATOM     24  O4  NAG d 904      21.916 -14.419  32.824  0.00  0.00    -0.390 OA
ATOM     25  C3  NAG d 904      19.836 -15.573  32.019  0.00  0.00     0.093 C 
ATOM     26  C1  NAG d 904      19.932 -18.011  31.407  0.00  0.00     0.151 C 
ATOM     27  C7  NAG d 904      16.449 -17.538  31.781  0.00  0.00     0.214 C 
ATOM     28  N2  NAG d 904      17.704 -16.905  31.304  0.00  0.00    -0.349 N 
ATOM     29  C5  NAG d 904      22.035 -16.762  32.169  0.00  0.00     0.089 C 
ATOM     30  O5  NAG d 904      21.265 -18.075  32.144  0.00  0.00    -0.349 OA
ATOM     31  C8  NAG d 904      16.495 -18.319  33.109  0.00  0.00    -0.003 C 
ATOM     32  O7  NAG d 904      15.376 -17.453  31.142  0.00  0.00    -0.274 OA
ATOM     33  O1  NAG d 904      19.206 -19.287  31.416  0.00  0.00    -0.369 OA
ATOM     34  C4  NAG d 904      21.175 -15.689  32.817  0.00  0.00     0.089 C 
ATOM     35  H   NAG d 904      23.918 -16.032  32.880  0.00  0.00     0.078 H 
ATOM     36  H   NAG d 904      23.877 -17.765  32.540  0.00  0.00     0.078 H 
ATOM     37  H   NAG d 904      22.624 -16.484  34.798  0.00  0.00     0.209 HD
ATOM     38  H   NAG d 904      18.853 -17.174  33.074  0.00  0.00     0.084 H 
ATOM     39  H   NAG d 904      21.372 -13.730  33.238  0.00  0.00     0.210 HD
ATOM     40  H   NAG d 904      20.063 -15.300  31.010  0.00  0.00     0.091 H 
ATOM     41  H   NAG d 904      20.151 -17.776  30.386  0.00  0.00     0.132 H 
ATOM     42  H   NAG d 904      17.671 -16.419  30.449  0.00  0.00     0.163 HD
ATOM     43  H   NAG d 904      22.274 -16.470  31.167  0.00  0.00     0.090 H 
ATOM     44  H   NAG d 904      17.487 -18.284  33.510  0.00  0.00     0.040 H 
ATOM     45  H   NAG d 904      16.219 -19.338  32.933  0.00  0.00     0.040 H 
ATOM     46  H   NAG d 904      15.812 -17.879  33.806  0.00  0.00     0.040 H 
ATOM     47  H   NAG d 904      18.992 -19.530  32.330  0.00  0.00     0.212 HD
ATOM     48  H   NAG d 904      20.944 -15.940  33.831  0.00  0.00     0.091 H 
ENDROOT
TORSDOF 11
ENDMDL
MODEL 35
REMARK VINA RESULT:      -6.5      2.564      3.710
REMARK  0 active torsions:
REMARK  status: ('A' for Active; 'I' for Inactive)
REMARK       I    between atoms: O2_1  and  C2_13 
REMARK       I    between atoms: C6_2  and  C5_7 
REMARK       I    between atoms: C6_4  and  C5_18 
REMARK       I    between atoms: C6_4  and  O6_5 
REMARK       I    between atoms: O3_6  and  C1_24 
REMARK       I    between atoms: O3_6  and  C3_11 
REMARK       I    between atoms: C2_8  and  N2_16 
REMARK       I    between atoms: O4_10  and  C4_25 
REMARK       I    between atoms: C3_12  and  O3_26 
REMARK       I    between atoms: C1_14  and  O1_23 
REMARK       I    between atoms: C7_15  and  C8_21 
REMARK       I    between atoms: C7_15  and  N2_16 
ROOT
ATOM      1  O2  GCD d 903      23.097 -16.325  31.970  0.00  0.00    -0.388 OA
ATOM      2  C6  GCD d 903      17.463 -18.002  31.397  0.00  0.00     0.203 C 
ATOM      3  O6B GCD d 903      16.849 -16.951  31.574  0.00  0.00    -0.646 OA
ATOM      4  C5  GCD d 903      18.989 -17.679  31.416  0.00  0.00     0.127 C 
ATOM      5  C4  GCD d 903      19.915 -18.629  31.301  0.00  0.00    -0.005 C 
ATOM      6  C3  GCD d 903      21.325 -18.109  31.329  0.00  0.00     0.068 C 
ATOM      7  C2  GCD d 903      21.677 -16.742  32.048  0.00  0.00     0.107 C 
ATOM      8  O6A GCD d 903      17.076 -19.290  31.311  0.00  0.00    -0.646 OA
ATOM      9  O5  GCD d 903      19.226 -16.196  31.574  0.00  0.00    -0.343 OA
ATOM     10  C1  GCD d 903      20.649 -15.722  31.459  0.00  0.00     0.159 C 
ATOM     11  O3  GCD d 903      22.259 -19.055  31.885  0.00  0.00    -0.393 OA
ATOM     12  H   GCD d 903      23.658 -17.015  32.357  0.00  0.00     0.210 HD
ATOM     13  H   GCD d 903      19.952 -18.143  31.375  0.00  0.00     0.100 H 
ATOM     14  H   GCD d 903      19.761 -19.139  30.373  0.00  0.00     0.041 H 
ATOM     15  H   GCD d 903      19.804 -19.277  32.145  0.00  0.00     0.041 H 
ATOM     16  H   GCD d 903      21.412 -17.929  30.277  0.00  0.00     0.087 H 
ATOM     17  H   GCD d 903      21.584 -16.828  33.111  0.00  0.00     0.094 H 
ATOM     18  H   GCD d 903      21.005 -15.553  30.464  0.00  0.00     0.133 H 
ATOM     19  H   GCD d 903      22.098 -19.146  32.837  0.00  0.00     0.210 HD
ATOM     20  C6  NAG d 904      17.187 -10.920  32.773  0.00  0.00     0.043 C 
ATOM     21  O6  NAG d 904      17.073 -11.176  34.234  0.00  0.00    -0.398 OA
ATOM     22  O3  NAG d 904      20.514 -14.571  32.355  0.00  0.00    -0.348 OA
ATOM     23  C2  NAG d 904      21.346 -12.300  32.685  0.00  0.00     0.087 C 
ATOM     24  O4  NAG d 904      17.764 -13.638  31.951  0.00  0.00    -0.390 OA
ATOM     25  C3  NAG d 904      20.236 -13.198  32.008  0.00  0.00     0.093 C 
ATOM     26  C1  NAG d 904      21.067 -10.849  32.351  0.00  0.00     0.151 C 
ATOM     27  C7  NAG d 904      23.969 -12.718  33.110  0.00  0.00     0.214 C 
ATOM     28  N2  NAG d 904      22.782 -12.649  32.223  0.00  0.00    -0.349 N 
ATOM     29  C5  NAG d 904      18.558 -11.351  32.214  0.00  0.00     0.089 C 
ATOM     30  O5  NAG d 904      19.661 -10.491  32.818  0.00  0.00    -0.349 OA
ATOM     31  C8  NAG d 904      23.772 -12.400  34.605  0.00  0.00    -0.003 C 
ATOM     32  O7  NAG d 904      25.105 -13.022  32.680  0.00  0.00    -0.274 OA
ATOM     33  O1  NAG d 904      22.108 -10.016  32.963  0.00  0.00    -0.369 OA
ATOM     34  C4  NAG d 904      18.821 -12.810  32.549  0.00  0.00     0.089 C 
ATOM     35  H   NAG d 904      16.421 -11.467  32.265  0.00  0.00     0.078 H 
ATOM     36  H   NAG d 904      17.083  -9.867  32.614  0.00  0.00     0.078 H 
ATOM     37  H   NAG d 904      17.164 -12.126  34.404  0.00  0.00     0.209 HD
ATOM     38  H   NAG d 904      21.300 -12.481  33.738  0.00  0.00     0.084 H 
ATOM     39  H   NAG d 904      17.927 -14.571  32.161  0.00  0.00     0.210 HD
ATOM     40  H   NAG d 904      20.246 -13.058  30.947  0.00  0.00     0.091 H 
ATOM     41  H   NAG d 904      21.099 -10.676  31.295  0.00  0.00     0.132 H 
ATOM     42  H   NAG d 904      22.917 -12.841  31.267  0.00  0.00     0.163 HD
ATOM     43  H   NAG d 904      18.550 -11.224  31.151  0.00  0.00     0.090 H 
ATOM     44  H   NAG d 904      22.745 -12.164  34.787  0.00  0.00     0.040 H 
ATOM     45  H   NAG d 904      24.383 -11.564  34.875  0.00  0.00     0.040 H 
ATOM     46  H   NAG d 904      24.052 -13.250  35.191  0.00  0.00     0.040 H 
ATOM     47  H   NAG d 904      22.106 -10.150  33.924  0.00  0.00     0.212 HD
ATOM     48  H   NAG d 904      18.807 -12.972  33.606  0.00  0.00     0.091 H 
ENDROOT
TORSDOF 11
ENDMDL
MODEL 36
REMARK VINA RESULT:      -6.4      2.621      6.623
REMARK  0 active torsions:
REMARK  status: ('A' for Active; 'I' for Inactive)
REMARK       I    between atoms: O2_1  and  C2_13 
REMARK       I    between atoms: C6_2  and  C5_7 
REMARK       I    between atoms: C6_4  and  C5_18 
REMARK       I    between atoms: C6_4  and  O6_5 
REMARK       I    between atoms: O3_6  and  C1_24 
REMARK       I    between atoms: O3_6  and  C3_11 
REMARK       I    between atoms: C2_8  and  N2_16 
REMARK       I    between atoms: O4_10  and  C4_25 
REMARK       I    between atoms: C3_12  and  O3_26 
REMARK       I    between atoms: C1_14  and  O1_23 
REMARK       I    between atoms: C7_15  and  C8_21 
REMARK       I    between atoms: C7_15  and  N2_16 
ROOT
ATOM      1  O2  GCD d 903      17.469 -18.496  31.134  0.00  0.00    -0.388 OA
ATOM      2  C6  GCD d 903      15.540 -12.986  32.031  0.00  0.00     0.203 C 
ATOM      3  O6B GCD d 903      16.569 -12.386  32.333  0.00  0.00    -0.646 OA
ATOM      4  C5  GCD d 903      15.927 -14.451  31.660  0.00  0.00     0.127 C 
ATOM      5  C4  GCD d 903      15.012 -15.364  31.337  0.00  0.00    -0.005 C 
ATOM      6  C3  GCD d 903      15.592 -16.710  30.998  0.00  0.00     0.068 C 
ATOM      7  C2  GCD d 903      16.995 -17.163  31.575  0.00  0.00     0.107 C 
ATOM      8  O6A GCD d 903      14.235 -12.654  32.074  0.00  0.00    -0.646 OA
ATOM      9  O5  GCD d 903      17.422 -14.647  31.719  0.00  0.00    -0.343 OA
ATOM     10  C1  GCD d 903      17.951 -15.972  31.240  0.00  0.00     0.159 C 
ATOM     11  O3  GCD d 903      14.705 -17.798  31.323  0.00  0.00    -0.393 OA
ATOM     12  H   GCD d 903      16.817 -19.170  31.383  0.00  0.00     0.210 HD
ATOM     13  H   GCD d 903      15.502 -15.395  31.388  0.00  0.00     0.100 H 
ATOM     14  H   GCD d 903      14.466 -15.009  30.489  0.00  0.00     0.041 H 
ATOM     15  H   GCD d 903      14.390 -15.499  32.197  0.00  0.00     0.041 H 
ATOM     16  H   GCD d 903      15.739 -16.522  29.955  0.00  0.00     0.087 H 
ATOM     17  H   GCD d 903      16.942 -17.342  32.629  0.00  0.00     0.094 H 
ATOM     18  H   GCD d 903      18.101 -16.059  30.184  0.00  0.00     0.133 H 
ATOM     19  H   GCD d 903      14.640 -17.884  32.287  0.00  0.00     0.210 HD
ATOM     20  C6  NAG d 904      22.647 -12.717  33.273  0.00  0.00     0.043 C 
ATOM     21  O6  NAG d 904      22.436 -12.984  34.721  0.00  0.00    -0.398 OA
ATOM     22  O3  NAG d 904      19.126 -16.009  32.115  0.00  0.00    -0.348 OA
ATOM     23  C2  NAG d 904      21.439 -16.784  32.174  0.00  0.00     0.087 C 
ATOM     24  O4  NAG d 904      19.929 -13.203  32.393  0.00  0.00    -0.390 OA
ATOM     25  C3  NAG d 904      20.473 -15.586  31.818  0.00  0.00     0.093 C 
ATOM     26  C1  NAG d 904      22.865 -16.360  31.889  0.00  0.00     0.151 C 
ATOM     27  C7  NAG d 904      21.145 -19.448  31.937  0.00  0.00     0.214 C 
ATOM     28  N2  NAG d 904      21.134 -18.075  31.375  0.00  0.00    -0.349 N 
ATOM     29  C5  NAG d 904      22.255 -13.925  32.397  0.00  0.00     0.089 C 
ATOM     30  O5  NAG d 904      23.180 -15.100  32.685  0.00  0.00    -0.349 OA
ATOM     31  C8  NAG d 904      21.506 -19.615  33.426  0.00  0.00    -0.003 C 
ATOM     32  O7  NAG d 904      20.874 -20.454  31.242  0.00  0.00    -0.274 OA
ATOM     33  O1  NAG d 904      23.761 -17.480  32.201  0.00  0.00    -0.369 OA
ATOM     34  C4  NAG d 904      20.820 -14.334  32.688  0.00  0.00     0.089 C 
ATOM     35  H   NAG d 904      22.051 -11.876  32.986  0.00  0.00     0.078 H 
ATOM     36  H   NAG d 904      23.688 -12.525  33.121  0.00  0.00     0.078 H 
ATOM     37  H   NAG d 904      21.497 -13.161  34.883  0.00  0.00     0.209 HD
ATOM     38  H   NAG d 904      21.292 -17.012  33.210  0.00  0.00     0.084 H 
ATOM     39  H   NAG d 904      19.011 -13.458  32.577  0.00  0.00     0.210 HD
ATOM     40  H   NAG d 904      20.577 -15.324  30.786  0.00  0.00     0.091 H 
ATOM     41  H   NAG d 904      23.003 -16.120  30.855  0.00  0.00     0.132 H 
ATOM     42  H   NAG d 904      20.916 -17.976  30.420  0.00  0.00     0.163 HD
ATOM     43  H   NAG d 904      22.344 -13.645  31.368  0.00  0.00     0.090 H 
ATOM     44  H   NAG d 904      21.705 -18.655  33.854  0.00  0.00     0.040 H 
ATOM     45  H   NAG d 904      22.375 -20.233  33.515  0.00  0.00     0.040 H 
ATOM     46  H   NAG d 904      20.688 -20.074  33.942  0.00  0.00     0.040 H 
ATOM     47  H   NAG d 904      23.660 -17.724  33.134  0.00  0.00     0.212 HD
ATOM     48  H   NAG d 904      20.693 -14.593  33.718  0.00  0.00     0.091 H 
ENDROOT
TORSDOF 11
ENDMDL
MODEL 37
REMARK VINA RESULT:      -6.4      2.005      3.000
REMARK  0 active torsions:
REMARK  status: ('A' for Active; 'I' for Inactive)
REMARK       I    between atoms: O2_1  and  C2_13 
REMARK       I    between atoms: C6_2  and  C5_7 
REMARK       I    between atoms: C6_4  and  C5_18 
REMARK       I    between atoms: C6_4  and  O6_5 
REMARK       I    between atoms: O3_6  and  C1_24 
REMARK       I    between atoms: O3_6  and  C3_11 
REMARK       I    between atoms: C2_8  and  N2_16 
REMARK       I    between atoms: O4_10  and  C4_25 
REMARK       I    between atoms: C3_12  and  O3_26 
REMARK       I    between atoms: C1_14  and  O1_23 
REMARK       I    between atoms: C7_15  and  C8_21 
REMARK       I    between atoms: C7_15  and  N2_16 
ROOT
ATOM      1  O2  GCD d 903      20.354 -18.144  33.807  0.00  0.00    -0.388 OA
ATOM      2  C6  GCD d 903      15.130 -17.831  31.068  0.00  0.00     0.203 C 
ATOM      3  O6B GCD d 903      14.927 -16.619  31.013  0.00  0.00    -0.646 OA
ATOM      4  C5  GCD d 903      16.547 -18.055  31.683  0.00  0.00     0.127 C 
ATOM      5  C4  GCD d 903      17.031 -19.273  31.917  0.00  0.00    -0.005 C 
ATOM      6  C3  GCD d 903      18.418 -19.272  32.498  0.00  0.00     0.068 C 
ATOM      7  C2  GCD d 903      18.958 -18.032  33.322  0.00  0.00     0.107 C 
ATOM      8  O6A GCD d 903      14.358 -18.906  30.816  0.00  0.00    -0.646 OA
ATOM      9  O5  GCD d 903      17.236 -16.738  31.946  0.00  0.00    -0.343 OA
ATOM     10  C1  GCD d 903      18.669 -16.803  32.399  0.00  0.00     0.159 C 
ATOM     11  O3  GCD d 903      18.665 -20.404  33.355  0.00  0.00    -0.393 OA
ATOM     12  H   GCD d 903      20.439 -18.930  34.369  0.00  0.00     0.210 HD
ATOM     13  H   GCD d 903      17.215 -18.824  32.009  0.00  0.00     0.100 H 
ATOM     14  H   GCD d 903      17.053 -19.811  30.993  0.00  0.00     0.041 H 
ATOM     15  H   GCD d 903      16.389 -19.730  32.642  0.00  0.00     0.041 H 
ATOM     16  H   GCD d 903      18.943 -19.268  31.565  0.00  0.00     0.087 H 
ATOM     17  H   GCD d 903      18.458 -17.945  34.264  0.00  0.00     0.094 H 
ATOM     18  H   GCD d 903      19.400 -16.895  31.622  0.00  0.00     0.133 H 
ATOM     19  H   GCD d 903      18.146 -20.312  34.169  0.00  0.00     0.210 HD
ATOM     20  C6  NAG d 904      16.994 -10.976  32.357  0.00  0.00     0.043 C 
ATOM     21  O6  NAG d 904      16.267 -10.989  33.654  0.00  0.00    -0.398 OA
ATOM     22  O3  NAG d 904      18.650 -15.572  33.193  0.00  0.00    -0.348 OA
ATOM     23  C2  NAG d 904      20.075 -13.706  33.860  0.00  0.00     0.087 C 
ATOM     24  O4  NAG d 904      16.789 -13.807  31.773  0.00  0.00    -0.390 OA
ATOM     25  C3  NAG d 904      19.043 -14.244  32.790  0.00  0.00     0.093 C 
ATOM     26  C1  NAG d 904      20.491 -12.303  33.470  0.00  0.00     0.151 C 
ATOM     27  C7  NAG d 904      22.008 -14.947  35.259  0.00  0.00     0.214 C 
ATOM     28  N2  NAG d 904      21.343 -14.586  33.983  0.00  0.00    -0.349 N 
ATOM     29  C5  NAG d 904      18.212 -11.921  32.364  0.00  0.00     0.089 C 
ATOM     30  O5  NAG d 904      19.250 -11.426  33.363  0.00  0.00    -0.349 OA
ATOM     31  C8  NAG d 904      21.410 -14.393  36.567  0.00  0.00    -0.003 C 
ATOM     32  O7  NAG d 904      23.025 -15.677  35.297  0.00  0.00    -0.274 OA
ATOM     33  O1  NAG d 904      21.464 -11.810  34.452  0.00  0.00    -0.369 OA
ATOM     34  C4  NAG d 904      17.778 -13.326  32.748  0.00  0.00     0.089 C 
ATOM     35  H   NAG d 904      16.323 -11.284  31.582  0.00  0.00     0.078 H 
ATOM     36  H   NAG d 904      17.350  -9.981  32.188  0.00  0.00     0.078 H 
ATOM     37  H   NAG d 904      15.934 -11.882  33.830  0.00  0.00     0.209 HD
ATOM     38  H   NAG d 904      19.583 -13.725  34.810  0.00  0.00     0.084 H 
ATOM     39  H   NAG d 904      16.508 -14.704  32.014  0.00  0.00     0.210 HD
ATOM     40  H   NAG d 904      19.492 -14.252  31.819  0.00  0.00     0.091 H 
ATOM     41  H   NAG d 904      20.969 -12.287  32.512  0.00  0.00     0.132 H 
ATOM     42  H   NAG d 904      21.738 -14.932  33.151  0.00  0.00     0.163 HD
ATOM     43  H   NAG d 904      18.640 -11.935  31.383  0.00  0.00     0.090 H 
ATOM     44  H   NAG d 904      20.551 -13.795  36.341  0.00  0.00     0.040 H 
ATOM     45  H   NAG d 904      22.141 -13.792  37.068  0.00  0.00     0.040 H 
ATOM     46  H   NAG d 904      21.122 -15.206  37.201  0.00  0.00     0.040 H 
ATOM     47  H   NAG d 904      21.061 -11.812  35.334  0.00  0.00     0.212 HD
ATOM     48  H   NAG d 904      17.320 -13.338  33.715  0.00  0.00     0.091 H 
ENDROOT
TORSDOF 11
ENDMDL
MODEL 38
REMARK VINA RESULT:      -6.3      1.947      5.134
REMARK  0 active torsions:
REMARK  status: ('A' for Active; 'I' for Inactive)
REMARK       I    between atoms: O2_1  and  C2_13 
REMARK       I    between atoms: C6_2  and  C5_7 
REMARK       I    between atoms: C6_4  and  C5_18 
REMARK       I    between atoms: C6_4  and  O6_5 
REMARK       I    between atoms: O3_6  and  C1_24 
REMARK       I    between atoms: O3_6  and  C3_11 
REMARK       I    between atoms: C2_8  and  N2_16 
REMARK       I    between atoms: O4_10  and  C4_25 
REMARK       I    between atoms: C3_12  and  O3_26 
REMARK       I    between atoms: C1_14  and  O1_23 
REMARK       I    between atoms: C7_15  and  C8_21 
REMARK       I    between atoms: C7_15  and  N2_16 
ROOT
ATOM      1  O2  GCD d 903      15.404 -15.063  32.151  0.00  0.00    -0.388 OA
ATOM      2  C6  GCD d 903      18.546 -20.023  31.500  0.00  0.00     0.203 C 
ATOM      3  O6B GCD d 903      19.666 -19.683  31.874  0.00  0.00    -0.646 OA
ATOM      4  C5  GCD d 903      17.577 -18.819  31.723  0.00  0.00     0.127 C 
ATOM      5  C4  GCD d 903      16.296 -18.867  31.363  0.00  0.00    -0.005 C 
ATOM      6  C3  GCD d 903      15.531 -17.612  31.677  0.00  0.00     0.068 C 
ATOM      7  C2  GCD d 903      16.268 -16.215  31.800  0.00  0.00     0.107 C 
ATOM      8  O6A GCD d 903      18.077 -21.122  30.879  0.00  0.00    -0.646 OA
ATOM      9  O5  GCD d 903      18.293 -17.664  32.379  0.00  0.00    -0.343 OA
ATOM     10  C1  GCD d 903      17.447 -16.490  32.790  0.00  0.00     0.159 C 
ATOM     11  O3  GCD d 903      14.456 -17.366  30.750  0.00  0.00    -0.393 OA
ATOM     12  H   GCD d 903      14.705 -14.970  31.485  0.00  0.00     0.210 HD
ATOM     13  H   GCD d 903      16.568 -18.505  31.558  0.00  0.00     0.100 H 
ATOM     14  H   GCD d 903      15.831 -19.683  31.877  0.00  0.00     0.041 H 
ATOM     15  H   GCD d 903      16.274 -18.989  30.300  0.00  0.00     0.041 H 
ATOM     16  H   GCD d 903      15.239 -17.889  32.669  0.00  0.00     0.087 H 
ATOM     17  H   GCD d 903      16.622 -15.879  30.848  0.00  0.00     0.094 H 
ATOM     18  H   GCD d 903      16.962 -16.575  33.741  0.00  0.00     0.133 H 
ATOM     19  H   GCD d 903      14.823 -17.123  29.886  0.00  0.00     0.210 HD
ATOM     20  C6  NAG d 904      23.227 -15.149  34.041  0.00  0.00     0.043 C 
ATOM     21  O6  NAG d 904      23.624 -14.764  32.661  0.00  0.00    -0.398 OA
ATOM     22  O3  NAG d 904      18.486 -15.470  32.629  0.00  0.00    -0.348 OA
ATOM     23  C2  NAG d 904      19.254 -13.357  33.580  0.00  0.00     0.087 C 
ATOM     24  O4  NAG d 904      20.980 -16.838  33.337  0.00  0.00    -0.390 OA
ATOM     25  C3  NAG d 904      19.372 -14.932  33.632  0.00  0.00     0.093 C 
ATOM     26  C1  NAG d 904      20.189 -12.765  34.613  0.00  0.00     0.151 C 
ATOM     27  C7  NAG d 904      17.156 -11.738  33.118  0.00  0.00     0.214 C 
ATOM     28  N2  NAG d 904      17.820 -12.842  33.853  0.00  0.00    -0.349 N 
ATOM     29  C5  NAG d 904      21.765 -14.768  34.352  0.00  0.00     0.089 C 
ATOM     30  O5  NAG d 904      21.607 -13.253  34.341  0.00  0.00    -0.349 OA
ATOM     31  C8  NAG d 904      17.955 -11.029  32.006  0.00  0.00    -0.003 C 
ATOM     32  O7  NAG d 904      15.985 -11.375  33.375  0.00  0.00    -0.274 OA
ATOM     33  O1  NAG d 904      20.066 -11.303  34.578  0.00  0.00    -0.369 OA
ATOM     34  C4  NAG d 904      20.837 -15.376  33.312  0.00  0.00     0.089 C 
ATOM     35  H   NAG d 904      23.338 -16.207  34.150  0.00  0.00     0.078 H 
ATOM     36  H   NAG d 904      23.857 -14.620  34.725  0.00  0.00     0.078 H 
ATOM     37  H   NAG d 904      23.065 -15.231  32.021  0.00  0.00     0.209 HD
ATOM     38  H   NAG d 904      19.515 -13.054  32.587  0.00  0.00     0.084 H 
ATOM     39  H   NAG d 904      20.390 -17.232  32.675  0.00  0.00     0.210 HD
ATOM     40  H   NAG d 904      19.113 -15.288  34.607  0.00  0.00     0.091 H 
ATOM     41  H   NAG d 904      19.934 -13.083  35.603  0.00  0.00     0.132 H 
ATOM     42  H   NAG d 904      17.308 -13.282  34.571  0.00  0.00     0.163 HD
ATOM     43  H   NAG d 904      21.511 -15.146  35.321  0.00  0.00     0.090 H 
ATOM     44  H   NAG d 904      18.927 -11.470  31.929  0.00  0.00     0.040 H 
ATOM     45  H   NAG d 904      18.052  -9.990  32.244  0.00  0.00     0.040 H 
ATOM     46  H   NAG d 904      17.440 -11.135  31.074  0.00  0.00     0.040 H 
ATOM     47  H   NAG d 904      20.291 -10.981  33.692  0.00  0.00     0.212 HD
ATOM     48  H   NAG d 904      21.086 -15.038  32.328  0.00  0.00     0.091 H 
ENDROOT
TORSDOF 11
ENDMDL
MODEL 39
REMARK VINA RESULT:      -6.3      2.727      7.932
REMARK  0 active torsions:
REMARK  status: ('A' for Active; 'I' for Inactive)
REMARK       I    between atoms: O2_1  and  C2_13 
REMARK       I    between atoms: C6_2  and  C5_7 
REMARK       I    between atoms: C6_4  and  C5_18 
REMARK       I    between atoms: C6_4  and  O6_5 
REMARK       I    between atoms: O3_6  and  C1_24 
REMARK       I    between atoms: O3_6  and  C3_11 
REMARK       I    between atoms: C2_8  and  N2_16 
REMARK       I    between atoms: O4_10  and  C4_25 
REMARK       I    between atoms: C3_12  and  O3_26 
REMARK       I    between atoms: C1_14  and  O1_23 
REMARK       I    between atoms: C7_15  and  C8_21 
REMARK       I    between atoms: C7_15  and  N2_16 
ROOT
ATOM      1  O2  GCD d 903      18.185 -12.378  32.767  0.00  0.00    -0.388 OA
ATOM      2  C6  GCD d 903      24.061 -12.078  32.250  0.00  0.00     0.203 C 
ATOM      3  O6B GCD d 903      24.375 -13.250  32.053  0.00  0.00    -0.646 OA
ATOM      4  C5  GCD d 903      22.503 -11.997  32.300  0.00  0.00     0.127 C 
ATOM      5  C4  GCD d 903      21.862 -10.857  32.551  0.00  0.00    -0.005 C 
ATOM      6  C3  GCD d 903      20.364 -10.989  32.541  0.00  0.00     0.068 C 
ATOM      7  C2  GCD d 903      19.665 -12.376  32.847  0.00  0.00     0.107 C 
ATOM      8  O6A GCD d 903      24.774 -10.967  32.520  0.00  0.00    -0.646 OA
ATOM      9  O5  GCD d 903      21.883 -13.346  32.028  0.00  0.00    -0.343 OA
ATOM     10  C1  GCD d 903      20.385 -13.388  31.896  0.00  0.00     0.159 C 
ATOM     11  O3  GCD d 903      19.716 -10.059  33.430  0.00  0.00    -0.393 OA
ATOM     12  H   GCD d 903      17.827 -11.725  33.388  0.00  0.00     0.210 HD
ATOM     13  H   GCD d 903      21.698 -11.317  32.480  0.00  0.00     0.100 H 
ATOM     14  H   GCD d 903      22.143 -10.141  31.808  0.00  0.00     0.041 H 
ATOM     15  H   GCD d 903      22.142 -10.553  33.538  0.00  0.00     0.041 H 
ATOM     16  H   GCD d 903      20.231 -10.806  31.494  0.00  0.00     0.087 H 
ATOM     17  H   GCD d 903      19.780 -12.650  33.875  0.00  0.00     0.094 H 
ATOM     18  H   GCD d 903      19.995 -13.145  30.929  0.00  0.00     0.133 H 
ATOM     19  H   GCD d 903      19.897 -10.311  34.349  0.00  0.00     0.210 HD
ATOM     20  C6  NAG d 904      22.455 -19.068  31.423  0.00  0.00     0.043 C 
ATOM     21  O6  NAG d 904      22.636 -19.314  32.878  0.00  0.00    -0.398 OA
ATOM     22  O3  NAG d 904      20.212 -14.755  32.393  0.00  0.00    -0.348 OA
ATOM     23  C2  NAG d 904      18.809 -16.731  32.099  0.00  0.00     0.087 C 
ATOM     24  O4  NAG d 904      22.616 -16.175  31.500  0.00  0.00    -0.390 OA
ATOM     25  C3  NAG d 904      20.116 -15.976  31.630  0.00  0.00     0.093 C 
ATOM     26  C1  NAG d 904      18.694 -18.028  31.325  0.00  0.00     0.151 C 
ATOM     27  C7  NAG d 904      16.391 -15.820  32.848  0.00  0.00     0.214 C 
ATOM     28  N2  NAG d 904      17.516 -15.906  31.885  0.00  0.00    -0.349 N 
ATOM     29  C5  NAG d 904      21.245 -18.155  31.135  0.00  0.00     0.089 C 
ATOM     30  O5  NAG d 904      19.955 -18.853  31.545  0.00  0.00    -0.349 OA
ATOM     31  C8  NAG d 904      16.500 -16.625  34.158  0.00  0.00    -0.003 C 
ATOM     32  O7  NAG d 904      15.375 -15.123  32.625  0.00  0.00    -0.274 OA
ATOM     33  O1  NAG d 904      17.470 -18.720  31.747  0.00  0.00    -0.369 OA
ATOM     34  C4  NAG d 904      21.379 -16.854  31.910  0.00  0.00     0.089 C 
ATOM     35  H   NAG d 904      23.337 -18.601  31.039  0.00  0.00     0.078 H 
ATOM     36  H   NAG d 904      22.276 -20.010  30.949  0.00  0.00     0.078 H 
ATOM     37  H   NAG d 904      22.799 -18.473  33.331  0.00  0.00     0.209 HD
ATOM     38  H   NAG d 904      18.904 -16.903  33.151  0.00  0.00     0.084 H 
ATOM     39  H   NAG d 904      22.707 -15.344  31.992  0.00  0.00     0.210 HD
ATOM     40  H   NAG d 904      20.067 -15.773  30.581  0.00  0.00     0.091 H 
ATOM     41  H   NAG d 904      18.614 -17.851  30.273  0.00  0.00     0.132 H 
ATOM     42  H   NAG d 904      17.435 -15.400  31.044  0.00  0.00     0.163 HD
ATOM     43  H   NAG d 904      21.218 -17.944  30.086  0.00  0.00     0.090 H 
ATOM     44  H   NAG d 904      17.429 -17.156  34.174  0.00  0.00     0.040 H 
ATOM     45  H   NAG d 904      15.690 -17.322  34.217  0.00  0.00     0.040 H 
ATOM     46  H   NAG d 904      16.456 -15.956  34.992  0.00  0.00     0.040 H 
ATOM     47  H   NAG d 904      17.510 -18.895  32.699  0.00  0.00     0.212 HD
ATOM     48  H   NAG d 904      21.437 -17.037  32.963  0.00  0.00     0.091 H 
ENDROOT
TORSDOF 11
ENDMDL
MODEL 40
REMARK VINA RESULT:      -6.2      2.432      6.110
REMARK  0 active torsions:
REMARK  status: ('A' for Active; 'I' for Inactive)
REMARK       I    between atoms: O2_1  and  C2_13 
REMARK       I    between atoms: C6_2  and  C5_7 
REMARK       I    between atoms: C6_4  and  C5_18 
REMARK       I    between atoms: C6_4  and  O6_5 
REMARK       I    between atoms: O3_6  and  C1_24 
REMARK       I    between atoms: O3_6  and  C3_11 
REMARK       I    between atoms: C2_8  and  N2_16 
REMARK       I    between atoms: O4_10  and  C4_25 
REMARK       I    between atoms: C3_12  and  O3_26 
REMARK       I    between atoms: C1_14  and  O1_23 
REMARK       I    between atoms: C7_15  and  C8_21 
REMARK       I    between atoms: C7_15  and  N2_16 
ROOT
ATOM      1  O2  GCD d 903      18.232 -16.779  31.892  0.00  0.00    -0.388 OA
ATOM      2  C6  GCD d 903      14.986 -11.857  32.251  0.00  0.00     0.203 C 
ATOM      3  O6B GCD d 903      15.824 -11.001  32.527  0.00  0.00    -0.646 OA
ATOM      4  C5  GCD d 903      15.734 -13.207  32.020  0.00  0.00     0.127 C 
ATOM      5  C4  GCD d 903      15.084 -14.339  31.754  0.00  0.00    -0.005 C 
ATOM      6  C3  GCD d 903      15.987 -15.523  31.550  0.00  0.00     0.068 C 
ATOM      7  C2  GCD d 903      17.429 -15.572  32.202  0.00  0.00     0.107 C 
ATOM      8  O6A GCD d 903      13.639 -11.853  32.229  0.00  0.00    -0.646 OA
ATOM      9  O5  GCD d 903      17.227 -13.025  32.138  0.00  0.00    -0.343 OA
ATOM     10  C1  GCD d 903      18.083 -14.213  31.791  0.00  0.00     0.159 C 
ATOM     11  O3  GCD d 903      15.375 -16.767  31.944  0.00  0.00    -0.393 OA
ATOM     12  H   GCD d 903      17.751 -17.570  32.182  0.00  0.00     0.210 HD
ATOM     13  H   GCD d 903      15.563 -14.245  31.821  0.00  0.00     0.100 H 
ATOM     14  H   GCD d 903      14.508 -14.196  30.863  0.00  0.00     0.041 H 
ATOM     15  H   GCD d 903      14.472 -14.555  32.605  0.00  0.00     0.041 H 
ATOM     16  H   GCD d 903      16.134 -15.387  30.498  0.00  0.00     0.087 H 
ATOM     17  H   GCD d 903      17.370 -15.676  33.266  0.00  0.00     0.094 H 
ATOM     18  H   GCD d 903      18.300 -14.343  30.751  0.00  0.00     0.133 H 
ATOM     19  H   GCD d 903      15.287 -16.791  32.910  0.00  0.00     0.210 HD
ATOM     20  C6  NAG d 904      21.749  -9.758  33.658  0.00  0.00     0.043 C 
ATOM     21  O6  NAG d 904      21.540  -9.954  35.117  0.00  0.00    -0.398 OA
ATOM     22  O3  NAG d 904      19.189 -13.893  32.697  0.00  0.00    -0.348 OA
ATOM     23  C2  NAG d 904      21.616 -14.070  32.887  0.00  0.00     0.087 C 
ATOM     24  O4  NAG d 904      19.275 -10.962  32.750  0.00  0.00    -0.390 OA
ATOM     25  C3  NAG d 904      20.406 -13.177  32.401  0.00  0.00     0.093 C 
ATOM     26  C1  NAG d 904      22.908 -13.333  32.604  0.00  0.00     0.151 C 
ATOM     27  C7  NAG d 904      21.987 -16.735  32.875  0.00  0.00     0.214 C 
ATOM     28  N2  NAG d 904      21.671 -15.454  32.195  0.00  0.00    -0.349 N 
ATOM     29  C5  NAG d 904      21.703 -11.090  32.881  0.00  0.00     0.089 C 
ATOM     30  O5  NAG d 904      22.870 -11.976  33.296  0.00  0.00    -0.349 OA
ATOM     31  C8  NAG d 904      22.306 -16.691  34.382  0.00  0.00    -0.003 C 
ATOM     32  O7  NAG d 904      22.001 -17.828  32.264  0.00  0.00    -0.274 OA
ATOM     33  O1  NAG d 904      24.033 -14.171  33.038  0.00  0.00    -0.369 OA
ATOM     34  C4  NAG d 904      20.398 -11.814  33.167  0.00  0.00     0.089 C 
ATOM     35  H   NAG d 904      20.982  -9.114  33.283  0.00  0.00     0.078 H 
ATOM     36  H   NAG d 904      22.719  -9.329  33.518  0.00  0.00     0.078 H 
ATOM     37  H   NAG d 904      20.666 -10.343  35.269  0.00  0.00     0.209 HD
ATOM     38  H   NAG d 904      21.479 -14.245  33.934  0.00  0.00     0.084 H 
ATOM     39  H   NAG d 904      18.438 -11.420  32.931  0.00  0.00     0.210 HD
ATOM     40  H   NAG d 904      20.493 -12.979  31.353  0.00  0.00     0.091 H 
ATOM     41  H   NAG d 904      23.034 -13.147  31.558  0.00  0.00     0.132 H 
ATOM     42  H   NAG d 904      21.481 -15.487  31.229  0.00  0.00     0.163 HD
ATOM     43  H   NAG d 904      21.772 -10.878  31.834  0.00  0.00     0.090 H 
ATOM     44  H   NAG d 904      22.246 -15.682  34.731  0.00  0.00     0.040 H 
ATOM     45  H   NAG d 904      23.293 -17.068  34.549  0.00  0.00     0.040 H 
ATOM     46  H   NAG d 904      21.599 -17.295  34.914  0.00  0.00     0.040 H 
ATOM     47  H   NAG d 904      23.949 -14.358  33.985  0.00  0.00     0.212 HD
ATOM     48  H   NAG d 904      20.288 -12.014  34.212  0.00  0.00     0.091 H 
ENDROOT
TORSDOF 11
ENDMDL
MODEL 41
REMARK VINA RESULT:      -6.2      2.589      6.322
REMARK  0 active torsions:
REMARK  status: ('A' for Active; 'I' for Inactive)
REMARK       I    between atoms: O2_1  and  C2_13 
REMARK       I    between atoms: C6_2  and  C5_7 
REMARK       I    between atoms: C6_4  and  C5_18 
REMARK       I    between atoms: C6_4  and  O6_5 
REMARK       I    between atoms: O3_6  and  C1_24 
REMARK       I    between atoms: O3_6  and  C3_11 
REMARK       I    between atoms: C2_8  and  N2_16 
REMARK       I    between atoms: O4_10  and  C4_25 
REMARK       I    between atoms: C3_12  and  O3_26 
REMARK       I    between atoms: C1_14  and  O1_23 
REMARK       I    between atoms: C7_15  and  C8_21 
REMARK       I    between atoms: C7_15  and  N2_16 
ROOT
ATOM      1  O2  GCD d 903      22.499 -15.425  32.921  0.00  0.00    -0.388 OA
ATOM      2  C6  GCD d 903      20.685  -9.951  31.639  0.00  0.00     0.203 C 
ATOM      3  O6B GCD d 903      19.462 -10.070  31.620  0.00  0.00    -0.646 OA
ATOM      4  C5  GCD d 903      21.296 -11.319  32.076  0.00  0.00     0.127 C 
ATOM      5  C4  GCD d 903      22.611 -11.517  32.141  0.00  0.00    -0.005 C 
ATOM      6  C3  GCD d 903      22.994 -12.898  32.597  0.00  0.00     0.068 C 
ATOM      7  C2  GCD d 903      22.016 -14.127  32.392  0.00  0.00     0.107 C 
ATOM      8  O6A GCD d 903      21.519  -8.960  31.269  0.00  0.00    -0.646 OA
ATOM      9  O5  GCD d 903      20.211 -12.317  32.398  0.00  0.00    -0.343 OA
ATOM     10  C1  GCD d 903      20.653 -13.634  32.978  0.00  0.00     0.159 C 
ATOM     11  O3  GCD d 903      24.246 -13.343  32.040  0.00  0.00    -0.393 OA
ATOM     12  H   GCD d 903      23.345 -15.649  32.503  0.00  0.00     0.210 HD
ATOM     13  H   GCD d 903      22.230 -11.821  32.216  0.00  0.00     0.100 H 
ATOM     14  H   GCD d 903      23.026 -10.808  32.826  0.00  0.00     0.041 H 
ATOM     15  H   GCD d 903      22.994 -11.399  31.148  0.00  0.00     0.041 H 
ATOM     16  H   GCD d 903      22.998 -12.685  33.646  0.00  0.00     0.087 H 
ATOM     17  H   GCD d 903      21.931 -14.386  31.358  0.00  0.00     0.094 H 
ATOM     18  H   GCD d 903      20.814 -13.646  34.036  0.00  0.00     0.133 H 
ATOM     19  H   GCD d 903      24.138 -13.508  31.091  0.00  0.00     0.210 HD
ATOM     20  C6  NAG d 904      14.635 -13.841  32.263  0.00  0.00     0.043 C 
ATOM     21  O6  NAG d 904      14.638 -14.138  30.805  0.00  0.00    -0.398 OA
ATOM     22  O3  NAG d 904      19.553 -14.434  32.433  0.00  0.00    -0.348 OA
ATOM     23  C2  NAG d 904      18.151 -16.362  32.957  0.00  0.00     0.087 C 
ATOM     24  O4  NAG d 904      17.255 -12.613  32.410  0.00  0.00    -0.390 OA
ATOM     25  C3  NAG d 904      18.310 -14.794  33.071  0.00  0.00     0.093 C 
ATOM     26  C1  NAG d 904      16.843 -16.766  33.604  0.00  0.00     0.151 C 
ATOM     27  C7  NAG d 904      19.957 -18.354  33.073  0.00  0.00     0.214 C 
ATOM     28  N2  NAG d 904      19.304 -17.145  33.633  0.00  0.00    -0.349 N 
ATOM     29  C5  NAG d 904      15.825 -14.497  32.991  0.00  0.00     0.089 C 
ATOM     30  O5  NAG d 904      15.701 -16.014  32.932  0.00  0.00    -0.349 OA
ATOM     31  C8  NAG d 904      19.441 -18.892  31.723  0.00  0.00    -0.003 C 
ATOM     32  O7  NAG d 904      20.897 -18.936  33.660  0.00  0.00    -0.274 OA
ATOM     33  O1  NAG d 904      16.704 -18.225  33.515  0.00  0.00    -0.369 OA
ATOM     34  C4  NAG d 904      17.131 -14.076  32.337  0.00  0.00     0.089 C 
ATOM     35  H   NAG d 904      14.689 -12.781  32.399  0.00  0.00     0.078 H 
ATOM     36  H   NAG d 904      13.734 -14.240  32.679  0.00  0.00     0.078 H 
ATOM     37  H   NAG d 904      15.447 -13.785  30.405  0.00  0.00     0.209 HD
ATOM     38  H   NAG d 904      18.172 -16.607  31.915  0.00  0.00     0.084 H 
ATOM     39  H   NAG d 904      18.087 -12.338  31.993  0.00  0.00     0.210 HD
ATOM     40  H   NAG d 904      18.303 -14.498  34.099  0.00  0.00     0.091 H 
ATOM     41  H   NAG d 904      16.822 -16.506  34.642  0.00  0.00     0.132 H 
ATOM     42  H   NAG d 904      19.629 -16.814  34.502  0.00  0.00     0.163 HD
ATOM     43  H   NAG d 904      15.819 -14.178  34.013  0.00  0.00     0.090 H 
ATOM     44  H   NAG d 904      18.642 -18.272  31.374  0.00  0.00     0.040 H 
ATOM     45  H   NAG d 904      19.086 -19.893  31.851  0.00  0.00     0.040 H 
ATOM     46  H   NAG d 904      20.238 -18.884  31.009  0.00  0.00     0.040 H 
ATOM     47  H   NAG d 904      16.720 -18.495  32.584  0.00  0.00     0.212 HD
ATOM     48  H   NAG d 904      17.154 -14.357  31.305  0.00  0.00     0.091 H 
ENDROOT
TORSDOF 11
ENDMDL
MODEL 42
REMARK VINA RESULT:      -6.1      2.281      7.705
REMARK  0 active torsions:
REMARK  status: ('A' for Active; 'I' for Inactive)
REMARK       I    between atoms: O2_1  and  C2_13 
REMARK       I    between atoms: C6_2  and  C5_7 
REMARK       I    between atoms: C6_4  and  C5_18 
REMARK       I    between atoms: C6_4  and  O6_5 
REMARK       I    between atoms: O3_6  and  C1_24 
REMARK       I    between atoms: O3_6  and  C3_11 
REMARK       I    between atoms: C2_8  and  N2_16 
REMARK       I    between atoms: O4_10  and  C4_25 
REMARK       I    between atoms: C3_12  and  O3_26 
REMARK       I    between atoms: C1_14  and  O1_23 
REMARK       I    between atoms: C7_15  and  C8_21 
REMARK       I    between atoms: C7_15  and  N2_16 
ROOT
ATOM      1  O2  GCD d 903      15.328 -17.057  31.318  0.00  0.00    -0.388 OA
ATOM      2  C6  GCD d 903      17.790 -12.038  33.225  0.00  0.00     0.203 C 
ATOM      3  O6B GCD d 903      18.922 -12.397  33.543  0.00  0.00    -0.646 OA
ATOM      4  C5  GCD d 903      17.055 -13.262  32.596  0.00  0.00     0.127 C 
ATOM      5  C4  GCD d 903      15.785 -13.197  32.199  0.00  0.00    -0.005 C 
ATOM      6  C3  GCD d 903      15.268 -14.479  31.607  0.00  0.00     0.068 C 
ATOM      7  C2  GCD d 903      15.905 -15.875  32.001  0.00  0.00     0.107 C 
ATOM      8  O6A GCD d 903      17.099 -10.898  33.415  0.00  0.00    -0.646 OA
ATOM      9  O5  GCD d 903      17.970 -14.460  32.515  0.00  0.00    -0.343 OA
ATOM     10  C1  GCD d 903      17.441 -15.669  31.793  0.00  0.00     0.159 C 
ATOM     11  O3  GCD d 903      13.855 -14.661  31.817  0.00  0.00    -0.393 OA
ATOM     12  H   GCD d 903      14.377 -17.105  31.503  0.00  0.00     0.210 HD
ATOM     13  H   GCD d 903      16.107 -13.571  32.209  0.00  0.00     0.100 H 
ATOM     14  H   GCD d 903      15.702 -12.427  31.460  0.00  0.00     0.041 H 
ATOM     15  H   GCD d 903      15.196 -12.994  33.069  0.00  0.00     0.041 H 
ATOM     16  H   GCD d 903      15.570 -14.282  30.600  0.00  0.00     0.087 H 
ATOM     17  H   GCD d 903      15.675 -16.135  33.013  0.00  0.00     0.094 H 
ATOM     18  H   GCD d 903      17.552 -15.661  30.728  0.00  0.00     0.133 H 
ATOM     19  H   GCD d 903      13.687 -14.834  32.757  0.00  0.00     0.210 HD
ATOM     20  C6  NAG d 904      22.926 -17.056  33.973  0.00  0.00     0.043 C 
ATOM     21  O6  NAG d 904      22.499 -17.331  35.371  0.00  0.00    -0.398 OA
ATOM     22  O3  NAG d 904      18.191 -16.665  32.562  0.00  0.00    -0.348 OA
ATOM     23  C2  NAG d 904      19.276 -18.838  32.328  0.00  0.00     0.087 C 
ATOM     24  O4  NAG d 904      20.718 -15.335  33.227  0.00  0.00    -0.390 OA
ATOM     25  C3  NAG d 904      19.459 -17.271  32.240  0.00  0.00     0.093 C 
ATOM     26  C1  NAG d 904      20.601 -19.501  32.011  0.00  0.00     0.151 C 
ATOM     27  C7  NAG d 904      17.206 -20.434  31.688  0.00  0.00     0.214 C 
ATOM     28  N2  NAG d 904      18.201 -19.384  31.356  0.00  0.00    -0.349 N 
ATOM     29  C5  NAG d 904      21.853 -17.471  32.946  0.00  0.00     0.089 C 
ATOM     30  O5  NAG d 904      21.661 -18.982  32.975  0.00  0.00    -0.349 OA
ATOM     31  C8  NAG d 904      17.251 -21.048  33.101  0.00  0.00    -0.003 C 
ATOM     32  O7  NAG d 904      16.350 -20.825  30.863  0.00  0.00    -0.274 OA
ATOM     33  O1  NAG d 904      20.426 -20.957  32.074  0.00  0.00    -0.369 OA
ATOM     34  C4  NAG d 904      20.532 -16.793  33.271  0.00  0.00     0.089 C 
ATOM     35  H   NAG d 904      23.116 -16.008  33.869  0.00  0.00     0.078 H 
ATOM     36  H   NAG d 904      23.808 -17.631  33.779  0.00  0.00     0.078 H 
ATOM     37  H   NAG d 904      21.700 -16.820  35.571  0.00  0.00     0.209 HD
ATOM     38  H   NAG d 904      18.947 -19.062  33.321  0.00  0.00     0.084 H 
ATOM     39  H   NAG d 904      19.878 -14.896  33.434  0.00  0.00     0.210 HD
ATOM     40  H   NAG d 904      19.782 -16.993  31.258  0.00  0.00     0.091 H 
ATOM     41  H   NAG d 904      20.933 -19.262  31.022  0.00  0.00     0.132 H 
ATOM     42  H   NAG d 904      18.176 -19.005  30.448  0.00  0.00     0.163 HD
ATOM     43  H   NAG d 904      22.178 -17.172  31.972  0.00  0.00     0.090 H 
ATOM     44  H   NAG d 904      18.041 -20.595  33.663  0.00  0.00     0.040 H 
ATOM     45  H   NAG d 904      17.425 -22.102  33.027  0.00  0.00     0.040 H 
ATOM     46  H   NAG d 904      16.317 -20.875  33.595  0.00  0.00     0.040 H 
ATOM     47  H   NAG d 904      20.124 -21.208  32.961  0.00  0.00     0.212 HD
ATOM     48  H   NAG d 904      20.196 -17.052  34.254  0.00  0.00     0.091 H 
ENDROOT
TORSDOF 11
ENDMDL
MODEL 43
REMARK VINA RESULT:      -6.0      1.971      4.920
REMARK  0 active torsions:
REMARK  status: ('A' for Active; 'I' for Inactive)
REMARK       I    between atoms: O2_1  and  C2_13 
REMARK       I    between atoms: C6_2  and  C5_7 
REMARK       I    between atoms: C6_4  and  C5_18 
REMARK       I    between atoms: C6_4  and  O6_5 
REMARK       I    between atoms: O3_6  and  C1_24 
REMARK       I    between atoms: O3_6  and  C3_11 
REMARK       I    between atoms: C2_8  and  N2_16 
REMARK       I    between atoms: O4_10  and  C4_25 
REMARK       I    between atoms: C3_12  and  O3_26 
REMARK       I    between atoms: C1_14  and  O1_23 
REMARK       I    between atoms: C7_15  and  C8_21 
REMARK       I    between atoms: C7_15  and  N2_16 
ROOT
ATOM      1  O2  GCD d 903      15.731 -17.208  31.427  0.00  0.00    -0.388 OA
ATOM      2  C6  GCD d 903      21.455 -16.098  32.372  0.00  0.00     0.203 C 
ATOM      3  O6B GCD d 903      21.472 -14.878  32.521  0.00  0.00    -0.646 OA
ATOM      4  C5  GCD d 903      19.968 -16.545  32.217  0.00  0.00     0.127 C 
ATOM      5  C4  GCD d 903      19.631 -17.813  31.989  0.00  0.00    -0.005 C 
ATOM      6  C3  GCD d 903      18.147 -18.036  31.887  0.00  0.00     0.068 C 
ATOM      7  C2  GCD d 903      17.173 -16.866  31.452  0.00  0.00     0.107 C 
ATOM      8  O6A GCD d 903      22.426 -17.021  32.218  0.00  0.00    -0.646 OA
ATOM      9  O5  GCD d 903      19.033 -15.370  32.366  0.00  0.00    -0.343 OA
ATOM     10  C1  GCD d 903      17.560 -15.676  32.390  0.00  0.00     0.159 C 
ATOM     11  O3  GCD d 903      17.806 -19.128  31.010  0.00  0.00    -0.393 OA
ATOM     12  H   GCD d 903      15.586 -17.952  30.822  0.00  0.00     0.210 HD
ATOM     13  H   GCD d 903      19.359 -17.402  32.021  0.00  0.00     0.100 H 
ATOM     14  H   GCD d 903      20.008 -18.412  32.791  0.00  0.00     0.041 H 
ATOM     15  H   GCD d 903      20.053 -18.083  31.043  0.00  0.00     0.041 H 
ATOM     16  H   GCD d 903      17.975 -18.202  32.930  0.00  0.00     0.087 H 
ATOM     17  H   GCD d 903      17.305 -16.614  30.420  0.00  0.00     0.094 H 
ATOM     18  H   GCD d 903      17.159 -15.964  33.339  0.00  0.00     0.133 H 
ATOM     19  H   GCD d 903      17.998 -18.878  30.093  0.00  0.00     0.210 HD
ATOM     20  C6  NAG d 904      18.214  -9.654  32.674  0.00  0.00     0.043 C 
ATOM     21  O6  NAG d 904      18.452  -9.431  31.223  0.00  0.00    -0.398 OA
ATOM     22  O3  NAG d 904      17.116 -14.409  31.803  0.00  0.00    -0.348 OA
ATOM     23  C2  NAG d 904      15.276 -12.807  31.882  0.00  0.00     0.087 C 
ATOM     24  O4  NAG d 904      19.046 -12.428  32.778  0.00  0.00    -0.390 OA
ATOM     25  C3  NAG d 904      16.679 -13.215  32.484  0.00  0.00     0.093 C 
ATOM     26  C1  NAG d 904      14.801 -11.544  32.568  0.00  0.00     0.151 C 
ATOM     27  C7  NAG d 904      13.203 -14.291  31.020  0.00  0.00     0.214 C 
ATOM     28  N2  NAG d 904      14.195 -13.903  32.053  0.00  0.00    -0.349 N 
ATOM     29  C5  NAG d 904      17.229 -10.813  32.929  0.00  0.00     0.089 C 
ATOM     30  O5  NAG d 904      15.851 -10.454  32.390  0.00  0.00    -0.349 OA
ATOM     31  C8  NAG d 904      13.230 -13.537  29.676  0.00  0.00    -0.003 C 
ATOM     32  O7  NAG d 904      12.362 -15.198  31.211  0.00  0.00    -0.274 OA
ATOM     33  O1  NAG d 904      13.489 -11.176  32.023  0.00  0.00    -0.369 OA
ATOM     34  C4  NAG d 904      17.723 -12.076  32.243  0.00  0.00     0.089 C 
ATOM     35  H   NAG d 904      19.147  -9.885  33.145  0.00  0.00     0.078 H 
ATOM     36  H   NAG d 904      17.785  -8.762  33.079  0.00  0.00     0.078 H 
ATOM     37  H   NAG d 904      18.842 -10.228  30.833  0.00  0.00     0.209 HD
ATOM     38  H   NAG d 904      15.414 -12.661  30.831  0.00  0.00     0.084 H 
ATOM     39  H   NAG d 904      19.366 -13.234  32.342  0.00  0.00     0.210 HD
ATOM     40  H   NAG d 904      16.593 -13.381  33.538  0.00  0.00     0.091 H 
ATOM     41  H   NAG d 904      14.679 -11.691  33.621  0.00  0.00     0.132 H 
ATOM     42  H   NAG d 904      14.164 -14.380  32.914  0.00  0.00     0.163 HD
ATOM     43  H   NAG d 904      17.166 -10.982  33.984  0.00  0.00     0.090 H 
ATOM     44  H   NAG d 904      14.009 -12.803  29.694  0.00  0.00     0.040 H 
ATOM     45  H   NAG d 904      12.288 -13.052  29.520  0.00  0.00     0.040 H 
ATOM     46  H   NAG d 904      13.411 -14.230  28.881  0.00  0.00     0.040 H 
ATOM     47  H   NAG d 904      13.565 -11.035  31.066  0.00  0.00     0.212 HD
ATOM     48  H   NAG d 904      17.823 -11.928  31.188  0.00  0.00     0.091 H 
ENDROOT
TORSDOF 11
ENDMDL
MODEL 44
REMARK VINA RESULT:      -6.0      2.057      6.120
REMARK  0 active torsions:
REMARK  status: ('A' for Active; 'I' for Inactive)
REMARK       I    between atoms: O2_1  and  C2_13 
REMARK       I    between atoms: C6_2  and  C5_7 
REMARK       I    between atoms: C6_4  and  C5_18 
REMARK       I    between atoms: C6_4  and  O6_5 
REMARK       I    between atoms: O3_6  and  C1_24 
REMARK       I    between atoms: O3_6  and  C3_11 
REMARK       I    between atoms: C2_8  and  N2_16 
REMARK       I    between atoms: O4_10  and  C4_25 
REMARK       I    between atoms: C3_12  and  O3_26 
REMARK       I    between atoms: C1_14  and  O1_23 
REMARK       I    between atoms: C7_15  and  C8_21 
REMARK       I    between atoms: C7_15  and  N2_16 
ROOT
ATOM      1  O2  GCD d 903      18.992 -12.951  33.828  0.00  0.00    -0.388 OA
ATOM      2  C6  GCD d 903      13.865 -14.335  31.241  0.00  0.00     0.203 C 
ATOM      3  O6B GCD d 903      13.915 -15.562  31.182  0.00  0.00    -0.646 OA
ATOM      4  C5  GCD d 903      15.128 -13.837  32.010  0.00  0.00     0.127 C 
ATOM      5  C4  GCD d 903      15.381 -12.541  32.190  0.00  0.00    -0.005 C 
ATOM      6  C3  GCD d 903      16.640 -12.272  32.968  0.00  0.00     0.068 C 
ATOM      7  C2  GCD d 903      17.825 -13.322  32.993  0.00  0.00     0.107 C 
ATOM      8  O6A GCD d 903      13.035 -13.421  30.702  0.00  0.00    -0.646 OA
ATOM      9  O5  GCD d 903      15.963 -14.999  32.490  0.00  0.00    -0.343 OA
ATOM     10  C1  GCD d 903      17.134 -14.672  33.376  0.00  0.00     0.159 C 
ATOM     11  O3  GCD d 903      17.271 -11.031  32.596  0.00  0.00    -0.393 OA
ATOM     12  H   GCD d 903      19.354 -12.106  33.519  0.00  0.00     0.210 HD
ATOM     13  H   GCD d 903      15.638 -12.945  32.311  0.00  0.00     0.100 H 
ATOM     14  H   GCD d 903      14.559 -12.107  32.718  0.00  0.00     0.041 H 
ATOM     15  H   GCD d 903      15.516 -12.112  31.219  0.00  0.00     0.041 H 
ATOM     16  H   GCD d 903      16.192 -12.296  33.940  0.00  0.00     0.087 H 
ATOM     17  H   GCD d 903      18.309 -13.383  32.041  0.00  0.00     0.094 H 
ATOM     18  H   GCD d 903      16.912 -14.555  34.416  0.00  0.00     0.133 H 
ATOM     19  H   GCD d 903      17.643 -11.113  31.704  0.00  0.00     0.210 HD
ATOM     20  C6  NAG d 904      17.157 -20.656  32.396  0.00  0.00     0.043 C 
ATOM     21  O6  NAG d 904      17.780 -20.614  31.046  0.00  0.00    -0.398 OA
ATOM     22  O3  NAG d 904      17.974 -15.800  32.966  0.00  0.00    -0.348 OA
ATOM     23  C2  NAG d 904      19.647 -17.350  33.835  0.00  0.00     0.087 C 
ATOM     24  O4  NAG d 904      16.079 -17.966  32.405  0.00  0.00    -0.390 OA
ATOM     25  C3  NAG d 904      18.106 -17.089  33.600  0.00  0.00     0.093 C 
ATOM     26  C1  NAG d 904      19.817 -18.707  34.484  0.00  0.00     0.151 C 
ATOM     27  C7  NAG d 904      21.659 -15.690  34.499  0.00  0.00     0.214 C 
ATOM     28  N2  NAG d 904      20.318 -16.281  34.733  0.00  0.00    -0.349 N 
ATOM     29  C5  NAG d 904      17.695 -19.543  33.318  0.00  0.00     0.089 C 
ATOM     30  O5  NAG d 904      19.175 -19.768  33.598  0.00  0.00    -0.349 OA
ATOM     31  C8  NAG d 904      22.462 -16.186  33.280  0.00  0.00    -0.003 C 
ATOM     32  O7  NAG d 904      22.143 -14.817  35.254  0.00  0.00    -0.274 OA
ATOM     33  O1  NAG d 904      21.247 -18.942  34.721  0.00  0.00    -0.369 OA
ATOM     34  C4  NAG d 904      17.510 -18.186  32.659  0.00  0.00     0.089 C 
ATOM     35  H   NAG d 904      16.099 -20.535  32.292  0.00  0.00     0.078 H 
ATOM     36  H   NAG d 904      17.398 -21.598  32.841  0.00  0.00     0.078 H 
ATOM     37  H   NAG d 904      17.575 -19.767  30.621  0.00  0.00     0.209 HD
ATOM     38  H   NAG d 904      20.125 -17.304  32.879  0.00  0.00     0.084 H 
ATOM     39  H   NAG d 904      15.955 -17.101  31.984  0.00  0.00     0.210 HD
ATOM     40  H   NAG d 904      17.582 -17.118  34.532  0.00  0.00     0.091 H 
ATOM     41  H   NAG d 904      19.325 -18.753  35.434  0.00  0.00     0.132 H 
ATOM     42  H   NAG d 904      19.816 -15.970  35.521  0.00  0.00     0.163 HD
ATOM     43  H   NAG d 904      17.150 -19.569  34.239  0.00  0.00     0.090 H 
ATOM     44  H   NAG d 904      21.894 -16.926  32.756  0.00  0.00     0.040 H 
ATOM     45  H   NAG d 904      23.385 -16.613  33.611  0.00  0.00     0.040 H 
ATOM     46  H   NAG d 904      22.664 -15.362  32.627  0.00  0.00     0.040 H 
ATOM     47  H   NAG d 904      21.723 -18.906  33.878  0.00  0.00     0.212 HD
ATOM     48  H   NAG d 904      18.021 -18.140  31.720  0.00  0.00     0.091 H 
ENDROOT
TORSDOF 11
ENDMDL
MODEL 45
REMARK VINA RESULT:      -6.0      2.556      5.253
REMARK  0 active torsions:
REMARK  status: ('A' for Active; 'I' for Inactive)
REMARK       I    between atoms: O2_1  and  C2_13 
REMARK       I    between atoms: C6_2  and  C5_7 
REMARK       I    between atoms: C6_4  and  C5_18 
REMARK       I    between atoms: C6_4  and  O6_5 
REMARK       I    between atoms: O3_6  and  C1_24 
REMARK       I    between atoms: O3_6  and  C3_11 
REMARK       I    between atoms: C2_8  and  N2_16 
REMARK       I    between atoms: O4_10  and  C4_25 
REMARK       I    between atoms: C3_12  and  O3_26 
REMARK       I    between atoms: C1_14  and  O1_23 
REMARK       I    between atoms: C7_15  and  C8_21 
REMARK       I    between atoms: C7_15  and  N2_16 
ROOT
ATOM      1  O2  GCD d 903      21.603 -14.752  32.321  0.00  0.00    -0.388 OA
ATOM      2  C6  GCD d 903      22.607 -20.572  32.227  0.00  0.00     0.203 C 
ATOM      3  O6B GCD d 903      21.478 -21.038  32.081  0.00  0.00    -0.646 OA
ATOM      4  C5  GCD d 903      22.499 -19.017  32.162  0.00  0.00     0.127 C 
ATOM      5  C4  GCD d 903      23.556 -18.227  32.339  0.00  0.00    -0.005 C 
ATOM      6  C3  GCD d 903      23.243 -16.761  32.223  0.00  0.00     0.068 C 
ATOM      7  C2  GCD d 903      21.785 -16.211  32.509  0.00  0.00     0.107 C 
ATOM      8  O6A GCD d 903      23.799 -21.125  32.523  0.00  0.00    -0.646 OA
ATOM      9  O5  GCD d 903      21.081 -18.585  31.876  0.00  0.00    -0.343 OA
ATOM     10  C1  GCD d 903      20.856 -17.117  31.636  0.00  0.00     0.159 C 
ATOM     11  O3  GCD d 903      24.100 -15.940  33.040  0.00  0.00    -0.393 OA
ATOM     12  H   GCD d 903      22.217 -14.273  32.899  0.00  0.00     0.210 HD
ATOM     13  H   GCD d 903      23.079 -18.124  32.267  0.00  0.00     0.100 H 
ATOM     14  H   GCD d 903      24.290 -18.475  31.602  0.00  0.00     0.041 H 
ATOM     15  H   GCD d 903      23.906 -18.393  33.337  0.00  0.00     0.041 H 
ATOM     16  H   GCD d 903      23.394 -16.686  31.165  0.00  0.00     0.087 H 
ATOM     17  H   GCD d 903      21.542 -16.281  33.548  0.00  0.00     0.094 H 
ATOM     18  H   GCD d 903      21.036 -16.775  30.638  0.00  0.00     0.133 H 
ATOM     19  H   GCD d 903      23.885 -16.080  33.976  0.00  0.00     0.210 HD
ATOM     20  C6  NAG d 904      15.463 -19.882  31.446  0.00  0.00     0.043 C 
ATOM     21  O6  NAG d 904      15.260 -19.982  32.916  0.00  0.00    -0.398 OA
ATOM     22  O3  NAG d 904      19.485 -17.072  32.150  0.00  0.00    -0.348 OA
ATOM     23  C2  NAG d 904      17.349 -15.943  31.800  0.00  0.00     0.087 C 
ATOM     24  O4  NAG d 904      18.354 -19.690  31.468  0.00  0.00    -0.390 OA
ATOM     25  C3  NAG d 904      18.251 -17.181  31.411  0.00  0.00     0.093 C 
ATOM     26  C1  NAG d 904      16.038 -16.042  31.050  0.00  0.00     0.151 C 
ATOM     27  C7  NAG d 904      17.971 -13.383  32.350  0.00  0.00     0.214 C 
ATOM     28  N2  NAG d 904      18.008 -14.580  31.473  0.00  0.00    -0.349 N 
ATOM     29  C5  NAG d 904      16.218 -18.597  31.049  0.00  0.00     0.089 C 
ATOM     30  O5  NAG d 904      15.374 -17.373  31.380  0.00  0.00    -0.349 OA
ATOM     31  C8  NAG d 904      17.203 -13.489  33.682  0.00  0.00    -0.003 C 
ATOM     32  O7  NAG d 904      18.536 -12.311  32.037  0.00  0.00    -0.274 OA
ATOM     33  O1  NAG d 904      15.207 -14.882  31.397  0.00  0.00    -0.369 OA
ATOM     34  C4  NAG d 904      17.536 -18.515  31.802  0.00  0.00     0.089 C 
ATOM     35  H   NAG d 904      16.028 -20.729  31.117  0.00  0.00     0.078 H 
ATOM     36  H   NAG d 904      14.499 -19.855  30.981  0.00  0.00     0.078 H 
ATOM     37  H   NAG d 904      16.121 -20.008  33.360  0.00  0.00     0.209 HD
ATOM     38  H   NAG d 904      17.205 -15.978  32.860  0.00  0.00     0.084 H 
ATOM     39  H   NAG d 904      19.197 -19.643  31.946  0.00  0.00     0.210 HD
ATOM     40  H   NAG d 904      18.431 -17.187  30.356  0.00  0.00     0.091 H 
ATOM     41  H   NAG d 904      16.188 -16.021  29.991  0.00  0.00     0.132 H 
ATOM     42  H   NAG d 904      18.489 -14.502  30.617  0.00  0.00     0.163 HD
ATOM     43  H   NAG d 904      16.409 -18.624  29.997  0.00  0.00     0.090 H 
ATOM     44  H   NAG d 904      16.789 -14.471  33.778  0.00  0.00     0.040 H 
ATOM     45  H   NAG d 904      16.414 -12.766  33.698  0.00  0.00     0.040 H 
ATOM     46  H   NAG d 904      17.873 -13.303  34.496  0.00  0.00     0.040 H 
ATOM     47  H   NAG d 904      15.052 -14.871  32.354  0.00  0.00     0.212 HD
ATOM     48  H   NAG d 904      17.376 -18.516  32.860  0.00  0.00     0.091 H 
ENDROOT
TORSDOF 11
ENDMDL
MODEL 46
REMARK VINA RESULT:      -6.0      2.763      6.295
REMARK  0 active torsions:
REMARK  status: ('A' for Active; 'I' for Inactive)
REMARK       I    between atoms: O2_1  and  C2_13 
REMARK       I    between atoms: C6_2  and  C5_7 
REMARK       I    between atoms: C6_4  and  C5_18 
REMARK       I    between atoms: C6_4  and  O6_5 
REMARK       I    between atoms: O3_6  and  C1_24 
REMARK       I    between atoms: O3_6  and  C3_11 
REMARK       I    between atoms: C2_8  and  N2_16 
REMARK       I    between atoms: O4_10  and  C4_25 
REMARK       I    between atoms: C3_12  and  O3_26 
REMARK       I    between atoms: C1_14  and  O1_23 
REMARK       I    between atoms: C7_15  and  C8_21 
REMARK       I    between atoms: C7_15  and  N2_16 
ROOT
ATOM      1  O2  GCD d 903      18.723 -11.715  33.287  0.00  0.00    -0.388 OA
ATOM      2  C6  GCD d 903      15.889 -16.505  31.310  0.00  0.00     0.203 C 
ATOM      3  O6B GCD d 903      16.793 -17.331  31.207  0.00  0.00    -0.646 OA
ATOM      4  C5  GCD d 903      16.489 -15.206  31.932  0.00  0.00     0.127 C 
ATOM      5  C4  GCD d 903      15.758 -14.109  32.119  0.00  0.00    -0.005 C 
ATOM      6  C3  GCD d 903      16.519 -12.972  32.744  0.00  0.00     0.068 C 
ATOM      7  C2  GCD d 903      18.092 -12.861  32.591  0.00  0.00     0.107 C 
ATOM      8  O6A GCD d 903      14.603 -16.493  30.906  0.00  0.00    -0.646 OA
ATOM      9  O5  GCD d 903      17.948 -15.393  32.270  0.00  0.00    -0.343 OA
ATOM     10  C1  GCD d 903      18.619 -14.271  33.014  0.00  0.00     0.159 C 
ATOM     11  O3  GCD d 903      16.029 -11.681  32.336  0.00  0.00    -0.393 OA
ATOM     12  H   GCD d 903      18.337 -10.887  32.962  0.00  0.00     0.210 HD
ATOM     13  H   GCD d 903      16.237 -14.200  32.195  0.00  0.00     0.100 H 
ATOM     14  H   GCD d 903      14.936 -14.356  32.758  0.00  0.00     0.041 H 
ATOM     15  H   GCD d 903      15.439 -13.777  31.153  0.00  0.00     0.041 H 
ATOM     16  H   GCD d 903      16.332 -13.243  33.763  0.00  0.00     0.087 H 
ATOM     17  H   GCD d 903      18.367 -12.622  31.585  0.00  0.00     0.094 H 
ATOM     18  H   GCD d 903      18.495 -14.277  34.077  0.00  0.00     0.133 H 
ATOM     19  H   GCD d 903      16.249 -11.532  31.403  0.00  0.00     0.210 HD
ATOM     20  C6  NAG d 904      22.805 -18.503  31.856  0.00  0.00     0.043 C 
ATOM     21  O6  NAG d 904      23.060 -18.120  30.442  0.00  0.00    -0.398 OA
ATOM     22  O3  NAG d 904      19.962 -14.489  32.470  0.00  0.00    -0.348 OA
ATOM     23  C2  NAG d 904      22.320 -14.323  33.079  0.00  0.00     0.087 C 
ATOM     24  O4  NAG d 904      20.139 -17.389  32.080  0.00  0.00    -0.390 OA
ATOM     25  C3  NAG d 904      21.043 -15.254  33.043  0.00  0.00     0.093 C 
ATOM     26  C1  NAG d 904      23.477 -15.108  33.660  0.00  0.00     0.151 C 
ATOM     27  C7  NAG d 904      22.596 -11.686  33.540  0.00  0.00     0.214 C 
ATOM     28  N2  NAG d 904      22.117 -13.039  33.920  0.00  0.00    -0.349 N 
ATOM     29  C5  NAG d 904      22.481 -17.281  32.739  0.00  0.00     0.089 C 
ATOM     30  O5  NAG d 904      23.695 -16.365  32.827  0.00  0.00    -0.349 OA
ATOM     31  C8  NAG d 904      23.374 -11.542  32.217  0.00  0.00    -0.003 C 
ATOM     32  O7  NAG d 904      22.388 -10.681  34.256  0.00  0.00    -0.274 OA
ATOM     33  O1  NAG d 904      24.658 -14.238  33.712  0.00  0.00    -0.369 OA
ATOM     34  C4  NAG d 904      21.313 -16.508  32.149  0.00  0.00     0.089 C 
ATOM     35  H   NAG d 904      21.976 -19.179  31.886  0.00  0.00     0.078 H 
ATOM     36  H   NAG d 904      23.693 -18.960  32.239  0.00  0.00     0.078 H 
ATOM     37  H   NAG d 904      22.268 -17.702  30.072  0.00  0.00     0.209 HD
ATOM     38  H   NAG d 904      22.514 -14.014  32.073  0.00  0.00     0.084 H 
ATOM     39  H   NAG d 904      19.390 -16.901  31.704  0.00  0.00     0.210 HD
ATOM     40  H   NAG d 904      20.802 -15.584  34.031  0.00  0.00     0.091 H 
ATOM     41  H   NAG d 904      23.272 -15.427  34.661  0.00  0.00     0.132 H 
ATOM     42  H   NAG d 904      21.633 -13.126  34.773  0.00  0.00     0.163 HD
ATOM     43  H   NAG d 904      22.223 -17.625  33.719  0.00  0.00     0.090 H 
ATOM     44  H   NAG d 904      23.454 -12.499  31.745  0.00  0.00     0.040 H 
ATOM     45  H   NAG d 904      24.354 -11.162  32.419  0.00  0.00     0.040 H 
ATOM     46  H   NAG d 904      22.855 -10.866  31.570  0.00  0.00     0.040 H 
ATOM     47  H   NAG d 904      24.872 -13.930  32.817  0.00  0.00     0.212 HD
ATOM     48  H   NAG d 904      21.532 -16.174  31.156  0.00  0.00     0.091 H 
ENDROOT
TORSDOF 11
ENDMDL
MODEL 47
REMARK VINA RESULT:      -6.0      3.167      8.283
REMARK  0 active torsions:
REMARK  status: ('A' for Active; 'I' for Inactive)
REMARK       I    between atoms: O2_1  and  C2_13 
REMARK       I    between atoms: C6_2  and  C5_7 
REMARK       I    between atoms: C6_4  and  C5_18 
REMARK       I    between atoms: C6_4  and  O6_5 
REMARK       I    between atoms: O3_6  and  C1_24 
REMARK       I    between atoms: O3_6  and  C3_11 
REMARK       I    between atoms: C2_8  and  N2_16 
REMARK       I    between atoms: O4_10  and  C4_25 
REMARK       I    between atoms: C3_12  and  O3_26 
REMARK       I    between atoms: C1_14  and  O1_23 
REMARK       I    between atoms: C7_15  and  C8_21 
REMARK       I    between atoms: C7_15  and  N2_16 
ROOT
ATOM      1  O2  GCD d 903      17.587 -14.614  31.493  0.00  0.00    -0.388 OA
ATOM      2  C6  GCD d 903      23.184 -13.064  32.574  0.00  0.00     0.203 C 
ATOM      3  O6B GCD d 903      23.739 -14.150  32.731  0.00  0.00    -0.646 OA
ATOM      4  C5  GCD d 903      21.700 -13.334  32.171  0.00  0.00     0.127 C 
ATOM      5  C4  GCD d 903      20.828 -12.346  31.982  0.00  0.00    -0.005 C 
ATOM      6  C3  GCD d 903      19.456 -12.816  31.585  0.00  0.00     0.068 C 
ATOM      7  C2  GCD d 903      18.943 -14.262  31.978  0.00  0.00     0.107 C 
ATOM      8  O6A GCD d 903      23.574 -11.792  32.784  0.00  0.00    -0.646 OA
ATOM      9  O5  GCD d 903      21.438 -14.815  32.036  0.00  0.00    -0.343 OA
ATOM     10  C1  GCD d 903      20.088 -15.217  31.507  0.00  0.00     0.159 C 
ATOM     11  O3  GCD d 903      18.411 -11.933  32.036  0.00  0.00    -0.393 OA
ATOM     12  H   GCD d 903      16.945 -13.972  31.834  0.00  0.00     0.210 HD
ATOM     13  H   GCD d 903      20.775 -12.836  31.969  0.00  0.00     0.100 H 
ATOM     14  H   GCD d 903      21.203 -11.708  31.209  0.00  0.00     0.041 H 
ATOM     15  H   GCD d 903      20.725 -11.837  32.918  0.00  0.00     0.041 H 
ATOM     16  H   GCD d 903      19.631 -12.833  30.529  0.00  0.00     0.087 H 
ATOM     17  H   GCD d 903      18.772 -14.340  33.031  0.00  0.00     0.094 H 
ATOM     18  H   GCD d 903      19.989 -15.222  30.441  0.00  0.00     0.133 H 
ATOM     19  H   GCD d 903      18.332 -11.991  33.001  0.00  0.00     0.210 HD
ATOM     20  C6  NAG d 904      23.139 -20.278  32.868  0.00  0.00     0.043 C 
ATOM     21  O6  NAG d 904      22.890 -20.249  34.334  0.00  0.00    -0.398 OA
ATOM     22  O3  NAG d 904      20.003 -16.494  32.220  0.00  0.00    -0.348 OA
ATOM     23  C2  NAG d 904      19.124 -18.759  31.983  0.00  0.00     0.087 C 
ATOM     24  O4  NAG d 904      22.771 -17.449  32.358  0.00  0.00    -0.390 OA
ATOM     25  C3  NAG d 904      20.363 -17.807  31.744  0.00  0.00     0.093 C 
ATOM     26  C1  NAG d 904      19.482 -20.151  31.508  0.00  0.00     0.151 C 
ATOM     27  C7  NAG d 904      16.475 -18.319  31.816  0.00  0.00     0.214 C 
ATOM     28  N2  NAG d 904      17.844 -18.294  31.246  0.00  0.00    -0.349 N 
ATOM     29  C5  NAG d 904      21.945 -19.721  32.065  0.00  0.00     0.089 C 
ATOM     30  O5  NAG d 904      20.731 -20.623  32.242  0.00  0.00    -0.349 OA
ATOM     31  C8  NAG d 904      16.300 -18.865  33.247  0.00  0.00    -0.003 C 
ATOM     32  O7  NAG d 904      15.479 -17.915  31.175  0.00  0.00    -0.274 OA
ATOM     33  O1  NAG d 904      18.325 -21.031  31.713  0.00  0.00    -0.369 OA
ATOM     34  C4  NAG d 904      21.603 -18.320  32.546  0.00  0.00     0.089 C 
ATOM     35  H   NAG d 904      24.004 -19.687  32.652  0.00  0.00     0.078 H 
ATOM     36  H   NAG d 904      23.283 -21.298  32.578  0.00  0.00     0.078 H 
ATOM     37  H   NAG d 904      22.755 -19.332  34.620  0.00  0.00     0.209 HD
ATOM     38  H   NAG d 904      18.909 -18.739  33.032  0.00  0.00     0.084 H 
ATOM     39  H   NAG d 904      22.559 -16.553  32.664  0.00  0.00     0.210 HD
ATOM     40  H   NAG d 904      20.614 -17.786  30.704  0.00  0.00     0.091 H 
ATOM     41  H   NAG d 904      19.711 -20.163  30.463  0.00  0.00     0.132 H 
ATOM     42  H   NAG d 904      17.947 -17.957  30.326  0.00  0.00     0.163 HD
ATOM     43  H   NAG d 904      22.215 -19.687  31.030  0.00  0.00     0.090 H 
ATOM     44  H   NAG d 904      17.252 -19.161  33.635  0.00  0.00     0.040 H 
ATOM     45  H   NAG d 904      15.644 -19.711  33.228  0.00  0.00     0.040 H 
ATOM     46  H   NAG d 904      15.881 -18.103  33.871  0.00  0.00     0.040 H 
ATOM     47  H   NAG d 904      18.091 -21.043  32.653  0.00  0.00     0.212 HD
ATOM     48  H   NAG d 904      21.356 -18.320  33.587  0.00  0.00     0.091 H 
ENDROOT
TORSDOF 11
ENDMDL
MODEL 48
REMARK VINA RESULT:      -5.8      2.624      6.341
REMARK  0 active torsions:
REMARK  status: ('A' for Active; 'I' for Inactive)
REMARK       I    between atoms: O2_1  and  C2_13 
REMARK       I    between atoms: C6_2  and  C5_7 
REMARK       I    between atoms: C6_4  and  C5_18 
REMARK       I    between atoms: C6_4  and  O6_5 
REMARK       I    between atoms: O3_6  and  C1_24 
REMARK       I    between atoms: O3_6  and  C3_11 
REMARK       I    between atoms: C2_8  and  N2_16 
REMARK       I    between atoms: O4_10  and  C4_25 
REMARK       I    between atoms: C3_12  and  O3_26 
REMARK       I    between atoms: C1_14  and  O1_23 
REMARK       I    between atoms: C7_15  and  C8_21 
REMARK       I    between atoms: C7_15  and  N2_16 
ROOT
ATOM      1  O2  GCD d 903      19.758 -13.453  32.091  0.00  0.00    -0.388 OA
ATOM      2  C6  GCD d 903      23.642 -17.853  32.751  0.00  0.00     0.203 C 
ATOM      3  O6B GCD d 903      22.933 -18.854  32.669  0.00  0.00    -0.646 OA
ATOM      4  C5  GCD d 903      22.747 -16.603  32.484  0.00  0.00     0.127 C 
ATOM      5  C4  GCD d 903      23.225 -15.363  32.556  0.00  0.00    -0.005 C 
ATOM      6  C3  GCD d 903      22.205 -14.301  32.251  0.00  0.00     0.068 C 
ATOM      7  C2  GCD d 903      20.659 -14.568  32.466  0.00  0.00     0.107 C 
ATOM      8  O6A GCD d 903      24.926 -17.662  33.113  0.00  0.00    -0.646 OA
ATOM      9  O5  GCD d 903      21.334 -17.013  32.148  0.00  0.00    -0.343 OA
ATOM     10  C1  GCD d 903      20.395 -15.917  31.721  0.00  0.00     0.159 C 
ATOM     11  O3  GCD d 903      22.454 -13.068  32.953  0.00  0.00    -0.393 OA
ATOM     12  H   GCD d 903      19.994 -12.662  32.601  0.00  0.00     0.210 HD
ATOM     13  H   GCD d 903      22.770 -15.534  32.472  0.00  0.00     0.100 H 
ATOM     14  H   GCD d 903      24.029 -15.270  31.855  0.00  0.00     0.041 H 
ATOM     15  H   GCD d 903      23.544 -15.209  33.566  0.00  0.00     0.041 H 
ATOM     16  H   GCD d 903      22.364 -14.277  31.192  0.00  0.00     0.087 H 
ATOM     17  H   GCD d 903      20.419 -14.638  33.506  0.00  0.00     0.094 H 
ATOM     18  H   GCD d 903      20.437 -15.646  30.686  0.00  0.00     0.133 H 
ATOM     19  H   GCD d 903      22.282 -13.195  33.899  0.00  0.00     0.210 HD
ATOM     20  C6  NAG d 904      17.249 -21.099  31.902  0.00  0.00     0.043 C 
ATOM     21  O6  NAG d 904      17.031 -21.124  33.373  0.00  0.00    -0.398 OA
ATOM     22  O3  NAG d 904      19.170 -16.540  32.227  0.00  0.00    -0.348 OA
ATOM     23  C2  NAG d 904      16.787 -16.744  31.738  0.00  0.00     0.087 C 
ATOM     24  O4  NAG d 904      19.611 -19.419  31.893  0.00  0.00    -0.390 OA
ATOM     25  C3  NAG d 904      18.224 -17.361  31.511  0.00  0.00     0.093 C 
ATOM     26  C1  NAG d 904      15.771 -17.598  31.010  0.00  0.00     0.151 C 
ATOM     27  C7  NAG d 904      15.951 -14.195  31.950  0.00  0.00     0.214 C 
ATOM     28  N2  NAG d 904      16.662 -15.284  31.236  0.00  0.00    -0.349 N 
ATOM     29  C5  NAG d 904      17.251 -19.662  31.340  0.00  0.00     0.089 C 
ATOM     30  O5  NAG d 904      15.875 -19.033  31.511  0.00  0.00    -0.349 OA
ATOM     31  C8  NAG d 904      15.264 -14.538  33.286  0.00  0.00    -0.003 C 
ATOM     32  O7  NAG d 904      15.896 -13.028  31.500  0.00  0.00    -0.274 OA
ATOM     33  O1  NAG d 904      14.438 -17.014  31.205  0.00  0.00    -0.369 OA
ATOM     34  C4  NAG d 904      18.282 -18.819  32.074  0.00  0.00     0.089 C 
ATOM     35  H   NAG d 904      18.193 -21.555  31.684  0.00  0.00     0.078 H 
ATOM     36  H   NAG d 904      16.445 -21.631  31.440  0.00  0.00     0.078 H 
ATOM     37  H   NAG d 904      17.750 -20.646  33.815  0.00  0.00     0.209 HD
ATOM     38  H   NAG d 904      16.612 -16.731  32.794  0.00  0.00     0.084 H 
ATOM     39  H   NAG d 904      20.273 -18.885  32.359  0.00  0.00     0.210 HD
ATOM     40  H   NAG d 904      18.451 -17.389  30.466  0.00  0.00     0.091 H 
ATOM     41  H   NAG d 904      15.958 -17.620  29.957  0.00  0.00     0.132 H 
ATOM     42  H   NAG d 904      17.087 -15.062  30.376  0.00  0.00     0.163 HD
ATOM     43  H   NAG d 904      17.498 -19.701  30.300  0.00  0.00     0.090 H 
ATOM     44  H   NAG d 904      15.414 -15.573  33.510  0.00  0.00     0.040 H 
ATOM     45  H   NAG d 904      14.215 -14.339  33.209  0.00  0.00     0.040 H 
ATOM     46  H   NAG d 904      15.684 -13.939  34.067  0.00  0.00     0.040 H 
ATOM     47  H   NAG d 904      14.236 -16.979  32.153  0.00  0.00     0.212 HD
ATOM     48  H   NAG d 904      18.076 -18.784  33.123  0.00  0.00     0.091 H 
ENDROOT
TORSDOF 11
ENDMDL
MODEL 49
REMARK VINA RESULT:      -5.7      2.748      6.113
REMARK  0 active torsions:
REMARK  status: ('A' for Active; 'I' for Inactive)
REMARK       I    between atoms: O2_1  and  C2_13 
REMARK       I    between atoms: C6_2  and  C5_7 
REMARK       I    between atoms: C6_4  and  C5_18 
REMARK       I    between atoms: C6_4  and  O6_5 
REMARK       I    between atoms: O3_6  and  C1_24 
REMARK       I    between atoms: O3_6  and  C3_11 
REMARK       I    between atoms: C2_8  and  N2_16 
REMARK       I    between atoms: O4_10  and  C4_25 
REMARK       I    between atoms: C3_12  and  O3_26 
REMARK       I    between atoms: C1_14  and  O1_23 
REMARK       I    between atoms: C7_15  and  C8_21 
REMARK       I    between atoms: C7_15  and  N2_16 
ROOT
ATOM      1  O2  GCD d 903      17.634 -14.931  32.473  0.00  0.00    -0.388 OA
ATOM      2  C6  GCD d 903      22.371 -18.107  30.935  0.00  0.00     0.203 C 
ATOM      3  O6B GCD d 903      23.293 -17.308  31.089  0.00  0.00    -0.646 OA
ATOM      4  C5  GCD d 903      21.053 -17.421  31.414  0.00  0.00     0.127 C 
ATOM      5  C4  GCD d 903      19.869 -18.024  31.323  0.00  0.00    -0.005 C 
ATOM      6  C3  GCD d 903      18.728 -17.201  31.852  0.00  0.00     0.068 C 
ATOM      7  C2  GCD d 903      18.811 -15.620  31.893  0.00  0.00     0.107 C 
ATOM      8  O6A GCD d 903      22.295 -19.326  30.367  0.00  0.00    -0.646 OA
ATOM      9  O5  GCD d 903      21.331 -16.045  31.969  0.00  0.00    -0.343 OA
ATOM     10  C1  GCD d 903      20.172 -15.326  32.605  0.00  0.00     0.159 C 
ATOM     11  O3  GCD d 903      17.484 -17.474  31.179  0.00  0.00    -0.393 OA
ATOM     12  H   GCD d 903      16.840 -15.171  31.970  0.00  0.00     0.210 HD
ATOM     13  H   GCD d 903      19.996 -17.573  31.476  0.00  0.00     0.100 H 
ATOM     14  H   GCD d 903      19.912 -18.938  31.878  0.00  0.00     0.041 H 
ATOM     15  H   GCD d 903      19.682 -18.187  30.282  0.00  0.00     0.041 H 
ATOM     16  H   GCD d 903      18.794 -17.535  32.867  0.00  0.00     0.087 H 
ATOM     17  H   GCD d 903      18.783 -15.204  30.908  0.00  0.00     0.094 H 
ATOM     18  H   GCD d 903      19.979 -15.570  33.629  0.00  0.00     0.133 H 
ATOM     19  H   GCD d 903      17.525 -17.133  30.271  0.00  0.00     0.210 HD
ATOM     20  C6  NAG d 904      24.960 -11.606  32.713  0.00  0.00     0.043 C 
ATOM     21  O6  NAG d 904      24.860 -11.145  31.302  0.00  0.00    -0.398 OA
ATOM     22  O3  NAG d 904      20.623 -13.969  32.287  0.00  0.00    -0.348 OA
ATOM     23  C2  NAG d 904      20.602 -11.693  33.169  0.00  0.00     0.087 C 
ATOM     24  O4  NAG d 904      23.549 -14.117  32.398  0.00  0.00    -0.390 OA
ATOM     25  C3  NAG d 904      21.385 -13.065  33.114  0.00  0.00     0.093 C 
ATOM     26  C1  NAG d 904      21.390 -10.718  34.018  0.00  0.00     0.151 C 
ATOM     27  C7  NAG d 904      17.970 -11.140  33.232  0.00  0.00     0.214 C 
ATOM     28  N2  NAG d 904      19.176 -11.826  33.757  0.00  0.00    -0.349 N 
ATOM     29  C5  NAG d 904      23.574 -11.870  33.336  0.00  0.00     0.089 C 
ATOM     30  O5  NAG d 904      22.790 -10.568  33.436  0.00  0.00    -0.349 OA
ATOM     31  C8  NAG d 904      18.143 -10.205  32.018  0.00  0.00    -0.003 C 
ATOM     32  O7  NAG d 904      16.837 -11.298  33.742  0.00  0.00    -0.274 OA
ATOM     33  O1  NAG d 904      20.654  -9.450  34.086  0.00  0.00    -0.369 OA
ATOM     34  C4  NAG d 904      22.798 -12.857  32.479  0.00  0.00     0.089 C 
ATOM     35  H   NAG d 904      25.528 -12.511  32.742  0.00  0.00     0.078 H 
ATOM     36  H   NAG d 904      25.433 -10.832  33.280  0.00  0.00     0.078 H 
ATOM     37  H   NAG d 904      24.433 -11.832  30.767  0.00  0.00     0.209 HD
ATOM     38  H   NAG d 904      20.497 -11.349  32.161  0.00  0.00     0.084 H 
ATOM     39  H   NAG d 904      23.058 -14.751  31.851  0.00  0.00     0.210 HD
ATOM     40  H   NAG d 904      21.509 -13.457  34.102  0.00  0.00     0.091 H 
ATOM     41  H   NAG d 904      21.504 -11.074  35.021  0.00  0.00     0.132 H 
ATOM     42  H   NAG d 904      19.060 -12.411  34.541  0.00  0.00     0.163 HD
ATOM     43  H   NAG d 904      23.711 -12.279  34.315  0.00  0.00     0.090 H 
ATOM     44  H   NAG d 904      19.171 -10.193  31.721  0.00  0.00     0.040 H 
ATOM     45  H   NAG d 904      17.838  -9.214  32.285  0.00  0.00     0.040 H 
ATOM     46  H   NAG d 904      17.541 -10.558  31.207  0.00  0.00     0.040 H 
ATOM     47  H   NAG d 904      20.532  -9.099  33.190  0.00  0.00     0.212 HD
ATOM     48  H   NAG d 904      22.669 -12.486  31.483  0.00  0.00     0.091 H 
ENDROOT
TORSDOF 11
ENDMDL
MODEL 50
REMARK VINA RESULT:      -5.7      3.271      6.832
REMARK  0 active torsions:
REMARK  status: ('A' for Active; 'I' for Inactive)
REMARK       I    between atoms: O2_1  and  C2_13 
REMARK       I    between atoms: C6_2  and  C5_7 
REMARK       I    between atoms: C6_4  and  C5_18 
REMARK       I    between atoms: C6_4  and  O6_5 
REMARK       I    between atoms: O3_6  and  C1_24 
REMARK       I    between atoms: O3_6  and  C3_11 
REMARK       I    between atoms: C2_8  and  N2_16 
REMARK       I    between atoms: O4_10  and  C4_25 
REMARK       I    between atoms: C3_12  and  O3_26 
REMARK       I    between atoms: C1_14  and  O1_23 
REMARK       I    between atoms: C7_15  and  C8_21 
REMARK       I    between atoms: C7_15  and  N2_16 
ROOT
ATOM      1  O2  GCD d 903      18.446 -15.179  33.862  0.00  0.00    -0.388 OA
ATOM      2  C6  GCD d 903      16.752 -20.172  31.199  0.00  0.00     0.203 C 
ATOM      3  O6B GCD d 903      17.824 -20.700  30.910  0.00  0.00    -0.646 OA
ATOM      4  C5  GCD d 903      17.057 -18.876  32.014  0.00  0.00     0.127 C 
ATOM      5  C4  GCD d 903      16.091 -18.057  32.427  0.00  0.00    -0.005 C 
ATOM      6  C3  GCD d 903      16.593 -16.874  33.208  0.00  0.00     0.068 C 
ATOM      7  C2  GCD d 903      18.065 -16.325  33.004  0.00  0.00     0.107 C 
ATOM      8  O6A GCD d 903      15.475 -20.438  30.864  0.00  0.00    -0.646 OA
ATOM      9  O5  GCD d 903      18.540 -18.720  32.245  0.00  0.00    -0.343 OA
ATOM     10  C1  GCD d 903      18.970 -17.593  33.145  0.00  0.00     0.159 C 
ATOM     11  O3  GCD d 903      15.756 -15.711  33.058  0.00  0.00    -0.393 OA
ATOM     12  H   GCD d 903      17.833 -14.443  33.708  0.00  0.00     0.210 HD
ATOM     13  H   GCD d 903      16.583 -18.029  32.463  0.00  0.00     0.100 H 
ATOM     14  H   GCD d 903      15.421 -18.612  33.049  0.00  0.00     0.041 H 
ATOM     15  H   GCD d 903      15.612 -17.673  31.551  0.00  0.00     0.041 H 
ATOM     16  H   GCD d 903      16.575 -17.343  34.169  0.00  0.00     0.087 H 
ATOM     17  H   GCD d 903      18.178 -15.865  32.045  0.00  0.00     0.094 H 
ATOM     18  H   GCD d 903      18.949 -17.802  34.195  0.00  0.00     0.133 H 
ATOM     19  H   GCD d 903      15.844 -15.363  32.157  0.00  0.00     0.210 HD
ATOM     20  C6  NAG d 904      23.969 -20.319  31.060  0.00  0.00     0.043 C 
ATOM     21  O6  NAG d 904      23.989 -19.662  29.726  0.00  0.00    -0.398 OA
ATOM     22  O3  NAG d 904      20.268 -17.357  32.509  0.00  0.00    -0.348 OA
ATOM     23  C2  NAG d 904      22.552 -16.669  33.027  0.00  0.00     0.087 C 
ATOM     24  O4  NAG d 904      21.140 -20.005  31.602  0.00  0.00    -0.390 OA
ATOM     25  C3  NAG d 904      21.556 -17.887  32.886  0.00  0.00     0.093 C 
ATOM     26  C1  NAG d 904      23.919 -17.200  33.406  0.00  0.00     0.151 C 
ATOM     27  C7  NAG d 904      22.191 -14.162  33.937  0.00  0.00     0.214 C 
ATOM     28  N2  NAG d 904      22.108 -15.635  34.092  0.00  0.00    -0.349 N 
ATOM     29  C5  NAG d 904      23.428 -19.384  32.160  0.00  0.00     0.089 C 
ATOM     30  O5  NAG d 904      24.372 -18.205  32.354  0.00  0.00    -0.349 OA
ATOM     31  C8  NAG d 904      22.782 -13.608  32.626  0.00  0.00    -0.003 C 
ATOM     32  O7  NAG d 904      21.801 -13.375  34.829  0.00  0.00    -0.274 OA
ATOM     33  O1  NAG d 904      24.840 -16.067  33.556  0.00  0.00    -0.369 OA
ATOM     34  C4  NAG d 904      22.052 -18.865  31.772  0.00  0.00     0.089 C 
ATOM     35  H   NAG d 904      23.345 -21.187  31.008  0.00  0.00     0.078 H 
ATOM     36  H   NAG d 904      24.975 -20.579  31.314  0.00  0.00     0.078 H 
ATOM     37  H   NAG d 904      23.085 -19.417  29.473  0.00  0.00     0.209 HD
ATOM     38  H   NAG d 904      22.569 -16.163  32.084  0.00  0.00     0.084 H 
ATOM     39  H   NAG d 904      20.260 -19.680  31.354  0.00  0.00     0.210 HD
ATOM     40  H   NAG d 904      21.498 -18.424  33.810  0.00  0.00     0.091 H 
ATOM     41  H   NAG d 904      23.894 -17.717  34.342  0.00  0.00     0.132 H 
ATOM     42  H   NAG d 904      21.741 -15.983  34.937  0.00  0.00     0.163 HD
ATOM     43  H   NAG d 904      23.356 -19.936  33.074  0.00  0.00     0.090 H 
ATOM     44  H   NAG d 904      23.059 -14.420  31.987  0.00  0.00     0.040 H 
ATOM     45  H   NAG d 904      23.647 -13.017  32.846  0.00  0.00     0.040 H 
ATOM     46  H   NAG d 904      22.052 -13.000  32.134  0.00  0.00     0.040 H 
ATOM     47  H   NAG d 904      24.885 -15.575  32.722  0.00  0.00     0.212 HD
ATOM     48  H   NAG d 904      22.088 -18.332  30.845  0.00  0.00     0.091 H 
ENDROOT
TORSDOF 11
ENDMDL
MODEL 51
REMARK VINA RESULT:      -5.7      3.031      4.106
REMARK  0 active torsions:
REMARK  status: ('A' for Active; 'I' for Inactive)
REMARK       I    between atoms: O2_1  and  C2_13 
REMARK       I    between atoms: C6_2  and  C5_7 
REMARK       I    between atoms: C6_4  and  C5_18 
REMARK       I    between atoms: C6_4  and  O6_5 
REMARK       I    between atoms: O3_6  and  C1_24 
REMARK       I    between atoms: O3_6  and  C3_11 
REMARK       I    between atoms: C2_8  and  N2_16 
REMARK       I    between atoms: O4_10  and  C4_25 
REMARK       I    between atoms: C3_12  and  O3_26 
REMARK       I    between atoms: C1_14  and  O1_23 
REMARK       I    between atoms: C7_15  and  C8_21 
REMARK       I    between atoms: C7_15  and  N2_16 
ROOT
ATOM      1  O2  GCD d 903      22.261 -16.259  31.373  0.00  0.00    -0.388 OA
ATOM      2  C6  GCD d 903      16.699 -17.612  32.830  0.00  0.00     0.203 C 
ATOM      3  O6B GCD d 903      16.335 -16.619  33.455  0.00  0.00    -0.646 OA
ATOM      4  C5  GCD d 903      18.137 -17.341  32.287  0.00  0.00     0.127 C 
ATOM      5  C4  GCD d 903      18.822 -18.260  31.609  0.00  0.00    -0.005 C 
ATOM      6  C3  GCD d 903      20.181 -17.796  31.163  0.00  0.00     0.068 C 
ATOM      7  C2  GCD d 903      20.948 -16.648  31.939  0.00  0.00     0.107 C 
ATOM      8  O6A GCD d 903      16.160 -18.833  32.646  0.00  0.00    -0.646 OA
ATOM      9  O5  GCD d 903      18.591 -15.944  32.636  0.00  0.00    -0.343 OA
ATOM     10  C1  GCD d 903      19.900 -15.492  32.048  0.00  0.00     0.159 C 
ATOM     11  O3  GCD d 903      21.138 -18.870  31.079  0.00  0.00    -0.393 OA
ATOM     12  H   GCD d 903      22.843 -17.035  31.345  0.00  0.00     0.210 HD
ATOM     13  H   GCD d 903      18.943 -17.806  31.760  0.00  0.00     0.100 H 
ATOM     14  H   GCD d 903      18.257 -18.531  30.743  0.00  0.00     0.041 H 
ATOM     15  H   GCD d 903      18.976 -19.086  32.272  0.00  0.00     0.041 H 
ATOM     16  H   GCD d 903      19.868 -17.375  30.230  0.00  0.00     0.087 H 
ATOM     17  H   GCD d 903      21.270 -16.981  32.904  0.00  0.00     0.094 H 
ATOM     18  H   GCD d 903      19.853 -15.101  31.052  0.00  0.00     0.133 H 
ATOM     19  H   GCD d 903      21.355 -19.180  31.972  0.00  0.00     0.210 HD
ATOM     20  C6  NAG d 904      17.833 -11.053  35.624  0.00  0.00     0.043 C 
ATOM     21  O6  NAG d 904      18.273 -11.644  36.916  0.00  0.00    -0.398 OA
ATOM     22  O3  NAG d 904      20.267 -14.582  33.136  0.00  0.00    -0.348 OA
ATOM     23  C2  NAG d 904      21.425 -12.475  33.556  0.00  0.00     0.087 C 
ATOM     24  O4  NAG d 904      17.712 -13.512  34.097  0.00  0.00    -0.390 OA
ATOM     25  C3  NAG d 904      20.040 -13.160  33.224  0.00  0.00     0.093 C 
ATOM     26  C1  NAG d 904      21.213 -10.981  33.672  0.00  0.00     0.151 C 
ATOM     27  C7  NAG d 904      23.935 -13.048  32.771  0.00  0.00     0.214 C 
ATOM     28  N2  NAG d 904      22.511 -12.742  32.484  0.00  0.00    -0.349 N 
ATOM     29  C5  NAG d 904      18.812 -11.373  34.476  0.00  0.00     0.089 C 
ATOM     30  O5  NAG d 904      20.158 -10.709  34.737  0.00  0.00    -0.349 OA
ATOM     31  C8  NAG d 904      24.381 -13.088  34.246  0.00  0.00    -0.003 C 
ATOM     32  O7  NAG d 904      24.765 -13.270  31.861  0.00  0.00    -0.274 OA
ATOM     33  O1  NAG d 904      22.502 -10.342  33.961  0.00  0.00    -0.369 OA
ATOM     34  C4  NAG d 904      19.009 -12.876  34.365  0.00  0.00     0.089 C 
ATOM     35  H   NAG d 904      16.870 -11.445  35.375  0.00  0.00     0.078 H 
ATOM     36  H   NAG d 904      17.801  -9.990  35.742  0.00  0.00     0.078 H 
ATOM     37  H   NAG d 904      18.310 -12.609  36.834  0.00  0.00     0.209 HD
ATOM     38  H   NAG d 904      21.776 -12.900  34.473  0.00  0.00     0.084 H 
ATOM     39  H   NAG d 904      17.832 -14.472  34.025  0.00  0.00     0.210 HD
ATOM     40  H   NAG d 904      19.649 -12.773  32.307  0.00  0.00     0.091 H 
ATOM     41  H   NAG d 904      20.848 -10.563  32.757  0.00  0.00     0.132 H 
ATOM     42  H   NAG d 904      22.236 -12.705  31.540  0.00  0.00     0.163 HD
ATOM     43  H   NAG d 904      18.402 -10.999  33.562  0.00  0.00     0.090 H 
ATOM     44  H   NAG d 904      23.544 -12.875  34.878  0.00  0.00     0.040 H 
ATOM     45  H   NAG d 904      25.144 -12.355  34.408  0.00  0.00     0.040 H 
ATOM     46  H   NAG d 904      24.765 -14.059  34.477  0.00  0.00     0.040 H 
ATOM     47  H   NAG d 904      22.862 -10.699  34.787  0.00  0.00     0.212 HD
ATOM     48  H   NAG d 904      19.393 -13.284  35.277  0.00  0.00     0.091 H 
ENDROOT
TORSDOF 11
ENDMDL
MODEL 52
REMARK VINA RESULT:      -5.6      2.908      6.282
REMARK  0 active torsions:
REMARK  status: ('A' for Active; 'I' for Inactive)
REMARK       I    between atoms: O2_1  and  C2_13 
REMARK       I    between atoms: C6_2  and  C5_7 
REMARK       I    between atoms: C6_4  and  C5_18 
REMARK       I    between atoms: C6_4  and  O6_5 
REMARK       I    between atoms: O3_6  and  C1_24 
REMARK       I    between atoms: O3_6  and  C3_11 
REMARK       I    between atoms: C2_8  and  N2_16 
REMARK       I    between atoms: O4_10  and  C4_25 
REMARK       I    between atoms: C3_12  and  O3_26 
REMARK       I    between atoms: C1_14  and  O1_23 
REMARK       I    between atoms: C7_15  and  C8_21 
REMARK       I    between atoms: C7_15  and  N2_16 
ROOT
ATOM      1  O2  GCD d 903      22.577 -15.838  34.523  0.00  0.00    -0.388 OA
ATOM      2  C6  GCD d 903      21.474 -10.977  31.352  0.00  0.00     0.203 C 
ATOM      3  O6B GCD d 903      20.266 -11.062  31.140  0.00  0.00    -0.646 OA
ATOM      4  C5  GCD d 903      21.885 -12.160  32.284  0.00  0.00     0.127 C 
ATOM      5  C4  GCD d 903      23.149 -12.366  32.650  0.00  0.00    -0.005 C 
ATOM      6  C3  GCD d 903      23.331 -13.549  33.560  0.00  0.00     0.068 C 
ATOM      7  C2  GCD d 903      22.302 -14.753  33.551  0.00  0.00     0.107 C 
ATOM      8  O6A GCD d 903      22.440 -10.173  30.867  0.00  0.00    -0.646 OA
ATOM      9  O5  GCD d 903      20.681 -12.980  32.679  0.00  0.00    -0.343 OA
ATOM     10  C1  GCD d 903      20.906 -14.065  33.696  0.00  0.00     0.159 C 
ATOM     11  O3  GCD d 903      24.618 -14.179  33.406  0.00  0.00    -0.393 OA
ATOM     12  H   GCD d 903      23.460 -16.203  34.357  0.00  0.00     0.210 HD
ATOM     13  H   GCD d 903      22.736 -12.621  32.739  0.00  0.00     0.100 H 
ATOM     14  H   GCD d 903      23.500 -11.492  33.158  0.00  0.00     0.041 H 
ATOM     15  H   GCD d 903      23.703 -12.570  31.757  0.00  0.00     0.041 H 
ATOM     16  H   GCD d 903      23.175 -13.023  34.479  0.00  0.00     0.087 H 
ATOM     17  H   GCD d 903      22.373 -15.316  32.644  0.00  0.00     0.094 H 
ATOM     18  H   GCD d 903      20.883 -13.755  34.721  0.00  0.00     0.133 H 
ATOM     19  H   GCD d 903      24.658 -14.625  32.546  0.00  0.00     0.210 HD
ATOM     20  C6  NAG d 904      15.101 -14.314  31.961  0.00  0.00     0.043 C 
ATOM     21  O6  NAG d 904      15.326 -15.045  30.686  0.00  0.00    -0.398 OA
ATOM     22  O3  NAG d 904      19.851 -14.963  33.219  0.00  0.00    -0.348 OA
ATOM     23  C2  NAG d 904      18.224 -16.596  34.020  0.00  0.00     0.087 C 
ATOM     24  O4  NAG d 904      17.752 -13.174  32.224  0.00  0.00    -0.390 OA
ATOM     25  C3  NAG d 904      18.492 -15.074  33.690  0.00  0.00     0.093 C 
ATOM     26  C1  NAG d 904      16.796 -16.744  34.502  0.00  0.00     0.151 C 
ATOM     27  C7  NAG d 904      19.809 -18.505  35.061  0.00  0.00     0.214 C 
ATOM     28  N2  NAG d 904      19.175 -17.164  35.102  0.00  0.00    -0.349 N 
ATOM     29  C5  NAG d 904      16.091 -14.746  33.061  0.00  0.00     0.089 C 
ATOM     30  O5  NAG d 904      15.851 -16.203  33.435  0.00  0.00    -0.349 OA
ATOM     31  C8  NAG d 904      19.487 -19.418  33.862  0.00  0.00    -0.003 C 
ATOM     32  O7  NAG d 904      20.583 -18.903  35.960  0.00  0.00    -0.274 OA
ATOM     33  O1  NAG d 904      16.551 -18.154  34.827  0.00  0.00    -0.369 OA
ATOM     34  C4  NAG d 904      17.520 -14.584  32.568  0.00  0.00     0.089 C 
ATOM     35  H   NAG d 904      15.220 -13.265  31.783  0.00  0.00     0.078 H 
ATOM     36  H   NAG d 904      14.112 -14.540  32.300  0.00  0.00     0.078 H 
ATOM     37  H   NAG d 904      16.218 -14.856  30.357  0.00  0.00     0.209 HD
ATOM     38  H   NAG d 904      18.400 -17.150  33.122  0.00  0.00     0.084 H 
ATOM     39  H   NAG d 904      18.663 -13.065  31.908  0.00  0.00     0.210 HD
ATOM     40  H   NAG d 904      18.336 -14.475  34.563  0.00  0.00     0.091 H 
ATOM     41  H   NAG d 904      16.620 -16.176  35.392  0.00  0.00     0.132 H 
ATOM     42  H   NAG d 904      19.374 -16.591  35.878  0.00  0.00     0.163 HD
ATOM     43  H   NAG d 904      15.938 -14.128  33.921  0.00  0.00     0.090 H 
ATOM     44  H   NAG d 904      18.814 -18.914  33.200  0.00  0.00     0.040 H 
ATOM     45  H   NAG d 904      19.032 -20.321  34.213  0.00  0.00     0.040 H 
ATOM     46  H   NAG d 904      20.391 -19.653  33.340  0.00  0.00     0.040 H 
ATOM     47  H   NAG d 904      16.703 -18.698  34.039  0.00  0.00     0.212 HD
ATOM     48  H   NAG d 904      17.694 -15.170  31.690  0.00  0.00     0.091 H 
ENDROOT
TORSDOF 11
ENDMDL
MODEL 53
REMARK VINA RESULT:      -5.6      2.671      6.432
REMARK  0 active torsions:
REMARK  status: ('A' for Active; 'I' for Inactive)
REMARK       I    between atoms: O2_1  and  C2_13 
REMARK       I    between atoms: C6_2  and  C5_7 
REMARK       I    between atoms: C6_4  and  C5_18 
REMARK       I    between atoms: C6_4  and  O6_5 
REMARK       I    between atoms: O3_6  and  C1_24 
REMARK       I    between atoms: O3_6  and  C3_11 
REMARK       I    between atoms: C2_8  and  N2_16 
REMARK       I    between atoms: O4_10  and  C4_25 
REMARK       I    between atoms: C3_12  and  O3_26 
REMARK       I    between atoms: C1_14  and  O1_23 
REMARK       I    between atoms: C7_15  and  C8_21 
REMARK       I    between atoms: C7_15  and  N2_16 
ROOT
ATOM      1  O2  GCD d 903      19.718 -16.187  34.670  0.00  0.00    -0.388 OA
ATOM      2  C6  GCD d 903      23.865 -12.013  35.189  0.00  0.00     0.203 C 
ATOM      3  O6B GCD d 903      23.329 -11.035  34.673  0.00  0.00    -0.646 OA
ATOM      4  C5  GCD d 903      22.825 -13.176  35.215  0.00  0.00     0.127 C 
ATOM      5  C4  GCD d 903      23.131 -14.389  35.672  0.00  0.00    -0.005 C 
ATOM      6  C3  GCD d 903      21.985 -15.361  35.625  0.00  0.00     0.068 C 
ATOM      7  C2  GCD d 903      20.803 -15.180  34.587  0.00  0.00     0.107 C 
ATOM      8  O6A GCD d 903      25.125 -12.265  35.597  0.00  0.00    -0.646 OA
ATOM      9  O5  GCD d 903      21.492 -12.720  34.672  0.00  0.00    -0.343 OA
ATOM     10  C1  GCD d 903      20.351 -13.695  34.775  0.00  0.00     0.159 C 
ATOM     11  O3  GCD d 903      22.417 -16.724  35.439  0.00  0.00    -0.393 OA
ATOM     12  H   GCD d 903      20.089 -17.073  34.542  0.00  0.00     0.210 HD
ATOM     13  H   GCD d 903      22.719 -14.210  35.469  0.00  0.00     0.100 H 
ATOM     14  H   GCD d 903      23.453 -14.295  36.688  0.00  0.00     0.041 H 
ATOM     15  H   GCD d 903      23.898 -14.778  35.035  0.00  0.00     0.041 H 
ATOM     16  H   GCD d 903      21.583 -15.125  36.588  0.00  0.00     0.087 H 
ATOM     17  H   GCD d 903      21.133 -15.369  33.586  0.00  0.00     0.094 H 
ATOM     18  H   GCD d 903      19.832 -13.707  35.711  0.00  0.00     0.133 H 
ATOM     19  H   GCD d 903      22.763 -16.833  34.539  0.00  0.00     0.210 HD
ATOM     20  C6  NAG d 904      18.334  -8.767  31.875  0.00  0.00     0.043 C 
ATOM     21  O6  NAG d 904      18.895  -9.102  30.539  0.00  0.00    -0.398 OA
ATOM     22  O3  NAG d 904      19.630 -13.235  33.586  0.00  0.00    -0.348 OA
ATOM     23  C2  NAG d 904      17.368 -12.959  32.711  0.00  0.00     0.087 C 
ATOM     24  O4  NAG d 904      20.160 -10.354  33.470  0.00  0.00    -0.390 OA
ATOM     25  C3  NAG d 904      18.550 -12.281  33.511  0.00  0.00     0.093 C 
ATOM     26  C1  NAG d 904      16.226 -11.971  32.601  0.00  0.00     0.151 C 
ATOM     27  C7  NAG d 904      16.475 -15.497  32.652  0.00  0.00     0.214 C 
ATOM     28  N2  NAG d 904      16.843 -14.255  33.376  0.00  0.00    -0.349 N 
ATOM     29  C5  NAG d 904      17.890 -10.024  32.651  0.00  0.00     0.089 C 
ATOM     30  O5  NAG d 904      16.730 -10.699  31.931  0.00  0.00    -0.349 OA
ATOM     31  C8  NAG d 904      16.603 -15.500  31.116  0.00  0.00    -0.003 C 
ATOM     32  O7  NAG d 904      16.070 -16.520  33.248  0.00  0.00    -0.274 OA
ATOM     33  O1  NAG d 904      15.120 -12.607  31.875  0.00  0.00    -0.369 OA
ATOM     34  C4  NAG d 904      19.048 -11.003  32.761  0.00  0.00     0.089 C 
ATOM     35  H   NAG d 904      19.080  -8.256  32.446  0.00  0.00     0.078 H 
ATOM     36  H   NAG d 904      17.471  -8.151  31.725  0.00  0.00     0.078 H 
ATOM     37  H   NAG d 904      19.680  -9.661  30.650  0.00  0.00     0.209 HD
ATOM     38  H   NAG d 904      17.752 -13.231  31.750  0.00  0.00     0.084 H 
ATOM     39  H   NAG d 904      20.902 -10.974  33.543  0.00  0.00     0.210 HD
ATOM     40  H   NAG d 904      18.218 -11.996  34.487  0.00  0.00     0.091 H 
ATOM     41  H   NAG d 904      15.855 -11.691  33.565  0.00  0.00     0.132 H 
ATOM     42  H   NAG d 904      16.746 -14.255  34.356  0.00  0.00     0.163 HD
ATOM     43  H   NAG d 904      17.578  -9.729  33.631  0.00  0.00     0.090 H 
ATOM     44  H   NAG d 904      16.961 -14.548  30.786  0.00  0.00     0.040 H 
ATOM     45  H   NAG d 904      15.646 -15.692  30.679  0.00  0.00     0.040 H 
ATOM     46  H   NAG d 904      17.291 -16.263  30.817  0.00  0.00     0.040 H 
ATOM     47  H   NAG d 904      15.424 -12.874  30.994  0.00  0.00     0.212 HD
ATOM     48  H   NAG d 904      19.400 -11.294  31.793  0.00  0.00     0.091 H 
ENDROOT
TORSDOF 11
ENDMDL
MODEL 54
REMARK VINA RESULT:      -5.5      3.023      6.350
REMARK  0 active torsions:
REMARK  status: ('A' for Active; 'I' for Inactive)
REMARK       I    between atoms: O2_1  and  C2_13 
REMARK       I    between atoms: C6_2  and  C5_7 
REMARK       I    between atoms: C6_4  and  C5_18 
REMARK       I    between atoms: C6_4  and  O6_5 
REMARK       I    between atoms: O3_6  and  C1_24 
REMARK       I    between atoms: O3_6  and  C3_11 
REMARK       I    between atoms: C2_8  and  N2_16 
REMARK       I    between atoms: O4_10  and  C4_25 
REMARK       I    between atoms: C3_12  and  O3_26 
REMARK       I    between atoms: C1_14  and  O1_23 
REMARK       I    between atoms: C7_15  and  C8_21 
REMARK       I    between atoms: C7_15  and  N2_16 
ROOT
ATOM      1  O2  GCD d 903      21.795 -14.791  32.669  0.00  0.00    -0.388 OA
ATOM      2  C6  GCD d 903      23.886 -20.253  33.496  0.00  0.00     0.203 C 
ATOM      3  O6B GCD d 903      22.889 -20.952  33.327  0.00  0.00    -0.646 OA
ATOM      4  C5  GCD d 903      23.493 -18.772  33.198  0.00  0.00     0.127 C 
ATOM      5  C4  GCD d 903      24.356 -17.768  33.345  0.00  0.00    -0.005 C 
ATOM      6  C3  GCD d 903      23.786 -16.422  32.994  0.00  0.00     0.068 C 
ATOM      7  C2  GCD d 903      22.229 -16.147  33.079  0.00  0.00     0.107 C 
ATOM      8  O6A GCD d 903      25.122 -20.511  33.963  0.00  0.00    -0.646 OA
ATOM      9  O5  GCD d 903      22.058 -18.675  32.739  0.00  0.00    -0.343 OA
ATOM     10  C1  GCD d 903      21.587 -17.324  32.274  0.00  0.00     0.159 C 
ATOM     11  O3  GCD d 903      24.379 -15.350  33.752  0.00  0.00    -0.393 OA
ATOM     12  H   GCD d 903      22.241 -14.129  33.220  0.00  0.00     0.210 HD
ATOM     13  H   GCD d 903      23.879 -17.774  33.220  0.00  0.00     0.100 H 
ATOM     14  H   GCD d 903      25.200 -17.953  32.713  0.00  0.00     0.041 H 
ATOM     15  H   GCD d 903      24.622 -17.735  34.381  0.00  0.00     0.041 H 
ATOM     16  H   GCD d 903      24.033 -16.451  31.953  0.00  0.00     0.087 H 
ATOM     17  H   GCD d 903      21.892 -16.134  34.094  0.00  0.00     0.094 H 
ATOM     18  H   GCD d 903      21.805 -17.080  31.254  0.00  0.00     0.133 H 
ATOM     19  H   GCD d 903      24.095 -15.412  34.677  0.00  0.00     0.210 HD
ATOM     20  C6  NAG d 904      16.867 -21.124  32.047  0.00  0.00     0.043 C 
ATOM     21  O6  NAG d 904      16.529 -21.078  33.495  0.00  0.00    -0.398 OA
ATOM     22  O3  NAG d 904      20.185 -17.493  32.663  0.00  0.00    -0.348 OA
ATOM     23  C2  NAG d 904      17.925 -16.872  31.982  0.00  0.00     0.087 C 
ATOM     24  O4  NAG d 904      19.650 -20.350  32.275  0.00  0.00    -0.390 OA
ATOM     25  C3  NAG d 904      19.081 -17.941  31.850  0.00  0.00     0.093 C 
ATOM     26  C1  NAG d 904      16.744 -17.327  31.151  0.00  0.00     0.151 C 
ATOM     27  C7  NAG d 904      17.988 -14.191  32.206  0.00  0.00     0.214 C 
ATOM     28  N2  NAG d 904      18.345 -15.456  31.517  0.00  0.00    -0.349 N 
ATOM     29  C5  NAG d 904      17.403 -19.773  31.532  0.00  0.00     0.089 C 
ATOM     30  O5  NAG d 904      16.312 -18.713  31.614  0.00  0.00    -0.349 OA
ATOM     31  C8  NAG d 904      17.115 -14.282  33.473  0.00  0.00    -0.003 C 
ATOM     32  O7  NAG d 904      18.371 -13.075  31.789  0.00  0.00    -0.274 OA
ATOM     33  O1  NAG d 904      15.677 -16.325  31.258  0.00  0.00    -0.369 OA
ATOM     34  C4  NAG d 904      18.593 -19.333  32.370  0.00  0.00     0.089 C 
ATOM     35  H   NAG d 904      17.614 -21.874  31.890  0.00  0.00     0.078 H 
ATOM     36  H   NAG d 904      15.971 -21.350  31.507  0.00  0.00     0.078 H 
ATOM     37  H   NAG d 904      17.327 -20.874  34.006  0.00  0.00     0.209 HD
ATOM     38  H   NAG d 904      17.676 -16.802  33.021  0.00  0.00     0.084 H 
ATOM     39  H   NAG d 904      20.412 -20.074  32.808  0.00  0.00     0.210 HD
ATOM     40  H   NAG d 904      19.372 -18.043  30.825  0.00  0.00     0.091 H 
ATOM     41  H   NAG d 904      17.001 -17.409  30.115  0.00  0.00     0.132 H 
ATOM     42  H   NAG d 904      18.891 -15.390  30.700  0.00  0.00     0.163 HD
ATOM     43  H   NAG d 904      17.709 -19.892  30.513  0.00  0.00     0.090 H 
ATOM     44  H   NAG d 904      16.886 -15.308  33.676  0.00  0.00     0.040 H 
ATOM     45  H   NAG d 904      16.206 -13.738  33.321  0.00  0.00     0.040 H 
ATOM     46  H   NAG d 904      17.646 -13.864  34.303  0.00  0.00     0.040 H 
ATOM     47  H   NAG d 904      15.420 -16.225  32.188  0.00  0.00     0.212 HD
ATOM     48  H   NAG d 904      18.324 -19.233  33.401  0.00  0.00     0.091 H 
ENDROOT
TORSDOF 11
ENDMDL
MODEL 55
REMARK VINA RESULT:      -5.5      2.511      6.468
REMARK  0 active torsions:
REMARK  status: ('A' for Active; 'I' for Inactive)
REMARK       I    between atoms: O2_1  and  C2_13 
REMARK       I    between atoms: C6_2  and  C5_7 
REMARK       I    between atoms: C6_4  and  C5_18 
REMARK       I    between atoms: C6_4  and  O6_5 
REMARK       I    between atoms: O3_6  and  C1_24 
REMARK       I    between atoms: O3_6  and  C3_11 
REMARK       I    between atoms: C2_8  and  N2_16 
REMARK       I    between atoms: O4_10  and  C4_25 
REMARK       I    between atoms: C3_12  and  O3_26 
REMARK       I    between atoms: C1_14  and  O1_23 
REMARK       I    between atoms: C7_15  and  C8_21 
REMARK       I    between atoms: C7_15  and  N2_16 
ROOT
ATOM      1  O2  GCD d 903      20.446 -13.702  35.423  0.00  0.00    -0.388 OA
ATOM      2  C6  GCD d 903      15.712 -12.301  32.179  0.00  0.00     0.203 C 
ATOM      3  O6B GCD d 903      15.246 -13.402  31.893  0.00  0.00    -0.646 OA
ATOM      4  C5  GCD d 903      16.924 -12.524  33.137  0.00  0.00     0.127 C 
ATOM      5  C4  GCD d 903      17.669 -11.514  33.581  0.00  0.00    -0.005 C 
ATOM      6  C3  GCD d 903      18.778 -11.939  34.504  0.00  0.00     0.068 C 
ATOM      7  C2  GCD d 903      19.384 -13.400  34.433  0.00  0.00     0.107 C 
ATOM      8  O6A GCD d 903      15.448 -11.050  31.753  0.00  0.00    -0.646 OA
ATOM      9  O5  GCD d 903      17.096 -13.989  33.458  0.00  0.00    -0.343 OA
ATOM     10  C1  GCD d 903      18.134 -14.337  34.490  0.00  0.00     0.159 C 
ATOM     11  O3  GCD d 903      19.927 -11.073  34.431  0.00  0.00    -0.393 OA
ATOM     12  H   GCD d 903      21.177 -13.074  35.313  0.00  0.00     0.210 HD
ATOM     13  H   GCD d 903      17.706 -12.001  33.646  0.00  0.00     0.100 H 
ATOM     14  H   GCD d 903      17.034 -10.832  34.108  0.00  0.00     0.041 H 
ATOM     15  H   GCD d 903      18.129 -11.065  32.726  0.00  0.00     0.041 H 
ATOM     16  H   GCD d 903      18.211 -11.889  35.410  0.00  0.00     0.087 H 
ATOM     17  H   GCD d 903      19.945 -13.544  33.533  0.00  0.00     0.094 H 
ATOM     18  H   GCD d 903      17.817 -14.272  35.511  0.00  0.00     0.133 H 
ATOM     19  H   GCD d 903      20.369 -11.193  33.576  0.00  0.00     0.210 HD
ATOM     20  C6  NAG d 904      15.775 -19.517  32.397  0.00  0.00     0.043 C 
ATOM     21  O6  NAG d 904      16.567 -19.580  31.140  0.00  0.00    -0.398 OA
ATOM     22  O3  NAG d 904      18.470 -15.657  33.949  0.00  0.00    -0.348 OA
ATOM     23  C2  NAG d 904      19.162 -17.890  34.652  0.00  0.00     0.087 C 
ATOM     24  O4  NAG d 904      15.954 -16.656  32.822  0.00  0.00    -0.390 OA
ATOM     25  C3  NAG d 904      17.938 -16.941  34.335  0.00  0.00     0.093 C 
ATOM     26  C1  NAG d 904      18.632 -19.253  35.044  0.00  0.00     0.151 C 
ATOM     27  C7  NAG d 904      21.550 -17.404  35.793  0.00  0.00     0.214 C 
ATOM     28  N2  NAG d 904      20.067 -17.361  35.792  0.00  0.00    -0.349 N 
ATOM     29  C5  NAG d 904      16.576 -18.893  33.558  0.00  0.00     0.089 C 
ATOM     30  O5  NAG d 904      17.754 -19.788  33.919  0.00  0.00    -0.349 OA
ATOM     31  C8  NAG d 904      22.253 -18.040  34.578  0.00  0.00    -0.003 C 
ATOM     32  O7  NAG d 904      22.229 -16.946  36.740  0.00  0.00    -0.274 OA
ATOM     33  O1  NAG d 904      19.767 -20.129  35.356  0.00  0.00    -0.369 OA
ATOM     34  C4  NAG d 904      17.095 -17.522  33.154  0.00  0.00     0.089 C 
ATOM     35  H   NAG d 904      14.900 -18.925  32.225  0.00  0.00     0.078 H 
ATOM     36  H   NAG d 904      15.518 -20.517  32.675  0.00  0.00     0.078 H 
ATOM     37  H   NAG d 904      16.813 -18.682  30.868  0.00  0.00     0.209 HD
ATOM     38  H   NAG d 904      19.763 -17.936  33.767  0.00  0.00     0.084 H 
ATOM     39  H   NAG d 904      16.280 -15.779  32.564  0.00  0.00     0.210 HD
ATOM     40  H   NAG d 904      17.307 -16.856  35.196  0.00  0.00     0.091 H 
ATOM     41  H   NAG d 904      18.020 -19.200  35.920  0.00  0.00     0.132 H 
ATOM     42  H   NAG d 904      19.623 -16.966  36.578  0.00  0.00     0.163 HD
ATOM     43  H   NAG d 904      15.930 -18.795  34.406  0.00  0.00     0.090 H 
ATOM     44  H   NAG d 904      21.519 -18.374  33.875  0.00  0.00     0.040 H 
ATOM     45  H   NAG d 904      22.841 -18.874  34.902  0.00  0.00     0.040 H 
ATOM     46  H   NAG d 904      22.889 -17.315  34.114  0.00  0.00     0.040 H 
ATOM     47  H   NAG d 904      20.344 -20.199  34.580  0.00  0.00     0.212 HD
ATOM     48  H   NAG d 904      17.722 -17.586  32.290  0.00  0.00     0.091 H 
ENDROOT
TORSDOF 11
ENDMDL
