MODEL 1
REMARK VINA RESULT:     -10.2      0.000      0.000
REMARK  0 active torsions:
REMARK  status: ('A' for Active; 'I' for Inactive)
REMARK       I    between atoms: O3_1  and  C3_6 
REMARK       I    between atoms: O3_3  and  C3_16 
REMARK       I    between atoms: O3_3  and  C1_32 
REMARK       I    between atoms: C8_5  and  C7_53 
REMARK       I    between atoms: C6_7  and  C5_47 
REMARK       I    between atoms: C6_7  and  O6_29 
REMARK       I    between atoms: O4_8  and  C4_45 
REMARK       I    between atoms: O4_8  and  C1_39 
REMARK       I    between atoms: N_10  and  C2_35 
REMARK       I    between atoms: N_10  and  C7_17 
REMARK       I    between atoms: C5_12  and  C6_42 
REMARK       I    between atoms: C1_14  and  O3_57 
REMARK       I    between atoms: C6_15  and  C5_20 
REMARK       I    between atoms: C7_17  and  C8_54 
REMARK       I    between atoms: O6_18  and  C6_42 
REMARK       I    between atoms: S_19  and  O4_46 
REMARK       I    between atoms: C4_22  and  O4_50 
REMARK       I    between atoms: C2_23  and  O2_51 
REMARK       I    between atoms: S_26  and  O4_50 
REMARK       I    between atoms: N_27  and  C2_56 
REMARK       I    between atoms: N_27  and  C7_53 
REMARK       I    between atoms: C5_31  and  C6_55 
REMARK       I    between atoms: C1_33  and  O1_48 
REMARK       I    between atoms: C4_34  and  O4_46 
REMARK       I    between atoms: C3_40  and  O3_57 
REMARK       I    between atoms: C2_41  and  O2_60 
REMARK       I    between atoms: O3_43  and  C3_52 
ROOT
ATOM      1  O3  BDP d 609      26.109  25.429  -6.008  0.00  0.00    -0.390 OA
ATOM      2  C3  BDP d 609      26.775  24.722  -4.969  0.00  0.00     0.092 C 
ATOM      3  O4  BDP d 609      28.857  25.762  -5.501  0.00  0.00    -0.348 OA
ATOM      4  C1  BDP d 609      26.536  23.823  -2.640  0.00  0.00     0.160 C 
ATOM      5  C5  BDP d 609      28.578  24.921  -3.250  0.00  0.00     0.152 C 
ATOM      6  O5  BDP d 609      27.600  24.701  -2.217  0.00  0.00    -0.340 OA
ATOM      7  O6B BDP d 609      29.380  26.897  -2.200  0.00  0.00    -0.646 OA
ATOM      8  C2  BDP d 609      25.794  24.414  -3.846  0.00  0.00     0.110 C 
ATOM      9  C4  BDP d 609      27.908  25.584  -4.447  0.00  0.00     0.103 C 
ATOM     10  C6  BDP d 609      29.682  25.771  -2.648  0.00  0.00     0.206 C 
ATOM     11  O6A BDP d 609      30.836  25.290  -2.669  0.00  0.00    -0.646 OA
ATOM     12  O2  BDP d 609      24.829  23.479  -4.306  0.00  0.00    -0.388 OA
ATOM     13  H   BDP d 609      25.380  24.888  -6.352  0.00  0.00     0.210 HD
ATOM     14  H   BDP d 609      27.165  23.799  -5.344  0.00  0.00     0.091 H 
ATOM     15  H   BDP d 609      26.950  22.879  -2.926  0.00  0.00     0.133 H 
ATOM     16  H   BDP d 609      29.003  24.006  -3.606  0.00  0.00     0.104 H 
ATOM     17  H   BDP d 609      25.311  25.322  -3.550  0.00  0.00     0.094 H 
ATOM     18  H   BDP d 609      27.524  26.530  -4.129  0.00  0.00     0.092 H 
ATOM     19  H   BDP d 609      25.275  22.659  -4.572  0.00  0.00     0.210 HD
ATOM     20  O7  ASG d 610      31.734  24.824  -7.681  0.00  0.00    -0.274 OA
ATOM     21  O3  ASG d 610      31.913  28.441  -8.031  0.00  0.00    -0.348 OA
ATOM     22  OSB ASG d 610      30.465  29.930 -10.444  0.00  0.00    -0.572 OA
ATOM     23  OSA ASG d 610      28.103  30.323 -10.178  0.00  0.00    -0.572 OA
ATOM     24  N   ASG d 610      31.576  26.388  -6.065  0.00  0.00    -0.349 N 
ATOM     25  C5  ASG d 610      28.497  29.159  -6.596  0.00  0.00     0.090 C 
ATOM     26  C3  ASG d 610      30.817  28.460  -7.094  0.00  0.00     0.094 C 
ATOM     27  C7  ASG d 610      32.094  25.283  -6.594  0.00  0.00     0.214 C 
ATOM     28  O6  ASG d 610      26.339  30.010  -5.882  0.00  0.00    -0.398 OA
ATOM     29  O5  ASG d 610      28.159  27.791  -6.289  0.00  0.00    -0.349 OA
ATOM     30  C4  ASG d 610      29.584  29.176  -7.675  0.00  0.00     0.114 C 
ATOM     31  S   ASG d 610      29.148  29.290 -10.247  0.00  0.00     0.252 S 
ATOM     32  C2  ASG d 610      30.446  27.037  -6.701  0.00  0.00     0.087 C 
ATOM     33  C1  ASG d 610      29.268  27.059  -5.734  0.00  0.00     0.154 C 
ATOM     34  C6  ASG d 610      27.214  29.864  -6.993  0.00  0.00     0.043 C 
ATOM     35  OSC ASG d 610      28.843  28.371 -11.361  0.00  0.00    -0.572 OA
ATOM     36  O4  ASG d 610      29.108  28.489  -8.854  0.00  0.00    -0.246 OA
ATOM     37  C8  ASG d 610      33.184  24.580  -5.793  0.00  0.00    -0.003 C 
ATOM     38  H   ASG d 610      31.961  26.765  -5.241  0.00  0.00     0.163 HD
ATOM     39  H   ASG d 610      28.909  29.683  -5.759  0.00  0.00     0.090 H 
ATOM     40  H   ASG d 610      31.138  29.002  -6.230  0.00  0.00     0.091 H 
ATOM     41  H   ASG d 610      25.530  30.462  -6.165  0.00  0.00     0.209 HD
ATOM     42  H   ASG d 610      29.834  30.177  -7.956  0.00  0.00     0.093 H 
ATOM     43  H   ASG d 610      30.175  26.494  -7.582  0.00  0.00     0.084 H 
ATOM     44  H   ASG d 610      29.581  27.534  -4.828  0.00  0.00     0.132 H 
ATOM     45  H   ASG d 610      26.722  29.292  -7.751  0.00  0.00     0.078 H 
ATOM     46  H   ASG d 610      27.463  30.839  -7.356  0.00  0.00     0.078 H 
ATOM     47  H   ASG d 610      33.514  23.712  -6.325  0.00  0.00     0.040 H 
ATOM     48  H   ASG d 610      32.796  24.289  -4.841  0.00  0.00     0.040 H 
ATOM     49  H   ASG d 610      34.009  25.246  -5.653  0.00  0.00     0.040 H 
ATOM     50  C8  ASG d 608      22.627  20.860  -3.118  0.00  0.00    -0.003 C 
ATOM     51  C6  ASG d 608      27.609  22.899   2.908  0.00  0.00     0.043 C 
ATOM     52  O7  ASG d 608      22.455  22.628  -1.532  0.00  0.00    -0.274 OA
ATOM     53  S   ASG d 608      25.961  25.850   1.096  0.00  0.00     0.252 S 
ATOM     54  OSC ASG d 608      25.131  26.450   0.033  0.00  0.00    -0.572 OA
ATOM     55  N   ASG d 608      24.192  21.206  -1.278  0.00  0.00    -0.349 N 
ATOM     56  O6  ASG d 608      28.933  23.377   2.690  0.00  0.00    -0.398 OA
ATOM     57  O5  ASG d 608      25.799  21.603   2.055  0.00  0.00    -0.349 OA
ATOM     58  C1  ASG d 608      25.111  20.942   0.975  0.00  0.00     0.151 C 
ATOM     59  C4  ASG d 608      26.643  23.350   0.596  0.00  0.00     0.114 C 
ATOM     60  OSB ASG d 608      27.368  26.054   0.706  0.00  0.00    -0.572 OA
ATOM     61  C3  ASG d 608      25.995  22.685  -0.599  0.00  0.00     0.094 C 
ATOM     62  O4  ASG d 608      25.757  24.277   1.248  0.00  0.00    -0.246 OA
ATOM     63  C5  ASG d 608      27.002  22.290   1.638  0.00  0.00     0.090 C 
ATOM     64  O1  ASG d 608      23.946  20.394   1.485  0.00  0.00    -0.369 OA
ATOM     65  C7  ASG d 608      23.097  21.645  -1.900  0.00  0.00     0.214 C 
ATOM     66  C2  ASG d 608      24.749  21.933  -0.148  0.00  0.00     0.087 C 
ATOM     67  O3  ASG d 608      25.650  23.671  -1.590  0.00  0.00    -0.348 OA
ATOM     68  OSA ASG d 608      25.735  26.407   2.446  0.00  0.00    -0.572 OA
ATOM     69  H   ASG d 608      21.746  21.316  -3.519  0.00  0.00     0.040 H 
ATOM     70  H   ASG d 608      22.409  19.853  -2.830  0.00  0.00     0.040 H 
ATOM     71  H   ASG d 608      23.397  20.859  -3.861  0.00  0.00     0.040 H 
ATOM     72  H   ASG d 608      27.633  22.151   3.673  0.00  0.00     0.078 H 
ATOM     73  H   ASG d 608      27.001  23.731   3.199  0.00  0.00     0.078 H 
ATOM     74  H   ASG d 608      24.628  20.380  -1.588  0.00  0.00     0.163 HD
ATOM     75  H   ASG d 608      29.503  22.639   2.425  0.00  0.00     0.209 HD
ATOM     76  H   ASG d 608      25.749  20.190   0.560  0.00  0.00     0.132 H 
ATOM     77  H   ASG d 608      27.503  23.869   0.228  0.00  0.00     0.093 H 
ATOM     78  H   ASG d 608      26.685  21.993  -1.035  0.00  0.00     0.091 H 
ATOM     79  H   ASG d 608      27.713  21.637   1.178  0.00  0.00     0.090 H 
ATOM     80  H   ASG d 608      23.392  21.099   1.852  0.00  0.00     0.212 HD
ATOM     81  H   ASG d 608      24.028  22.632   0.222  0.00  0.00     0.084 H 
ATOM     82  O6B GCD d 611      32.585  33.603  -6.912  0.00  0.00    -0.642 OA
ATOM     83  C6  GCD d 611      32.832  33.086  -8.072  0.00  0.00     0.233 C 
ATOM     84  C5  GCD d 611      33.517  31.742  -8.097  0.00  0.00     0.147 C 
ATOM     85  C2  GCD d 611      34.219  28.860  -8.374  0.00  0.00     0.111 C 
ATOM     86  O6A GCD d 611      32.523  33.490  -9.259  0.00  0.00    -0.642 OA
ATOM     87  C4  GCD d 611      34.832  31.470  -7.896  0.00  0.00    -0.034 C 
ATOM     88  C1  GCD d 611      32.954  29.288  -7.702  0.00  0.00     0.165 C 
ATOM     89  O3  GCD d 611      36.442  29.589  -8.728  0.00  0.00    -0.389 OA
ATOM     90  O5  GCD d 611      32.606  30.608  -8.354  0.00  0.00    -0.311 OA
ATOM     91  O2  GCD d 611      34.665  27.580  -7.836  0.00  0.00    -0.388 OA
ATOM     92  C3  GCD d 611      35.275  29.962  -7.981  0.00  0.00     0.084 C 
ATOM     93  H   GCD d 611      34.092  28.753  -9.431  0.00  0.00     0.095 H 
ATOM     94  H   GCD d 611      35.511  32.220  -7.696  0.00  0.00     0.085 H 
ATOM     95  H   GCD d 611      33.084  29.313  -6.640  0.00  0.00     0.134 H 
ATOM     96  H   GCD d 611      36.568  28.629  -8.674  0.00  0.00     0.210 HD
ATOM     97  H   GCD d 611      34.786  27.657  -6.877  0.00  0.00     0.210 HD
ATOM     98  H   GCD d 611      35.479  29.965  -6.931  0.00  0.00     0.093 H 
ENDROOT
TORSDOF 25
ENDMDL
MODEL 2
REMARK VINA RESULT:      -9.9      1.008      1.032
REMARK  0 active torsions:
REMARK  status: ('A' for Active; 'I' for Inactive)
REMARK       I    between atoms: O3_1  and  C3_6 
REMARK       I    between atoms: O3_3  and  C3_16 
REMARK       I    between atoms: O3_3  and  C1_32 
REMARK       I    between atoms: C8_5  and  C7_53 
REMARK       I    between atoms: C6_7  and  C5_47 
REMARK       I    between atoms: C6_7  and  O6_29 
REMARK       I    between atoms: O4_8  and  C4_45 
REMARK       I    between atoms: O4_8  and  C1_39 
REMARK       I    between atoms: N_10  and  C2_35 
REMARK       I    between atoms: N_10  and  C7_17 
REMARK       I    between atoms: C5_12  and  C6_42 
REMARK       I    between atoms: C1_14  and  O3_57 
REMARK       I    between atoms: C6_15  and  C5_20 
REMARK       I    between atoms: C7_17  and  C8_54 
REMARK       I    between atoms: O6_18  and  C6_42 
REMARK       I    between atoms: S_19  and  O4_46 
REMARK       I    between atoms: C4_22  and  O4_50 
REMARK       I    between atoms: C2_23  and  O2_51 
REMARK       I    between atoms: S_26  and  O4_50 
REMARK       I    between atoms: N_27  and  C2_56 
REMARK       I    between atoms: N_27  and  C7_53 
REMARK       I    between atoms: C5_31  and  C6_55 
REMARK       I    between atoms: C1_33  and  O1_48 
REMARK       I    between atoms: C4_34  and  O4_46 
REMARK       I    between atoms: C3_40  and  O3_57 
REMARK       I    between atoms: C2_41  and  O2_60 
REMARK       I    between atoms: O3_43  and  C3_52 
ROOT
ATOM      1  O3  BDP d 609      26.412  24.331  -5.648  0.00  0.00    -0.390 OA
ATOM      2  C3  BDP d 609      27.183  23.913  -4.529  0.00  0.00     0.092 C 
ATOM      3  O4  BDP d 609      29.053  25.215  -5.242  0.00  0.00    -0.348 OA
ATOM      4  C1  BDP d 609      27.087  23.337  -2.091  0.00  0.00     0.160 C 
ATOM      5  C5  BDP d 609      28.907  24.676  -2.888  0.00  0.00     0.152 C 
ATOM      6  O5  BDP d 609      27.974  24.441  -1.818  0.00  0.00    -0.340 OA
ATOM      7  O6B BDP d 609      29.337  26.895  -2.152  0.00  0.00    -0.646 OA
ATOM      8  C2  BDP d 609      26.262  23.605  -3.357  0.00  0.00     0.110 C 
ATOM      9  C4  BDP d 609      28.141  25.029  -4.158  0.00  0.00     0.103 C 
ATOM     10  C6  BDP d 609      29.838  25.787  -2.436  0.00  0.00     0.206 C 
ATOM     11  O6A BDP d 609      31.058  25.519  -2.406  0.00  0.00    -0.646 OA
ATOM     12  O2  BDP d 609      25.482  22.456  -3.659  0.00  0.00    -0.388 OA
ATOM     13  H   BDP d 609      25.794  23.626  -5.897  0.00  0.00     0.210 HD
ATOM     14  H   BDP d 609      27.734  23.029  -4.773  0.00  0.00     0.091 H 
ATOM     15  H   BDP d 609      27.664  22.449  -2.243  0.00  0.00     0.133 H 
ATOM     16  H   BDP d 609      29.491  23.809  -3.115  0.00  0.00     0.104 H 
ATOM     17  H   BDP d 609      25.623  24.446  -3.188  0.00  0.00     0.094 H 
ATOM     18  H   BDP d 609      27.593  25.928  -3.974  0.00  0.00     0.092 H 
ATOM     19  H   BDP d 609      26.069  21.699  -3.811  0.00  0.00     0.210 HD
ATOM     20  O7  ASG d 610      32.070  24.491  -7.312  0.00  0.00    -0.274 OA
ATOM     21  O3  ASG d 610      31.608  27.992  -8.188  0.00  0.00    -0.348 OA
ATOM     22  OSB ASG d 610      29.941  28.833 -10.767  0.00  0.00    -0.572 OA
ATOM     23  OSA ASG d 610      27.544  28.838 -10.520  0.00  0.00    -0.572 OA
ATOM     24  N   ASG d 610      31.623  26.222  -5.938  0.00  0.00    -0.349 N 
ATOM     25  C5  ASG d 610      28.106  28.298  -6.813  0.00  0.00     0.090 C 
ATOM     26  C3  ASG d 610      30.518  27.954  -7.245  0.00  0.00     0.094 C 
ATOM     27  C7  ASG d 610      32.333  25.161  -6.310  0.00  0.00     0.214 C 
ATOM     28  O6  ASG d 610      25.826  28.849  -6.194  0.00  0.00    -0.398 OA
ATOM     29  O5  ASG d 610      28.013  26.952  -6.306  0.00  0.00    -0.349 OA
ATOM     30  C4  ASG d 610      29.182  28.348  -7.903  0.00  0.00     0.114 C 
ATOM     31  S   ASG d 610      28.757  28.007 -10.456  0.00  0.00     0.252 S 
ATOM     32  C2  ASG d 610      30.402  26.561  -6.642  0.00  0.00     0.087 C 
ATOM     33  C1  ASG d 610      29.229  26.516  -5.669  0.00  0.00     0.154 C 
ATOM     34  C6  ASG d 610      26.722  28.700  -7.287  0.00  0.00     0.043 C 
ATOM     35  OSC ASG d 610      28.629  26.895 -11.419  0.00  0.00    -0.572 OA
ATOM     36  O4  ASG d 610      28.846  27.424  -8.961  0.00  0.00    -0.246 OA
ATOM     37  C8  ASG d 610      33.523  24.786  -5.434  0.00  0.00    -0.003 C 
ATOM     38  H   ASG d 610      31.927  26.777  -5.185  0.00  0.00     0.163 HD
ATOM     39  H   ASG d 610      28.411  29.003  -6.069  0.00  0.00     0.090 H 
ATOM     40  H   ASG d 610      30.730  28.665  -6.474  0.00  0.00     0.091 H 
ATOM     41  H   ASG d 610      24.951  29.106  -6.526  0.00  0.00     0.209 HD
ATOM     42  H   ASG d 610      29.254  29.326  -8.330  0.00  0.00     0.093 H 
ATOM     43  H   ASG d 610      30.239  25.856  -7.430  0.00  0.00     0.084 H 
ATOM     44  H   ASG d 610      29.445  27.166  -4.847  0.00  0.00     0.132 H 
ATOM     45  H   ASG d 610      26.346  27.945  -7.946  0.00  0.00     0.078 H 
ATOM     46  H   ASG d 610      26.798  29.639  -7.793  0.00  0.00     0.078 H 
ATOM     47  H   ASG d 610      34.006  23.921  -5.839  0.00  0.00     0.040 H 
ATOM     48  H   ASG d 610      33.184  24.573  -4.443  0.00  0.00     0.040 H 
ATOM     49  H   ASG d 610      34.216  25.600  -5.407  0.00  0.00     0.040 H 
ATOM     50  C8  ASG d 608      23.769  19.692  -2.065  0.00  0.00    -0.003 C 
ATOM     51  C6  ASG d 608      28.256  23.438   3.514  0.00  0.00     0.043 C 
ATOM     52  O7  ASG d 608      23.271  21.615  -0.750  0.00  0.00    -0.274 OA
ATOM     53  S   ASG d 608      26.128  25.755   1.320  0.00  0.00     0.252 S 
ATOM     54  OSC ASG d 608      25.214  26.036   0.195  0.00  0.00    -0.572 OA
ATOM     55  N   ASG d 608      25.230  20.575  -0.323  0.00  0.00    -0.349 N 
ATOM     56  O6  ASG d 608      29.476  24.105   3.206  0.00  0.00    -0.398 OA
ATOM     57  O5  ASG d 608      26.712  21.732   2.890  0.00  0.00    -0.349 OA
ATOM     58  C1  ASG d 608      26.162  20.809   1.929  0.00  0.00     0.151 C 
ATOM     59  C4  ASG d 608      27.246  23.368   1.177  0.00  0.00     0.114 C 
ATOM     60  OSB ASG d 608      27.480  26.144   0.881  0.00  0.00    -0.572 OA
ATOM     61  C3  ASG d 608      26.737  22.432   0.103  0.00  0.00     0.094 C 
ATOM     62  O4  ASG d 608      26.205  24.210   1.703  0.00  0.00    -0.246 OA
ATOM     63  C5  ASG d 608      27.778  22.552   2.357  0.00  0.00     0.090 C 
ATOM     64  O1  ASG d 608      25.108  20.145   2.533  0.00  0.00    -0.369 OA
ATOM     65  C7  ASG d 608      24.081  20.718  -0.983  0.00  0.00     0.214 C 
ATOM     66  C2  ASG d 608      25.639  21.546   0.680  0.00  0.00     0.087 C 
ATOM     67  O3  ASG d 608      26.232  23.186  -1.015  0.00  0.00    -0.348 OA
ATOM     68  OSA ASG d 608      25.795  26.454   2.578  0.00  0.00    -0.572 OA
ATOM     69  H   ASG d 608      22.824  19.922  -2.513  0.00  0.00     0.040 H 
ATOM     70  H   ASG d 608      23.729  18.716  -1.630  0.00  0.00     0.040 H 
ATOM     71  H   ASG d 608      24.533  19.719  -2.813  0.00  0.00     0.040 H 
ATOM     72  H   ASG d 608      28.405  22.826   4.379  0.00  0.00     0.078 H 
ATOM     73  H   ASG d 608      27.508  24.183   3.691  0.00  0.00     0.078 H 
ATOM     74  H   ASG d 608      25.809  19.802  -0.516  0.00  0.00     0.163 HD
ATOM     75  H   ASG d 608      30.170  23.449   3.041  0.00  0.00     0.209 HD
ATOM     76  H   ASG d 608      26.927  20.129   1.617  0.00  0.00     0.132 H 
ATOM     77  H   ASG d 608      28.004  23.971   0.724  0.00  0.00     0.093 H 
ATOM     78  H   ASG d 608      27.543  21.816  -0.239  0.00  0.00     0.091 H 
ATOM     79  H   ASG d 608      28.598  21.975   1.984  0.00  0.00     0.090 H 
ATOM     80  H   ASG d 608      24.434  20.787   2.803  0.00  0.00     0.212 HD
ATOM     81  H   ASG d 608      24.803  22.153   0.957  0.00  0.00     0.084 H 
ATOM     82  O6B GCD d 611      31.345  33.299  -7.843  0.00  0.00    -0.642 OA
ATOM     83  C6  GCD d 611      31.691  32.670  -8.919  0.00  0.00     0.233 C 
ATOM     84  C5  GCD d 611      32.602  31.479  -8.761  0.00  0.00     0.147 C 
ATOM     85  C2  GCD d 611      33.807  28.757  -8.627  0.00  0.00     0.111 C 
ATOM     86  O6A GCD d 611      31.325  32.835 -10.147  0.00  0.00    -0.642 OA
ATOM     87  C4  GCD d 611      33.943  31.476  -8.545  0.00  0.00    -0.034 C 
ATOM     88  C1  GCD d 611      32.480  29.049  -8.003  0.00  0.00     0.165 C 
ATOM     89  O3  GCD d 611      35.869  29.808  -9.122  0.00  0.00    -0.389 OA
ATOM     90  O5  GCD d 611      31.909  30.177  -8.835  0.00  0.00    -0.311 OA
ATOM     91  O2  GCD d 611      34.467  27.668  -7.917  0.00  0.00    -0.388 OA
ATOM     92  C3  GCD d 611      34.647  30.074  -8.417  0.00  0.00     0.084 C 
ATOM     93  H   GCD d 611      33.710  28.476  -9.655  0.00  0.00     0.095 H 
ATOM     94  H   GCD d 611      34.477  32.355  -8.468  0.00  0.00     0.085 H 
ATOM     95  H   GCD d 611      32.594  29.251  -6.958  0.00  0.00     0.134 H 
ATOM     96  H   GCD d 611      36.162  28.903  -8.930  0.00  0.00     0.210 HD
ATOM     97  H   GCD d 611      34.565  27.905  -6.981  0.00  0.00     0.210 HD
ATOM     98  H   GCD d 611      34.837  30.266  -7.382  0.00  0.00     0.093 H 
ENDROOT
TORSDOF 25
ENDMDL
MODEL 3
REMARK VINA RESULT:      -9.9      3.043     11.826
REMARK  0 active torsions:
REMARK  status: ('A' for Active; 'I' for Inactive)
REMARK       I    between atoms: O3_1  and  C3_6 
REMARK       I    between atoms: O3_3  and  C3_16 
REMARK       I    between atoms: O3_3  and  C1_32 
REMARK       I    between atoms: C8_5  and  C7_53 
REMARK       I    between atoms: C6_7  and  C5_47 
REMARK       I    between atoms: C6_7  and  O6_29 
REMARK       I    between atoms: O4_8  and  C4_45 
REMARK       I    between atoms: O4_8  and  C1_39 
REMARK       I    between atoms: N_10  and  C2_35 
REMARK       I    between atoms: N_10  and  C7_17 
REMARK       I    between atoms: C5_12  and  C6_42 
REMARK       I    between atoms: C1_14  and  O3_57 
REMARK       I    between atoms: C6_15  and  C5_20 
REMARK       I    between atoms: C7_17  and  C8_54 
REMARK       I    between atoms: O6_18  and  C6_42 
REMARK       I    between atoms: S_19  and  O4_46 
REMARK       I    between atoms: C4_22  and  O4_50 
REMARK       I    between atoms: C2_23  and  O2_51 
REMARK       I    between atoms: S_26  and  O4_50 
REMARK       I    between atoms: N_27  and  C2_56 
REMARK       I    between atoms: N_27  and  C7_53 
REMARK       I    between atoms: C5_31  and  C6_55 
REMARK       I    between atoms: C1_33  and  O1_48 
REMARK       I    between atoms: C4_34  and  O4_46 
REMARK       I    between atoms: C3_40  and  O3_57 
REMARK       I    between atoms: C2_41  and  O2_60 
REMARK       I    between atoms: O3_43  and  C3_52 
ROOT
ATOM      1  O3  BDP d 609      28.244  26.747  -4.222  0.00  0.00    -0.390 OA
ATOM      2  C3  BDP d 609      29.513  26.873  -3.592  0.00  0.00     0.092 C 
ATOM      3  O4  BDP d 609      28.961  25.193  -1.988  0.00  0.00    -0.348 OA
ATOM      4  C1  BDP d 609      31.955  27.277  -3.992  0.00  0.00     0.160 C 
ATOM      5  C5  BDP d 609      31.307  25.579  -2.429  0.00  0.00     0.152 C 
ATOM      6  O5  BDP d 609      32.236  25.966  -3.459  0.00  0.00    -0.340 OA
ATOM      7  O6B BDP d 609      31.842  23.277  -2.682  0.00  0.00    -0.646 OA
ATOM      8  C2  BDP d 609      30.551  27.320  -4.611  0.00  0.00     0.110 C 
ATOM      9  C4  BDP d 609      29.900  25.526  -3.011  0.00  0.00     0.103 C 
ATOM     10  C6  BDP d 609      31.771  24.238  -1.888  0.00  0.00     0.206 C 
ATOM     11  O6A BDP d 609      32.025  24.183  -0.666  0.00  0.00    -0.646 OA
ATOM     12  O2  BDP d 609      30.264  28.648  -5.026  0.00  0.00    -0.388 OA
ATOM     13  H   BDP d 609      27.983  27.603  -4.598  0.00  0.00     0.210 HD
ATOM     14  H   BDP d 609      29.463  27.603  -2.811  0.00  0.00     0.091 H 
ATOM     15  H   BDP d 609      32.000  27.997  -3.202  0.00  0.00     0.133 H 
ATOM     16  H   BDP d 609      31.279  26.283  -1.624  0.00  0.00     0.104 H 
ATOM     17  H   BDP d 609      30.518  26.660  -5.452  0.00  0.00     0.094 H 
ATOM     18  H   BDP d 609      29.889  24.785  -3.782  0.00  0.00     0.092 H 
ATOM     19  H   BDP d 609      30.295  29.240  -4.258  0.00  0.00     0.210 HD
ATOM     20  O7  ASG d 610      27.494  25.272   1.441  0.00  0.00    -0.274 OA
ATOM     21  O3  ASG d 610      26.158  22.077   0.326  0.00  0.00    -0.348 OA
ATOM     22  OSB ASG d 610      23.267  21.877  -0.993  0.00  0.00    -0.572 OA
ATOM     23  OSA ASG d 610      23.127  22.465  -3.325  0.00  0.00    -0.572 OA
ATOM     24  N   ASG d 610      28.570  23.617   0.351  0.00  0.00    -0.349 N 
ATOM     25  C5  ASG d 610      26.913  22.575  -3.338  0.00  0.00     0.090 C 
ATOM     26  C3  ASG d 610      26.914  22.323  -0.876  0.00  0.00     0.094 C 
ATOM     27  C7  ASG d 610      28.442  24.487   1.349  0.00  0.00     0.214 C 
ATOM     28  O6  ASG d 610      27.094  22.579  -5.758  0.00  0.00    -0.398 OA
ATOM     29  O5  ASG d 610      27.552  23.859  -3.199  0.00  0.00    -0.349 OA
ATOM     30  C4  ASG d 610      26.011  22.331  -2.124  0.00  0.00     0.114 C 
ATOM     31  S   ASG d 610      23.479  22.953  -1.982  0.00  0.00     0.252 S 
ATOM     32  C2  ASG d 610      27.647  23.652  -0.766  0.00  0.00     0.087 C 
ATOM     33  C1  ASG d 610      28.420  23.924  -2.052  0.00  0.00     0.154 C 
ATOM     34  C6  ASG d 610      26.182  22.574  -4.667  0.00  0.00     0.043 C 
ATOM     35  OSC ASG d 610      22.643  24.127  -1.663  0.00  0.00    -0.572 OA
ATOM     36  O4  ASG d 610      25.026  23.384  -2.031  0.00  0.00    -0.246 OA
ATOM     37  C8  ASG d 610      29.533  24.482   2.414  0.00  0.00    -0.003 C 
ATOM     38  H   ASG d 610      29.294  22.950   0.371  0.00  0.00     0.163 HD
ATOM     39  H   ASG d 610      27.610  21.763  -3.351  0.00  0.00     0.090 H 
ATOM     40  H   ASG d 610      27.621  21.528  -0.985  0.00  0.00     0.091 H 
ATOM     41  H   ASG d 610      26.600  22.579  -6.592  0.00  0.00     0.209 HD
ATOM     42  H   ASG d 610      25.490  21.401  -2.211  0.00  0.00     0.093 H 
ATOM     43  H   ASG d 610      26.930  24.431  -0.609  0.00  0.00     0.084 H 
ATOM     44  H   ASG d 610      29.185  23.182  -2.151  0.00  0.00     0.132 H 
ATOM     45  H   ASG d 610      25.564  23.445  -4.726  0.00  0.00     0.078 H 
ATOM     46  H   ASG d 610      25.590  21.685  -4.726  0.00  0.00     0.078 H 
ATOM     47  H   ASG d 610      29.313  25.222   3.154  0.00  0.00     0.040 H 
ATOM     48  H   ASG d 610      30.476  24.701   1.959  0.00  0.00     0.040 H 
ATOM     49  H   ASG d 610      29.576  23.518   2.875  0.00  0.00     0.040 H 
ATOM     50  C8  ASG d 608      31.873  31.634  -6.293  0.00  0.00    -0.003 C 
ATOM     51  C6  ASG d 608      37.624  26.476  -3.926  0.00  0.00     0.043 C 
ATOM     52  O7  ASG d 608      32.861  29.812  -7.466  0.00  0.00    -0.274 OA
ATOM     53  S   ASG d 608      34.867  24.943  -6.106  0.00  0.00     0.252 S 
ATOM     54  OSC ASG d 608      33.587  24.986  -6.839  0.00  0.00    -0.572 OA
ATOM     55  N   ASG d 608      33.712  30.285  -5.428  0.00  0.00    -0.349 N 
ATOM     56  O6  ASG d 608      37.439  25.544  -2.864  0.00  0.00    -0.398 OA
ATOM     57  O5  ASG d 608      36.964  28.560  -4.877  0.00  0.00    -0.349 OA
ATOM     58  C1  ASG d 608      36.041  29.659  -5.007  0.00  0.00     0.151 C 
ATOM     59  C4  ASG d 608      35.181  26.970  -4.445  0.00  0.00     0.114 C 
ATOM     60  OSB ASG d 608      34.606  24.255  -4.829  0.00  0.00    -0.572 OA
ATOM     61  C3  ASG d 608      34.155  28.080  -4.510  0.00  0.00     0.094 C 
ATOM     62  O4  ASG d 608      35.433  26.386  -5.735  0.00  0.00    -0.246 OA
ATOM     63  C5  ASG d 608      36.516  27.536  -3.959  0.00  0.00     0.090 C 
ATOM     64  O1  ASG d 608      36.543  30.524  -5.964  0.00  0.00    -0.369 OA
ATOM     65  C7  ASG d 608      32.866  30.488  -6.437  0.00  0.00     0.214 C 
ATOM     66  C2  ASG d 608      34.648  29.172  -5.452  0.00  0.00     0.087 C 
ATOM     67  O3  ASG d 608      32.891  27.562  -4.968  0.00  0.00    -0.348 OA
ATOM     68  OSA ASG d 608      35.967  24.262  -6.821  0.00  0.00    -0.572 OA
ATOM     69  H   ASG d 608      31.258  31.686  -7.167  0.00  0.00     0.040 H 
ATOM     70  H   ASG d 608      32.406  32.555  -6.177  0.00  0.00     0.040 H 
ATOM     71  H   ASG d 608      31.259  31.468  -5.434  0.00  0.00     0.040 H 
ATOM     72  H   ASG d 608      38.567  26.966  -3.796  0.00  0.00     0.078 H 
ATOM     73  H   ASG d 608      37.593  25.936  -4.849  0.00  0.00     0.078 H 
ATOM     74  H   ASG d 608      33.704  30.897  -4.657  0.00  0.00     0.163 HD
ATOM     75  H   ASG d 608      37.464  26.012  -2.015  0.00  0.00     0.209 HD
ATOM     76  H   ASG d 608      35.935  30.143  -4.058  0.00  0.00     0.132 H 
ATOM     77  H   ASG d 608      34.787  26.228  -3.782  0.00  0.00     0.093 H 
ATOM     78  H   ASG d 608      34.018  28.493  -3.533  0.00  0.00     0.091 H 
ATOM     79  H   ASG d 608      36.348  27.911  -2.971  0.00  0.00     0.090 H 
ATOM     80  H   ASG d 608      36.626  30.057  -6.810  0.00  0.00     0.212 HD
ATOM     81  H   ASG d 608      34.716  28.780  -6.445  0.00  0.00     0.084 H 
ATOM     82  O6B GCD d 611      25.841  17.001  -1.252  0.00  0.00    -0.642 OA
ATOM     83  C6  GCD d 611      24.913  17.598  -0.575  0.00  0.00     0.233 C 
ATOM     84  C5  GCD d 611      25.351  18.503   0.549  0.00  0.00     0.147 C 
ATOM     85  C2  GCD d 611      25.989  20.811   2.322  0.00  0.00     0.111 C 
ATOM     86  O6A GCD d 611      23.632  17.621  -0.739  0.00  0.00    -0.642 OA
ATOM     87  C4  GCD d 611      25.777  18.149   1.789  0.00  0.00    -0.034 C 
ATOM     88  C1  GCD d 611      26.356  20.823   0.872  0.00  0.00     0.165 C 
ATOM     89  O3  GCD d 611      25.710  19.308   4.129  0.00  0.00    -0.389 OA
ATOM     90  O5  GCD d 611      25.319  19.940   0.211  0.00  0.00    -0.311 OA
ATOM     91  O2  GCD d 611      26.916  21.641   3.081  0.00  0.00    -0.388 OA
ATOM     92  C3  GCD d 611      26.176  19.312   2.771  0.00  0.00     0.084 C 
ATOM     93  H   GCD d 611      24.998  21.181   2.484  0.00  0.00     0.095 H 
ATOM     94  H   GCD d 611      25.836  17.159   2.075  0.00  0.00     0.085 H 
ATOM     95  H   GCD d 611      27.375  20.523   0.742  0.00  0.00     0.134 H 
ATOM     96  H   GCD d 611      26.049  20.092   4.589  0.00  0.00     0.210 HD
ATOM     97  H   GCD d 611      27.821  21.320   2.947  0.00  0.00     0.210 HD
ATOM     98  H   GCD d 611      27.199  19.003   2.718  0.00  0.00     0.093 H 
ENDROOT
TORSDOF 25
ENDMDL
MODEL 4
REMARK VINA RESULT:      -9.8      3.901     11.392
REMARK  0 active torsions:
REMARK  status: ('A' for Active; 'I' for Inactive)
REMARK       I    between atoms: O3_1  and  C3_6 
REMARK       I    between atoms: O3_3  and  C3_16 
REMARK       I    between atoms: O3_3  and  C1_32 
REMARK       I    between atoms: C8_5  and  C7_53 
REMARK       I    between atoms: C6_7  and  C5_47 
REMARK       I    between atoms: C6_7  and  O6_29 
REMARK       I    between atoms: O4_8  and  C4_45 
REMARK       I    between atoms: O4_8  and  C1_39 
REMARK       I    between atoms: N_10  and  C2_35 
REMARK       I    between atoms: N_10  and  C7_17 
REMARK       I    between atoms: C5_12  and  C6_42 
REMARK       I    between atoms: C1_14  and  O3_57 
REMARK       I    between atoms: C6_15  and  C5_20 
REMARK       I    between atoms: C7_17  and  C8_54 
REMARK       I    between atoms: O6_18  and  C6_42 
REMARK       I    between atoms: S_19  and  O4_46 
REMARK       I    between atoms: C4_22  and  O4_50 
REMARK       I    between atoms: C2_23  and  O2_51 
REMARK       I    between atoms: S_26  and  O4_50 
REMARK       I    between atoms: N_27  and  C2_56 
REMARK       I    between atoms: N_27  and  C7_53 
REMARK       I    between atoms: C5_31  and  C6_55 
REMARK       I    between atoms: C1_33  and  O1_48 
REMARK       I    between atoms: C4_34  and  O4_46 
REMARK       I    between atoms: C3_40  and  O3_57 
REMARK       I    between atoms: C2_41  and  O2_60 
REMARK       I    between atoms: O3_43  and  C3_52 
ROOT
ATOM      1  O3  BDP d 609      29.015  26.703  -4.898  0.00  0.00    -0.390 OA
ATOM      2  C3  BDP d 609      29.848  26.889  -3.761  0.00  0.00     0.092 C 
ATOM      3  O4  BDP d 609      28.637  25.250  -2.517  0.00  0.00    -0.348 OA
ATOM      4  C1  BDP d 609      32.196  27.350  -3.011  0.00  0.00     0.160 C 
ATOM      5  C5  BDP d 609      30.919  25.690  -1.847  0.00  0.00     0.152 C 
ATOM      6  O5  BDP d 609      32.213  26.068  -2.350  0.00  0.00    -0.340 OA
ATOM      7  O6B BDP d 609      31.533  23.398  -1.722  0.00  0.00    -0.646 OA
ATOM      8  C2  BDP d 609      31.235  27.330  -4.208  0.00  0.00     0.110 C 
ATOM      9  C4  BDP d 609      29.939  25.575  -3.008  0.00  0.00     0.103 C 
ATOM     10  C6  BDP d 609      31.095  24.384  -1.094  0.00  0.00     0.206 C 
ATOM     11  O6A BDP d 609      30.757  24.380   0.110  0.00  0.00    -0.646 OA
ATOM     12  O2  BDP d 609      31.158  28.633  -4.768  0.00  0.00    -0.388 OA
ATOM     13  H   BDP d 609      28.948  27.537  -5.390  0.00  0.00     0.210 HD
ATOM     14  H   BDP d 609      29.438  27.644  -3.125  0.00  0.00     0.091 H 
ATOM     15  H   BDP d 609      31.865  28.099  -2.322  0.00  0.00     0.133 H 
ATOM     16  H   BDP d 609      30.515  26.421  -1.178  0.00  0.00     0.104 H 
ATOM     17  H   BDP d 609      31.600  26.640  -4.939  0.00  0.00     0.094 H 
ATOM     18  H   BDP d 609      30.292  24.807  -3.663  0.00  0.00     0.092 H 
ATOM     19  H   BDP d 609      30.826  29.253  -4.099  0.00  0.00     0.210 HD
ATOM     20  O7  ASG d 610      25.755  25.407  -0.155  0.00  0.00    -0.274 OA
ATOM     21  O3  ASG d 610      25.115  22.136  -1.614  0.00  0.00    -0.348 OA
ATOM     22  OSB ASG d 610      23.159  21.804  -4.104  0.00  0.00    -0.572 OA
ATOM     23  OSA ASG d 610      24.103  22.305  -6.263  0.00  0.00    -0.572 OA
ATOM     24  N   ASG d 610      27.229  23.748  -0.552  0.00  0.00    -0.349 N 
ATOM     25  C5  ASG d 610      27.468  22.527  -4.539  0.00  0.00     0.090 C 
ATOM     26  C3  ASG d 610      26.337  22.362  -2.344  0.00  0.00     0.094 C 
ATOM     27  C7  ASG d 610      26.646  24.648   0.235  0.00  0.00     0.214 C 
ATOM     28  O6  ASG d 610      28.743  22.451  -6.602  0.00  0.00    -0.398 OA
ATOM     29  O5  ASG d 610      27.958  23.834  -4.180  0.00  0.00    -0.349 OA
ATOM     30  C4  ASG d 610      26.110  22.299  -3.866  0.00  0.00     0.114 C 
ATOM     31  S   ASG d 610      23.791  22.850  -4.933  0.00  0.00     0.252 S 
ATOM     32  C2  ASG d 610      26.923  23.715  -1.969  0.00  0.00     0.087 C 
ATOM     33  C1  ASG d 610      28.199  23.964  -2.766  0.00  0.00     0.154 C 
ATOM     34  C6  ASG d 610      27.432  22.457  -6.053  0.00  0.00     0.043 C 
ATOM     35  OSC ASG d 610      22.891  24.010  -5.087  0.00  0.00    -0.572 OA
ATOM     36  O4  ASG d 610      25.183  23.325  -4.284  0.00  0.00    -0.246 OA
ATOM     37  C8  ASG d 610      27.124  24.712   1.681  0.00  0.00    -0.003 C 
ATOM     38  H   ASG d 610      27.868  23.103  -0.171  0.00  0.00     0.163 HD
ATOM     39  H   ASG d 610      28.101  21.736  -4.193  0.00  0.00     0.090 H 
ATOM     40  H   ASG d 610      27.022  21.585  -2.079  0.00  0.00     0.091 H 
ATOM     41  H   ASG d 610      28.689  22.407  -7.569  0.00  0.00     0.209 HD
ATOM     42  H   ASG d 610      25.697  21.351  -4.141  0.00  0.00     0.093 H 
ATOM     43  H   ASG d 610      26.207  24.478  -2.194  0.00  0.00     0.084 H 
ATOM     44  H   ASG d 610      28.931  23.243  -2.468  0.00  0.00     0.132 H 
ATOM     45  H   ASG d 610      26.901  23.307  -6.429  0.00  0.00     0.078 H 
ATOM     46  H   ASG d 610      26.942  21.550  -6.338  0.00  0.00     0.078 H 
ATOM     47  H   ASG d 610      26.580  25.471   2.204  0.00  0.00     0.040 H 
ATOM     48  H   ASG d 610      28.168  24.944   1.702  0.00  0.00     0.040 H 
ATOM     49  H   ASG d 610      26.959  23.767   2.154  0.00  0.00     0.040 H 
ATOM     50  C8  ASG d 608      33.140  31.620  -5.286  0.00  0.00    -0.003 C 
ATOM     51  C6  ASG d 608      37.205  26.721  -0.309  0.00  0.00     0.043 C 
ATOM     52  O7  ASG d 608      34.575  29.787  -5.789  0.00  0.00    -0.274 OA
ATOM     53  S   ASG d 608      35.779  25.031  -3.442  0.00  0.00     0.252 S 
ATOM     54  OSC ASG d 608      34.979  25.010  -4.682  0.00  0.00    -0.572 OA
ATOM     55  N   ASG d 608      34.387  30.357  -3.612  0.00  0.00    -0.349 N 
ATOM     56  O6  ASG d 608      36.561  25.822   0.589  0.00  0.00    -0.398 OA
ATOM     57  O5  ASG d 608      37.036  28.749  -1.551  0.00  0.00    -0.349 OA
ATOM     58  C1  ASG d 608      36.266  29.816  -2.139  0.00  0.00     0.151 C 
ATOM     59  C4  ASG d 608      35.271  27.124  -1.916  0.00  0.00     0.114 C 
ATOM     60  OSB ASG d 608      34.966  24.381  -2.398  0.00  0.00    -0.572 OA
ATOM     61  C3  ASG d 608      34.379  28.200  -2.496  0.00  0.00     0.094 C 
ATOM     62  O4  ASG d 608      36.095  26.502  -2.917  0.00  0.00    -0.246 OA
ATOM     63  C5  ASG d 608      36.226  27.746  -0.896  0.00  0.00     0.090 C 
ATOM     64  O1  ASG d 608      37.144  30.661  -2.796  0.00  0.00    -0.369 OA
ATOM     65  C7  ASG d 608      34.099  30.499  -4.905  0.00  0.00     0.214 C 
ATOM     66  C2  ASG d 608      35.240  29.272  -3.153  0.00  0.00     0.087 C 
ATOM     67  O3  ASG d 608      33.474  27.629  -3.459  0.00  0.00    -0.348 OA
ATOM     68  OSA ASG d 608      37.091  24.358  -3.539  0.00  0.00    -0.572 OA
ATOM     69  H   ASG d 608      32.996  31.622  -6.346  0.00  0.00     0.040 H 
ATOM     70  H   ASG d 608      33.550  32.559  -4.979  0.00  0.00     0.040 H 
ATOM     71  H   ASG d 608      32.200  31.465  -4.798  0.00  0.00     0.040 H 
ATOM     72  H   ASG d 608      37.977  27.243   0.217  0.00  0.00     0.078 H 
ATOM     73  H   ASG d 608      37.609  26.148  -1.118  0.00  0.00     0.078 H 
ATOM     74  H   ASG d 608      34.018  30.995  -2.959  0.00  0.00     0.163 HD
ATOM     75  H   ASG d 608      36.188  26.320   1.332  0.00  0.00     0.209 HD
ATOM     76  H   ASG d 608      35.731  30.329  -1.368  0.00  0.00     0.132 H 
ATOM     77  H   ASG d 608      34.624  26.394  -1.476  0.00  0.00     0.093 H 
ATOM     78  H   ASG d 608      33.804  28.643  -1.710  0.00  0.00     0.091 H 
ATOM     79  H   ASG d 608      35.618  28.150  -0.114  0.00  0.00     0.090 H 
ATOM     80  H   ASG d 608      37.612  30.167  -3.487  0.00  0.00     0.212 HD
ATOM     81  H   ASG d 608      35.762  28.847  -3.985  0.00  0.00     0.084 H 
ATOM     82  O6B GCD d 611      25.612  17.001  -2.931  0.00  0.00    -0.642 OA
ATOM     83  C6  GCD d 611      24.471  17.593  -2.785  0.00  0.00     0.233 C 
ATOM     84  C5  GCD d 611      24.332  18.550  -1.627  0.00  0.00     0.147 C 
ATOM     85  C2  GCD d 611      24.058  20.937   0.135  0.00  0.00     0.111 C 
ATOM     86  O6A GCD d 611      23.409  17.572  -3.520  0.00  0.00    -0.642 OA
ATOM     87  C4  GCD d 611      24.142  18.252  -0.316  0.00  0.00    -0.034 C 
ATOM     88  C1  GCD d 611      25.051  20.908  -0.982  0.00  0.00     0.165 C 
ATOM     89  O3  GCD d 611      22.994  19.491   1.677  0.00  0.00    -0.389 OA
ATOM     90  O5  GCD d 611      24.445  19.973  -2.005  0.00  0.00    -0.311 OA
ATOM     91  O2  GCD d 611      24.522  21.821   1.198  0.00  0.00    -0.388 OA
ATOM     92  C3  GCD d 611      24.032  19.461   0.687  0.00  0.00     0.084 C 
ATOM     93  H   GCD d 611      23.100  21.283  -0.194  0.00  0.00     0.095 H 
ATOM     94  H   GCD d 611      24.073  17.276   0.010  0.00  0.00     0.085 H 
ATOM     95  H   GCD d 611      26.019  20.634  -0.616  0.00  0.00     0.134 H 
ATOM     96  H   GCD d 611      23.074  20.301   2.205  0.00  0.00     0.210 HD
ATOM     97  H   GCD d 611      25.391  21.522   1.509  0.00  0.00     0.210 HD
ATOM     98  H   GCD d 611      24.968  19.181   1.124  0.00  0.00     0.093 H 
ENDROOT
TORSDOF 25
ENDMDL
MODEL 5
REMARK VINA RESULT:      -9.5      3.055     11.655
REMARK  0 active torsions:
REMARK  status: ('A' for Active; 'I' for Inactive)
REMARK       I    between atoms: O3_1  and  C3_6 
REMARK       I    between atoms: O3_3  and  C3_16 
REMARK       I    between atoms: O3_3  and  C1_32 
REMARK       I    between atoms: C8_5  and  C7_53 
REMARK       I    between atoms: C6_7  and  C5_47 
REMARK       I    between atoms: C6_7  and  O6_29 
REMARK       I    between atoms: O4_8  and  C4_45 
REMARK       I    between atoms: O4_8  and  C1_39 
REMARK       I    between atoms: N_10  and  C2_35 
REMARK       I    between atoms: N_10  and  C7_17 
REMARK       I    between atoms: C5_12  and  C6_42 
REMARK       I    between atoms: C1_14  and  O3_57 
REMARK       I    between atoms: C6_15  and  C5_20 
REMARK       I    between atoms: C7_17  and  C8_54 
REMARK       I    between atoms: O6_18  and  C6_42 
REMARK       I    between atoms: S_19  and  O4_46 
REMARK       I    between atoms: C4_22  and  O4_50 
REMARK       I    between atoms: C2_23  and  O2_51 
REMARK       I    between atoms: S_26  and  O4_50 
REMARK       I    between atoms: N_27  and  C2_56 
REMARK       I    between atoms: N_27  and  C7_53 
REMARK       I    between atoms: C5_31  and  C6_55 
REMARK       I    between atoms: C1_33  and  O1_48 
REMARK       I    between atoms: C4_34  and  O4_46 
REMARK       I    between atoms: C3_40  and  O3_57 
REMARK       I    between atoms: C2_41  and  O2_60 
REMARK       I    between atoms: O3_43  and  C3_52 
ROOT
ATOM      1  O3  BDP d 609      30.819  24.743  -0.414  0.00  0.00    -0.390 OA
ATOM      2  C3  BDP d 609      31.213  24.986  -1.759  0.00  0.00     0.092 C 
ATOM      3  O4  BDP d 609      29.352  23.751  -2.601  0.00  0.00    -0.348 OA
ATOM      4  C1  BDP d 609      32.229  26.675  -3.309  0.00  0.00     0.160 C 
ATOM      5  C5  BDP d 609      30.330  25.418  -4.057  0.00  0.00     0.152 C 
ATOM      6  O5  BDP d 609      30.997  26.694  -4.060  0.00  0.00    -0.340 OA
ATOM      7  O6B BDP d 609      28.250  26.398  -4.658  0.00  0.00    -0.646 OA
ATOM      8  C2  BDP d 609      31.965  26.307  -1.843  0.00  0.00     0.110 C 
ATOM      9  C4  BDP d 609      29.970  25.039  -2.625  0.00  0.00     0.103 C 
ATOM     10  C6  BDP d 609      29.113  25.546  -4.955  0.00  0.00     0.206 C 
ATOM     11  O6A BDP d 609      29.046  24.761  -5.925  0.00  0.00    -0.646 OA
ATOM     12  O2  BDP d 609      33.204  26.190  -1.160  0.00  0.00    -0.388 OA
ATOM     13  H   BDP d 609      31.607  24.706   0.152  0.00  0.00     0.210 HD
ATOM     14  H   BDP d 609      31.859  24.204  -2.099  0.00  0.00     0.091 H 
ATOM     15  H   BDP d 609      32.887  25.944  -3.729  0.00  0.00     0.133 H 
ATOM     16  H   BDP d 609      30.953  24.634  -4.432  0.00  0.00     0.104 H 
ATOM     17  H   BDP d 609      31.370  27.073  -1.391  0.00  0.00     0.094 H 
ATOM     18  H   BDP d 609      29.298  25.781  -2.246  0.00  0.00     0.092 H 
ATOM     19  H   BDP d 609      33.737  25.494  -1.575  0.00  0.00     0.210 HD
ATOM     20  O7  ASG d 610      28.855  20.198  -3.623  0.00  0.00    -0.274 OA
ATOM     21  O3  ASG d 610      25.505  20.909  -2.393  0.00  0.00    -0.348 OA
ATOM     22  OSB ASG d 610      24.685  20.245   0.611  0.00  0.00    -0.572 OA
ATOM     23  OSA ASG d 610      25.365  21.852   2.272  0.00  0.00    -0.572 OA
ATOM     24  N   ASG d 610      27.587  22.021  -4.014  0.00  0.00    -0.349 N 
ATOM     25  C5  ASG d 610      26.401  24.103  -0.592  0.00  0.00     0.090 C 
ATOM     26  C3  ASG d 610      26.004  22.244  -2.177  0.00  0.00     0.094 C 
ATOM     27  C7  ASG d 610      28.334  20.994  -4.408  0.00  0.00     0.214 C 
ATOM     28  O6  ASG d 610      26.601  26.088   0.790  0.00  0.00    -0.398 OA
ATOM     29  O5  ASG d 610      27.792  24.118  -0.970  0.00  0.00    -0.349 OA
ATOM     30  C4  ASG d 610      25.868  22.671  -0.703  0.00  0.00     0.114 C 
ATOM     31  S   ASG d 610      25.839  20.922   1.236  0.00  0.00     0.252 S 
ATOM     32  C2  ASG d 610      27.463  22.329  -2.602  0.00  0.00     0.087 C 
ATOM     33  C1  ASG d 610      27.996  23.734  -2.343  0.00  0.00     0.154 C 
ATOM     34  C6  ASG d 610      26.304  24.697   0.800  0.00  0.00     0.043 C 
ATOM     35  OSC ASG d 610      26.750  19.938   1.853  0.00  0.00    -0.572 OA
ATOM     36  O4  ASG d 610      26.640  21.798   0.151  0.00  0.00    -0.246 OA
ATOM     37  C8  ASG d 610      28.530  20.821  -5.911  0.00  0.00    -0.003 C 
ATOM     38  H   ASG d 610      27.117  22.572  -4.680  0.00  0.00     0.163 HD
ATOM     39  H   ASG d 610      25.788  24.694  -1.240  0.00  0.00     0.090 H 
ATOM     40  H   ASG d 610      25.415  22.911  -2.770  0.00  0.00     0.091 H 
ATOM     41  H   ASG d 610      26.531  26.440   1.690  0.00  0.00     0.209 HD
ATOM     42  H   ASG d 610      24.846  22.615  -0.393  0.00  0.00     0.093 H 
ATOM     43  H   ASG d 610      28.031  21.621  -2.034  0.00  0.00     0.084 H 
ATOM     44  H   ASG d 610      27.473  24.417  -2.979  0.00  0.00     0.132 H 
ATOM     45  H   ASG d 610      26.999  24.198   1.442  0.00  0.00     0.078 H 
ATOM     46  H   ASG d 610      25.303  24.568   1.153  0.00  0.00     0.078 H 
ATOM     47  H   ASG d 610      29.146  19.966  -6.094  0.00  0.00     0.040 H 
ATOM     48  H   ASG d 610      29.002  21.693  -6.311  0.00  0.00     0.040 H 
ATOM     49  H   ASG d 610      27.579  20.684  -6.381  0.00  0.00     0.040 H 
ATOM     50  C8  ASG d 608      36.568  27.532  -1.135  0.00  0.00    -0.003 C 
ATOM     51  C6  ASG d 608      32.842  30.174  -7.800  0.00  0.00     0.043 C 
ATOM     52  O7  ASG d 608      35.121  29.401  -1.432  0.00  0.00    -0.274 OA
ATOM     53  S   ASG d 608      30.818  30.527  -4.562  0.00  0.00     0.252 S 
ATOM     54  OSC ASG d 608      30.591  30.322  -3.118  0.00  0.00    -0.572 OA
ATOM     55  N   ASG d 608      35.660  28.233  -3.289  0.00  0.00    -0.349 N 
ATOM     56  O6  ASG d 608      31.828  29.428  -8.468  0.00  0.00    -0.398 OA
ATOM     57  O5  ASG d 608      34.755  30.097  -6.380  0.00  0.00    -0.349 OA
ATOM     58  C1  ASG d 608      35.600  29.424  -5.426  0.00  0.00     0.151 C 
ATOM     59  C4  ASG d 608      32.752  29.017  -5.534  0.00  0.00     0.114 C 
ATOM     60  OSB ASG d 608      30.009  29.519  -5.270  0.00  0.00    -0.572 OA
ATOM     61  C3  ASG d 608      33.578  28.230  -4.540  0.00  0.00     0.094 C 
ATOM     62  O4  ASG d 608      32.329  30.286  -5.006  0.00  0.00    -0.246 OA
ATOM     63  C5  ASG d 608      33.597  29.324  -6.772  0.00  0.00     0.090 C 
ATOM     64  O1  ASG d 608      36.620  30.292  -5.075  0.00  0.00    -0.369 OA
ATOM     65  C7  ASG d 608      35.711  28.469  -1.978  0.00  0.00     0.214 C 
ATOM     66  C2  ASG d 608      34.814  29.036  -4.158  0.00  0.00     0.087 C 
ATOM     67  O3  ASG d 608      32.795  27.934  -3.368  0.00  0.00    -0.348 OA
ATOM     68  OSA ASG d 608      30.474  31.876  -5.057  0.00  0.00    -0.572 OA
ATOM     69  H   ASG d 608      36.521  27.832  -0.109  0.00  0.00     0.040 H 
ATOM     70  H   ASG d 608      37.582  27.576  -1.474  0.00  0.00     0.040 H 
ATOM     71  H   ASG d 608      36.202  26.532  -1.231  0.00  0.00     0.040 H 
ATOM     72  H   ASG d 608      33.538  30.538  -8.526  0.00  0.00     0.078 H 
ATOM     73  H   ASG d 608      32.369  30.981  -7.280  0.00  0.00     0.078 H 
ATOM     74  H   ASG d 608      36.201  27.506  -3.673  0.00  0.00     0.163 HD
ATOM     75  H   ASG d 608      32.234  28.690  -8.948  0.00  0.00     0.209 HD
ATOM     76  H   ASG d 608      35.983  28.528  -5.867  0.00  0.00     0.132 H 
ATOM     77  H   ASG d 608      31.896  28.417  -5.763  0.00  0.00     0.093 H 
ATOM     78  H   ASG d 608      33.883  27.307  -4.986  0.00  0.00     0.091 H 
ATOM     79  H   ASG d 608      33.856  28.381  -7.206  0.00  0.00     0.090 H 
ATOM     80  H   ASG d 608      36.241  31.092  -4.679  0.00  0.00     0.212 HD
ATOM     81  H   ASG d 608      34.514  29.926  -3.647  0.00  0.00     0.084 H 
ATOM     82  O6B GCD d 611      20.616  22.968  -1.937  0.00  0.00    -0.642 OA
ATOM     83  C6  GCD d 611      20.924  21.768  -1.563  0.00  0.00     0.233 C 
ATOM     84  C5  GCD d 611      21.836  20.975  -2.464  0.00  0.00     0.147 C 
ATOM     85  C2  GCD d 611      24.115  19.515  -3.710  0.00  0.00     0.111 C 
ATOM     86  O6A GCD d 611      20.641  21.125  -0.478  0.00  0.00    -0.642 OA
ATOM     87  C4  GCD d 611      21.520  20.339  -3.621  0.00  0.00    -0.034 C 
ATOM     88  C1  GCD d 611      24.307  20.857  -3.078  0.00  0.00     0.165 C 
ATOM     89  O3  GCD d 611      22.480  18.250  -4.862  0.00  0.00    -0.389 OA
ATOM     90  O5  GCD d 611      23.240  20.928  -2.008  0.00  0.00    -0.311 OA
ATOM     91  O2  GCD d 611      25.098  19.312  -4.767  0.00  0.00    -0.388 OA
ATOM     92  C3  GCD d 611      22.682  19.581  -4.365  0.00  0.00     0.084 C 
ATOM     93  H   GCD d 611      24.219  18.722  -2.999  0.00  0.00     0.095 H 
ATOM     94  H   GCD d 611      20.560  20.352  -3.997  0.00  0.00     0.085 H 
ATOM     95  H   GCD d 611      24.275  21.627  -3.820  0.00  0.00     0.134 H 
ATOM     96  H   GCD d 611      23.293  17.937  -5.289  0.00  0.00     0.210 HD
ATOM     97  H   GCD d 611      25.018  20.023  -5.423  0.00  0.00     0.210 HD
ATOM     98  H   GCD d 611      22.638  20.296  -5.159  0.00  0.00     0.093 H 
ENDROOT
TORSDOF 25
ENDMDL
MODEL 6
REMARK VINA RESULT:      -9.5      2.756     11.823
REMARK  0 active torsions:
REMARK  status: ('A' for Active; 'I' for Inactive)
REMARK       I    between atoms: O3_1  and  C3_6 
REMARK       I    between atoms: O3_3  and  C3_16 
REMARK       I    between atoms: O3_3  and  C1_32 
REMARK       I    between atoms: C8_5  and  C7_53 
REMARK       I    between atoms: C6_7  and  C5_47 
REMARK       I    between atoms: C6_7  and  O6_29 
REMARK       I    between atoms: O4_8  and  C4_45 
REMARK       I    between atoms: O4_8  and  C1_39 
REMARK       I    between atoms: N_10  and  C2_35 
REMARK       I    between atoms: N_10  and  C7_17 
REMARK       I    between atoms: C5_12  and  C6_42 
REMARK       I    between atoms: C1_14  and  O3_57 
REMARK       I    between atoms: C6_15  and  C5_20 
REMARK       I    between atoms: C7_17  and  C8_54 
REMARK       I    between atoms: O6_18  and  C6_42 
REMARK       I    between atoms: S_19  and  O4_46 
REMARK       I    between atoms: C4_22  and  O4_50 
REMARK       I    between atoms: C2_23  and  O2_51 
REMARK       I    between atoms: S_26  and  O4_50 
REMARK       I    between atoms: N_27  and  C2_56 
REMARK       I    between atoms: N_27  and  C7_53 
REMARK       I    between atoms: C5_31  and  C6_55 
REMARK       I    between atoms: C1_33  and  O1_48 
REMARK       I    between atoms: C4_34  and  O4_46 
REMARK       I    between atoms: C3_40  and  O3_57 
REMARK       I    between atoms: C2_41  and  O2_60 
REMARK       I    between atoms: O3_43  and  C3_52 
ROOT
ATOM      1  O3  BDP d 609      27.881  26.522  -4.684  0.00  0.00    -0.390 OA
ATOM      2  C3  BDP d 609      29.216  26.531  -4.194  0.00  0.00     0.092 C 
ATOM      3  O4  BDP d 609      28.693  24.892  -2.539  0.00  0.00    -0.348 OA
ATOM      4  C1  BDP d 609      31.627  26.723  -4.855  0.00  0.00     0.160 C 
ATOM      5  C5  BDP d 609      31.004  25.075  -3.230  0.00  0.00     0.152 C 
ATOM      6  O5  BDP d 609      31.847  25.388  -4.354  0.00  0.00    -0.340 OA
ATOM      7  O6B BDP d 609      31.303  22.738  -3.537  0.00  0.00    -0.646 OA
ATOM      8  C2  BDP d 609      30.174  26.895  -5.319  0.00  0.00     0.110 C 
ATOM      9  C4  BDP d 609      29.543  25.151  -3.657  0.00  0.00     0.103 C 
ATOM     10  C6  BDP d 609      31.403  23.694  -2.741  0.00  0.00     0.206 C 
ATOM     11  O6A BDP d 609      31.781  23.607  -1.553  0.00  0.00    -0.646 OA
ATOM     12  O2  BDP d 609      29.962  28.246  -5.702  0.00  0.00    -0.388 OA
ATOM     13  H   BDP d 609      27.658  27.401  -5.030  0.00  0.00     0.210 HD
ATOM     14  H   BDP d 609      29.315  27.256  -3.413  0.00  0.00     0.091 H 
ATOM     15  H   BDP d 609      31.820  27.429  -4.075  0.00  0.00     0.133 H 
ATOM     16  H   BDP d 609      31.124  25.772  -2.427  0.00  0.00     0.104 H 
ATOM     17  H   BDP d 609      29.993  26.247  -6.151  0.00  0.00     0.094 H 
ATOM     18  H   BDP d 609      29.385  24.420  -4.422  0.00  0.00     0.092 H 
ATOM     19  H   BDP d 609      30.128  28.827  -4.943  0.00  0.00     0.210 HD
ATOM     20  O7  ASG d 610      27.616  25.071   1.028  0.00  0.00    -0.274 OA
ATOM     21  O3  ASG d 610      25.892  22.014   0.067  0.00  0.00    -0.348 OA
ATOM     22  OSB ASG d 610      22.870  22.080  -0.933  0.00  0.00    -0.572 OA
ATOM     23  OSA ASG d 610      22.533  22.699  -3.237  0.00  0.00    -0.572 OA
ATOM     24  N   ASG d 610      28.419  23.337  -0.170  0.00  0.00    -0.349 N 
ATOM     25  C5  ASG d 610      26.290  22.476  -3.658  0.00  0.00     0.090 C 
ATOM     26  C3  ASG d 610      26.533  22.204  -1.211  0.00  0.00     0.094 C 
ATOM     27  C7  ASG d 610      28.475  24.206   0.835  0.00  0.00     0.214 C 
ATOM     28  O6  ASG d 610      26.210  22.485  -6.083  0.00  0.00    -0.398 OA
ATOM     29  O5  ASG d 610      27.051  23.698  -3.590  0.00  0.00    -0.349 OA
ATOM     30  C4  ASG d 610      25.505  22.301  -2.354  0.00  0.00     0.114 C 
ATOM     31  S   ASG d 610      23.068  23.142  -1.941  0.00  0.00     0.252 S 
ATOM     32  C2  ASG d 610      27.388  23.462  -1.181  0.00  0.00     0.087 C 
ATOM     33  C1  ASG d 610      28.039  23.676  -2.543  0.00  0.00     0.154 C 
ATOM     34  C6  ASG d 610      25.424  22.551  -4.901  0.00  0.00     0.043 C 
ATOM     35  OSC ASG d 610      22.378  24.382  -1.534  0.00  0.00    -0.572 OA
ATOM     36  O4  ASG d 610      24.633  23.436  -2.156  0.00  0.00    -0.246 OA
ATOM     37  C8  ASG d 610      29.670  24.096   1.777  0.00  0.00    -0.003 C 
ATOM     38  H   ASG d 610      29.079  22.609  -0.227  0.00  0.00     0.163 HD
ATOM     39  H   ASG d 610      26.908  21.606  -3.745  0.00  0.00     0.090 H 
ATOM     40  H   ASG d 610      27.151  21.350  -1.394  0.00  0.00     0.091 H 
ATOM     41  H   ASG d 610      25.631  22.535  -6.859  0.00  0.00     0.209 HD
ATOM     42  H   ASG d 610      24.898  21.421  -2.383  0.00  0.00     0.093 H 
ATOM     43  H   ASG d 610      26.763  24.300  -0.948  0.00  0.00     0.084 H 
ATOM     44  H   ASG d 610      28.721  22.872  -2.723  0.00  0.00     0.132 H 
ATOM     45  H   ASG d 610      24.882  23.473  -4.893  0.00  0.00     0.078 H 
ATOM     46  H   ASG d 610      24.752  21.718  -4.895  0.00  0.00     0.078 H 
ATOM     47  H   ASG d 610      29.596  24.846   2.536  0.00  0.00     0.040 H 
ATOM     48  H   ASG d 610      30.574  24.236   1.223  0.00  0.00     0.040 H 
ATOM     49  H   ASG d 610      29.677  23.128   2.232  0.00  0.00     0.040 H 
ATOM     50  C8  ASG d 608      31.683  31.091  -7.138  0.00  0.00    -0.003 C 
ATOM     51  C6  ASG d 608      37.178  25.427  -5.399  0.00  0.00     0.043 C 
ATOM     52  O7  ASG d 608      32.375  29.199  -8.409  0.00  0.00    -0.274 OA
ATOM     53  S   ASG d 608      34.079  24.161  -7.268  0.00  0.00     0.252 S 
ATOM     54  OSC ASG d 608      32.736  24.322  -7.859  0.00  0.00    -0.572 OA
ATOM     55  N   ASG d 608      33.479  29.578  -6.474  0.00  0.00    -0.349 N 
ATOM     56  O6  ASG d 608      37.027  24.506  -4.323  0.00  0.00    -0.398 OA
ATOM     57  O5  ASG d 608      36.606  27.569  -6.276  0.00  0.00    -0.349 OA
ATOM     58  C1  ASG d 608      35.775  28.747  -6.306  0.00  0.00     0.151 C 
ATOM     59  C4  ASG d 608      34.746  26.138  -5.652  0.00  0.00     0.114 C 
ATOM     60  OSB ASG d 608      33.897  23.488  -5.970  0.00  0.00    -0.572 OA
ATOM     61  C3  ASG d 608      33.821  27.335  -5.608  0.00  0.00     0.094 C 
ATOM     62  O4  ASG d 608      34.806  25.545  -6.961  0.00  0.00    -0.246 OA
ATOM     63  C5  ASG d 608      36.171  26.581  -5.313  0.00  0.00     0.090 C 
ATOM     64  O1  ASG d 608      36.245  29.573  -7.312  0.00  0.00    -0.369 OA
ATOM     65  C7  ASG d 608      32.550  29.862  -7.387  0.00  0.00     0.214 C 
ATOM     66  C2  ASG d 608      34.305  28.387  -6.598  0.00  0.00     0.087 C 
ATOM     67  O3  ASG d 608      32.475  26.933  -5.926  0.00  0.00    -0.348 OA
ATOM     68  OSA ASG d 608      35.031  23.393  -8.097  0.00  0.00    -0.572 OA
ATOM     69  H   ASG d 608      30.985  31.203  -7.940  0.00  0.00     0.040 H 
ATOM     70  H   ASG d 608      32.305  31.960  -7.081  0.00  0.00     0.040 H 
ATOM     71  H   ASG d 608      31.152  30.971  -6.217  0.00  0.00     0.040 H 
ATOM     72  H   ASG d 608      38.168  25.831  -5.371  0.00  0.00     0.078 H 
ATOM     73  H   ASG d 608      37.001  24.900  -6.313  0.00  0.00     0.078 H 
ATOM     74  H   ASG d 608      33.607  30.181  -5.707  0.00  0.00     0.163 HD
ATOM     75  H   ASG d 608      37.184  24.963  -3.482  0.00  0.00     0.209 HD
ATOM     76  H   ASG d 608      35.815  29.229  -5.352  0.00  0.00     0.132 H 
ATOM     77  H   ASG d 608      34.362  25.428  -4.951  0.00  0.00     0.093 H 
ATOM     78  H   ASG d 608      33.827  27.749  -4.622  0.00  0.00     0.091 H 
ATOM     79  H   ASG d 608      36.143  26.960  -4.313  0.00  0.00     0.090 H 
ATOM     80  H   ASG d 608      36.196  29.107  -8.162  0.00  0.00     0.212 HD
ATOM     81  H   ASG d 608      34.231  27.999  -7.593  0.00  0.00     0.084 H 
ATOM     82  O6B GCD d 611      24.961  17.000  -1.463  0.00  0.00    -0.642 OA
ATOM     83  C6  GCD d 611      24.168  17.670  -0.692  0.00  0.00     0.233 C 
ATOM     84  C5  GCD d 611      24.802  18.523   0.378  0.00  0.00     0.147 C 
ATOM     85  C2  GCD d 611      25.827  20.751   2.070  0.00  0.00     0.111 C 
ATOM     86  O6A GCD d 611      22.883  17.807  -0.717  0.00  0.00    -0.642 OA
ATOM     87  C4  GCD d 611      25.325  18.122   1.565  0.00  0.00    -0.034 C 
ATOM     88  C1  GCD d 611      26.036  20.743   0.589  0.00  0.00     0.165 C 
ATOM     89  O3  GCD d 611      25.613  19.263   3.898  0.00  0.00    -0.389 OA
ATOM     90  O5  GCD d 611      24.861  19.961   0.045  0.00  0.00    -0.311 OA
ATOM     91  O2  GCD d 611      26.900  21.490   2.725  0.00  0.00    -0.388 OA
ATOM     92  C3  GCD d 611      25.928  19.237   2.498  0.00  0.00     0.084 C 
ATOM     93  H   GCD d 611      24.895  21.205   2.338  0.00  0.00     0.095 H 
ATOM     94  H   GCD d 611      25.327  17.129   1.844  0.00  0.00     0.085 H 
ATOM     95  H   GCD d 611      27.004  20.356   0.351  0.00  0.00     0.134 H 
ATOM     96  H   GCD d 611      26.066  20.010   4.318  0.00  0.00     0.210 HD
ATOM     97  H   GCD d 611      27.753  21.093   2.494  0.00  0.00     0.210 HD
ATOM     98  H   GCD d 611      26.908  18.841   2.335  0.00  0.00     0.093 H 
ENDROOT
TORSDOF 25
ENDMDL
MODEL 7
REMARK VINA RESULT:      -9.2      3.376     11.666
REMARK  0 active torsions:
REMARK  status: ('A' for Active; 'I' for Inactive)
REMARK       I    between atoms: O3_1  and  C3_6 
REMARK       I    between atoms: O3_3  and  C3_16 
REMARK       I    between atoms: O3_3  and  C1_32 
REMARK       I    between atoms: C8_5  and  C7_53 
REMARK       I    between atoms: C6_7  and  C5_47 
REMARK       I    between atoms: C6_7  and  O6_29 
REMARK       I    between atoms: O4_8  and  C4_45 
REMARK       I    between atoms: O4_8  and  C1_39 
REMARK       I    between atoms: N_10  and  C2_35 
REMARK       I    between atoms: N_10  and  C7_17 
REMARK       I    between atoms: C5_12  and  C6_42 
REMARK       I    between atoms: C1_14  and  O3_57 
REMARK       I    between atoms: C6_15  and  C5_20 
REMARK       I    between atoms: C7_17  and  C8_54 
REMARK       I    between atoms: O6_18  and  C6_42 
REMARK       I    between atoms: S_19  and  O4_46 
REMARK       I    between atoms: C4_22  and  O4_50 
REMARK       I    between atoms: C2_23  and  O2_51 
REMARK       I    between atoms: S_26  and  O4_50 
REMARK       I    between atoms: N_27  and  C2_56 
REMARK       I    between atoms: N_27  and  C7_53 
REMARK       I    between atoms: C5_31  and  C6_55 
REMARK       I    between atoms: C1_33  and  O1_48 
REMARK       I    between atoms: C4_34  and  O4_46 
REMARK       I    between atoms: C3_40  and  O3_57 
REMARK       I    between atoms: C2_41  and  O2_60 
REMARK       I    between atoms: O3_43  and  C3_52 
ROOT
ATOM      1  O3  BDP d 609      28.516  26.909  -4.657  0.00  0.00    -0.390 OA
ATOM      2  C3  BDP d 609      29.612  27.205  -3.801  0.00  0.00     0.092 C 
ATOM      3  O4  BDP d 609      28.958  25.504  -2.259  0.00  0.00    -0.348 OA
ATOM      4  C1  BDP d 609      32.020  27.901  -3.743  0.00  0.00     0.160 C 
ATOM      5  C5  BDP d 609      31.284  26.169  -2.258  0.00  0.00     0.152 C 
ATOM      6  O5  BDP d 609      32.344  26.647  -3.107  0.00  0.00    -0.340 OA
ATOM      7  O6B BDP d 609      32.125  23.947  -2.300  0.00  0.00    -0.646 OA
ATOM      8  C2  BDP d 609      30.770  27.756  -4.621  0.00  0.00     0.110 C 
ATOM      9  C4  BDP d 609      30.034  25.930  -3.097  0.00  0.00     0.103 C 
ATOM     10  C6  BDP d 609      31.787  24.908  -1.579  0.00  0.00     0.206 C 
ATOM     11  O6A BDP d 609      31.801  24.911  -0.329  0.00  0.00    -0.646 OA
ATOM     12  O2  BDP d 609      30.415  29.029  -5.143  0.00  0.00    -0.388 OA
ATOM     13  H   BDP d 609      28.235  27.717  -5.114  0.00  0.00     0.210 HD
ATOM     14  H   BDP d 609      29.325  27.940  -3.078  0.00  0.00     0.091 H 
ATOM     15  H   BDP d 609      31.825  28.638  -2.992  0.00  0.00     0.133 H 
ATOM     16  H   BDP d 609      31.015  26.881  -1.506  0.00  0.00     0.104 H 
ATOM     17  H   BDP d 609      30.981  27.079  -5.422  0.00  0.00     0.094 H 
ATOM     18  H   BDP d 609      30.262  25.177  -3.822  0.00  0.00     0.092 H 
ATOM     19  H   BDP d 609      30.226  29.637  -4.411  0.00  0.00     0.210 HD
ATOM     20  O7  ASG d 610      26.849  25.473   0.817  0.00  0.00    -0.274 OA
ATOM     21  O3  ASG d 610      26.144  22.113  -0.388  0.00  0.00    -0.348 OA
ATOM     22  OSB ASG d 610      23.611  21.527  -2.228  0.00  0.00    -0.572 OA
ATOM     23  OSA ASG d 610      23.863  22.044  -4.567  0.00  0.00    -0.572 OA
ATOM     24  N   ASG d 610      28.306  23.942   0.030  0.00  0.00    -0.349 N 
ATOM     25  C5  ASG d 610      27.538  22.623  -3.858  0.00  0.00     0.090 C 
ATOM     26  C3  ASG d 610      27.086  22.426  -1.433  0.00  0.00     0.094 C 
ATOM     27  C7  ASG d 610      27.882  24.810   0.944  0.00  0.00     0.214 C 
ATOM     28  O6  ASG d 610      28.188  22.599  -6.196  0.00  0.00    -0.398 OA
ATOM     29  O5  ASG d 610      27.982  23.980  -3.657  0.00  0.00    -0.349 OA
ATOM     30  C4  ASG d 610      26.451  22.295  -2.831  0.00  0.00     0.114 C 
ATOM     31  S   ASG d 610      23.885  22.600  -3.205  0.00  0.00     0.252 S 
ATOM     32  C2  ASG d 610      27.621  23.838  -1.244  0.00  0.00     0.087 C 
ATOM     33  C1  ASG d 610      28.594  24.176  -2.369  0.00  0.00     0.154 C 
ATOM     34  C6  ASG d 610      27.088  22.503  -5.301  0.00  0.00     0.043 C 
ATOM     35  OSC ASG d 610      22.870  23.667  -3.106  0.00  0.00    -0.572 OA
ATOM     36  O4  ASG d 610      25.350  23.219  -2.976  0.00  0.00    -0.246 OA
ATOM     37  C8  ASG d 610      28.736  24.963   2.198  0.00  0.00    -0.003 C 
ATOM     38  H   ASG d 610      29.084  23.370   0.218  0.00  0.00     0.163 HD
ATOM     39  H   ASG d 610      28.315  21.904  -3.701  0.00  0.00     0.090 H 
ATOM     40  H   ASG d 610      27.889  21.722  -1.368  0.00  0.00     0.091 H 
ATOM     41  H   ASG d 610      27.871  22.519  -7.109  0.00  0.00     0.209 HD
ATOM     42  H   ASG d 610      26.070  21.305  -2.974  0.00  0.00     0.093 H 
ATOM     43  H   ASG d 610      26.801  24.524  -1.263  0.00  0.00     0.084 H 
ATOM     44  H   ASG d 610      29.446  23.534  -2.285  0.00  0.00     0.132 H 
ATOM     45  H   ASG d 610      26.395  23.289  -5.517  0.00  0.00     0.078 H 
ATOM     46  H   ASG d 610      26.627  21.547  -5.433  0.00  0.00     0.078 H 
ATOM     47  H   ASG d 610      28.289  25.685   2.848  0.00  0.00     0.040 H 
ATOM     48  H   ASG d 610      29.717  25.288   1.923  0.00  0.00     0.040 H 
ATOM     49  H   ASG d 610      28.801  24.022   2.702  0.00  0.00     0.040 H 
ATOM     50  C8  ASG d 608      31.878  32.165  -6.210  0.00  0.00    -0.003 C 
ATOM     51  C6  ASG d 608      37.621  27.813  -2.553  0.00  0.00     0.043 C 
ATOM     52  O7  ASG d 608      33.285  30.455  -7.088  0.00  0.00    -0.274 OA
ATOM     53  S   ASG d 608      35.545  25.903  -5.151  0.00  0.00     0.252 S 
ATOM     54  OSC ASG d 608      34.437  25.771  -6.117  0.00  0.00    -0.572 OA
ATOM     55  N   ASG d 608      33.658  31.073  -4.948  0.00  0.00    -0.349 N 
ATOM     56  O6  ASG d 608      37.342  26.888  -1.506  0.00  0.00    -0.398 OA
ATOM     57  O5  ASG d 608      36.919  29.778  -3.707  0.00  0.00    -0.349 OA
ATOM     58  C1  ASG d 608      35.916  30.751  -4.060  0.00  0.00     0.151 C 
ATOM     59  C4  ASG d 608      35.286  27.988  -3.553  0.00  0.00     0.114 C 
ATOM     60  OSB ASG d 608      35.122  25.215  -3.918  0.00  0.00    -0.572 OA
ATOM     61  C3  ASG d 608      34.169  28.960  -3.865  0.00  0.00     0.094 C 
ATOM     62  O4  ASG d 608      35.853  27.413  -4.743  0.00  0.00    -0.246 OA
ATOM     63  C5  ASG d 608      36.424  28.726  -2.846  0.00  0.00     0.090 C 
ATOM     64  O1  ASG d 608      36.490  31.652  -4.941  0.00  0.00    -0.369 OA
ATOM     65  C7  ASG d 608      33.008  31.148  -6.110  0.00  0.00     0.214 C 
ATOM     66  C2  ASG d 608      34.705  30.085  -4.742  0.00  0.00     0.087 C 
ATOM     67  O3  ASG d 608      33.090  28.280  -4.532  0.00  0.00    -0.348 OA
ATOM     68  OSA ASG d 608      36.836  25.350  -5.610  0.00  0.00    -0.572 OA
ATOM     69  H   ASG d 608      31.444  32.120  -7.187  0.00  0.00     0.040 H 
ATOM     70  H   ASG d 608      32.266  33.147  -6.036  0.00  0.00     0.040 H 
ATOM     71  H   ASG d 608      31.131  31.941  -5.478  0.00  0.00     0.040 H 
ATOM     72  H   ASG d 608      38.455  28.419  -2.267  0.00  0.00     0.078 H 
ATOM     73  H   ASG d 608      37.835  27.254  -3.440  0.00  0.00     0.078 H 
ATOM     74  H   ASG d 608      33.427  31.695  -4.221  0.00  0.00     0.163 HD
ATOM     75  H   ASG d 608      37.145  27.373  -0.690  0.00  0.00     0.209 HD
ATOM     76  H   ASG d 608      35.571  31.238  -3.172  0.00  0.00     0.132 H 
ATOM     77  H   ASG d 608      34.860  27.217  -2.946  0.00  0.00     0.093 H 
ATOM     78  H   ASG d 608      33.796  29.374  -2.951  0.00  0.00     0.091 H 
ATOM     79  H   ASG d 608      36.022  29.098  -1.927  0.00  0.00     0.090 H 
ATOM     80  H   ASG d 608      36.792  31.181  -5.733  0.00  0.00     0.212 HD
ATOM     81  H   ASG d 608      35.013  29.683  -5.685  0.00  0.00     0.084 H 
ATOM     82  O6B GCD d 611      26.743  17.005  -1.768  0.00  0.00    -0.642 OA
ATOM     83  C6  GCD d 611      25.637  17.496  -1.310  0.00  0.00     0.233 C 
ATOM     84  C5  GCD d 611      25.736  18.472  -0.164  0.00  0.00     0.147 C 
ATOM     85  C2  GCD d 611      25.737  20.878   1.592  0.00  0.00     0.111 C 
ATOM     86  O6A GCD d 611      24.419  17.356  -1.717  0.00  0.00    -0.642 OA
ATOM     87  C4  GCD d 611      25.948  18.200   1.149  0.00  0.00    -0.034 C 
ATOM     88  C1  GCD d 611      26.377  20.905   0.241  0.00  0.00     0.165 C 
ATOM     89  O3  GCD d 611      25.289  19.392   3.378  0.00  0.00    -0.389 OA
ATOM     90  O5  GCD d 611      25.601  19.887  -0.566  0.00  0.00    -0.311 OA
ATOM     91  O2  GCD d 611      26.392  21.833   2.478  0.00  0.00    -0.388 OA
ATOM     92  C3  GCD d 611      26.008  19.424   2.137  0.00  0.00     0.084 C 
ATOM     93  H   GCD d 611      24.697  21.126   1.544  0.00  0.00     0.095 H 
ATOM     94  H   GCD d 611      26.067  17.232   1.485  0.00  0.00     0.085 H 
ATOM     95  H   GCD d 611      27.430  20.731   0.323  0.00  0.00     0.134 H 
ATOM     96  H   GCD d 611      25.436  20.221   3.859  0.00  0.00     0.210 HD
ATOM     97  H   GCD d 611      27.338  21.625   2.534  0.00  0.00     0.210 HD
ATOM     98  H   GCD d 611      27.050  19.244   2.294  0.00  0.00     0.093 H 
ENDROOT
TORSDOF 25
ENDMDL
MODEL 8
REMARK VINA RESULT:      -9.1      3.441     11.991
REMARK  0 active torsions:
REMARK  status: ('A' for Active; 'I' for Inactive)
REMARK       I    between atoms: O3_1  and  C3_6 
REMARK       I    between atoms: O3_3  and  C3_16 
REMARK       I    between atoms: O3_3  and  C1_32 
REMARK       I    between atoms: C8_5  and  C7_53 
REMARK       I    between atoms: C6_7  and  C5_47 
REMARK       I    between atoms: C6_7  and  O6_29 
REMARK       I    between atoms: O4_8  and  C4_45 
REMARK       I    between atoms: O4_8  and  C1_39 
REMARK       I    between atoms: N_10  and  C2_35 
REMARK       I    between atoms: N_10  and  C7_17 
REMARK       I    between atoms: C5_12  and  C6_42 
REMARK       I    between atoms: C1_14  and  O3_57 
REMARK       I    between atoms: C6_15  and  C5_20 
REMARK       I    between atoms: C7_17  and  C8_54 
REMARK       I    between atoms: O6_18  and  C6_42 
REMARK       I    between atoms: S_19  and  O4_46 
REMARK       I    between atoms: C4_22  and  O4_50 
REMARK       I    between atoms: C2_23  and  O2_51 
REMARK       I    between atoms: S_26  and  O4_50 
REMARK       I    between atoms: N_27  and  C2_56 
REMARK       I    between atoms: N_27  and  C7_53 
REMARK       I    between atoms: C5_31  and  C6_55 
REMARK       I    between atoms: C1_33  and  O1_48 
REMARK       I    between atoms: C4_34  and  O4_46 
REMARK       I    between atoms: C3_40  and  O3_57 
REMARK       I    between atoms: C2_41  and  O2_60 
REMARK       I    between atoms: O3_43  and  C3_52 
ROOT
ATOM      1  O3  BDP d 609      31.226  22.865  -0.264  0.00  0.00    -0.390 OA
ATOM      2  C3  BDP d 609      31.630  23.045  -1.616  0.00  0.00     0.092 C 
ATOM      3  O4  BDP d 609      29.615  22.050  -2.422  0.00  0.00    -0.348 OA
ATOM      4  C1  BDP d 609      32.832  24.576  -3.197  0.00  0.00     0.160 C 
ATOM      5  C5  BDP d 609      30.777  23.565  -3.907  0.00  0.00     0.152 C 
ATOM      6  O5  BDP d 609      31.602  24.745  -3.932  0.00  0.00    -0.340 OA
ATOM      7  O6B BDP d 609      28.832  24.798  -4.493  0.00  0.00    -0.646 OA
ATOM      8  C2  BDP d 609      32.543  24.258  -1.723  0.00  0.00     0.110 C 
ATOM      9  C4  BDP d 609      30.392  23.249  -2.467  0.00  0.00     0.103 C 
ATOM     10  C6  BDP d 609      29.575  23.840  -4.791  0.00  0.00     0.206 C 
ATOM     11  O6A BDP d 609      29.395  23.061  -5.752  0.00  0.00    -0.646 OA
ATOM     12  O2  BDP d 609      33.766  23.989  -1.054  0.00  0.00    -0.388 OA
ATOM     13  H   BDP d 609      32.010  22.733   0.293  0.00  0.00     0.210 HD
ATOM     14  H   BDP d 609      32.165  22.183  -1.956  0.00  0.00     0.091 H 
ATOM     15  H   BDP d 609      33.385  23.763  -3.617  0.00  0.00     0.133 H 
ATOM     16  H   BDP d 609      31.291  22.705  -4.282  0.00  0.00     0.104 H 
ATOM     17  H   BDP d 609      32.057  25.098  -1.272  0.00  0.00     0.094 H 
ATOM     18  H   BDP d 609      29.825  24.073  -2.088  0.00  0.00     0.092 H 
ATOM     19  H   BDP d 609      34.200  23.227  -1.469  0.00  0.00     0.210 HD
ATOM     20  O7  ASG d 610      28.654  18.581  -3.400  0.00  0.00    -0.274 OA
ATOM     21  O3  ASG d 610      25.440  19.725  -2.137  0.00  0.00    -0.348 OA
ATOM     22  OSB ASG d 610      24.582  19.198   0.884  0.00  0.00    -0.572 OA
ATOM     23  OSA ASG d 610      25.484  20.720   2.520  0.00  0.00    -0.572 OA
ATOM     24  N   ASG d 610      27.624  20.547  -3.794  0.00  0.00    -0.349 N 
ATOM     25  C5  ASG d 610      26.761  22.794  -0.381  0.00  0.00     0.090 C 
ATOM     26  C3  ASG d 610      26.108  20.988  -1.941  0.00  0.00     0.094 C 
ATOM     27  C7  ASG d 610      28.228  19.430  -4.187  0.00  0.00     0.214 C 
ATOM     28  O6  ASG d 610      27.231  24.749   0.977  0.00  0.00    -0.398 OA
ATOM     29  O5  ASG d 610      28.137  22.628  -0.776  0.00  0.00    -0.349 OA
ATOM     30  C4  ASG d 610      26.047  21.442  -0.470  0.00  0.00     0.114 C 
ATOM     31  S   ASG d 610      25.822  19.727   1.487  0.00  0.00     0.252 S 
ATOM     32  C2  ASG d 610      27.560  20.881  -2.385  0.00  0.00     0.087 C 
ATOM     33  C1  ASG d 610      28.271  22.209  -2.147  0.00  0.00     0.154 C 
ATOM     34  C6  ASG d 610      26.759  23.409   1.006  0.00  0.00     0.043 C 
ATOM     35  OSC ASG d 610      26.608  18.640   2.104  0.00  0.00    -0.572 OA
ATOM     36  O4  ASG d 610      26.713  20.484   0.384  0.00  0.00    -0.246 OA
ATOM     37  C8  ASG d 610      28.380  19.220  -5.690  0.00  0.00    -0.003 C 
ATOM     38  H   ASG d 610      27.219  21.149  -4.461  0.00  0.00     0.163 HD
ATOM     39  H   ASG d 610      26.219  23.453  -1.028  0.00  0.00     0.090 H 
ATOM     40  H   ASG d 610      25.601  21.719  -2.533  0.00  0.00     0.091 H 
ATOM     41  H   ASG d 610      27.219  25.115   1.875  0.00  0.00     0.209 HD
ATOM     42  H   ASG d 610      25.030  21.519  -0.147  0.00  0.00     0.093 H 
ATOM     43  H   ASG d 610      28.040  20.112  -1.816  0.00  0.00     0.084 H 
ATOM     44  H   ASG d 610      27.831  22.948  -2.783  0.00  0.00     0.132 H 
ATOM     45  H   ASG d 610      27.393  22.830   1.645  0.00  0.00     0.078 H 
ATOM     46  H   ASG d 610      25.754  23.412   1.373  0.00  0.00     0.078 H 
ATOM     47  H   ASG d 610      28.879  18.292  -5.872  0.00  0.00     0.040 H 
ATOM     48  H   ASG d 610      28.955  20.021  -6.105  0.00  0.00     0.040 H 
ATOM     49  H   ASG d 610      27.414  19.201  -6.147  0.00  0.00     0.040 H 
ATOM     50  C8  ASG d 608      37.274  24.890  -1.085  0.00  0.00    -0.003 C 
ATOM     51  C6  ASG d 608      33.825  27.928  -7.732  0.00  0.00     0.043 C 
ATOM     52  O7  ASG d 608      36.073  26.926  -1.384  0.00  0.00    -0.274 OA
ATOM     53  S   ASG d 608      31.907  28.566  -4.473  0.00  0.00     0.252 S 
ATOM     54  OSC ASG d 608      31.675  28.403  -3.024  0.00  0.00    -0.572 OA
ATOM     55  N   ASG d 608      36.434  25.682  -3.235  0.00  0.00    -0.349 N 
ATOM     56  O6  ASG d 608      32.716  27.311  -8.379  0.00  0.00    -0.398 OA
ATOM     57  O5  ASG d 608      35.732  27.620  -6.334  0.00  0.00    -0.349 OA
ATOM     58  C1  ASG d 608      36.497  26.852  -5.384  0.00  0.00     0.151 C 
ATOM     59  C4  ASG d 608      33.620  26.812  -5.452  0.00  0.00     0.114 C 
ATOM     60  OSB ASG d 608      30.967  27.663  -5.160  0.00  0.00    -0.572 OA
ATOM     61  C3  ASG d 608      34.352  25.935  -4.460  0.00  0.00     0.094 C 
ATOM     62  O4  ASG d 608      33.370  28.129  -4.933  0.00  0.00    -0.246 OA
ATOM     63  C5  ASG d 608      34.480  26.997  -6.703  0.00  0.00     0.090 C 
ATOM     64  O1  ASG d 608      37.624  27.586  -5.055  0.00  0.00    -0.369 OA
ATOM     65  C7  ASG d 608      36.532  25.921  -1.927  0.00  0.00     0.214 C 
ATOM     66  C2  ASG d 608      35.686  26.579  -4.102  0.00  0.00     0.087 C 
ATOM     67  O3  ASG d 608      33.554  25.752  -3.275  0.00  0.00    -0.348 OA
ATOM     68  OSA ASG d 608      31.732  29.943  -4.977  0.00  0.00    -0.572 OA
ATOM     69  H   ASG d 608      37.279  25.203  -0.062  0.00  0.00     0.040 H 
ATOM     70  H   ASG d 608      38.280  24.801  -1.437  0.00  0.00     0.040 H 
ATOM     71  H   ASG d 608      36.782  23.944  -1.166  0.00  0.00     0.040 H 
ATOM     72  H   ASG d 608      34.553  28.193  -8.470  0.00  0.00     0.078 H 
ATOM     73  H   ASG d 608      33.467  28.793  -7.214  0.00  0.00     0.078 H 
ATOM     74  H   ASG d 608      36.872  24.888  -3.618  0.00  0.00     0.163 HD
ATOM     75  H   ASG d 608      33.018  26.523  -8.856  0.00  0.00     0.209 HD
ATOM     76  H   ASG d 608      36.756  25.910  -5.820  0.00  0.00     0.132 H 
ATOM     77  H   ASG d 608      32.691  26.324  -5.664  0.00  0.00     0.093 H 
ATOM     78  H   ASG d 608      34.530  24.976  -4.900  0.00  0.00     0.091 H 
ATOM     79  H   ASG d 608      34.611  26.025  -7.131  0.00  0.00     0.090 H 
ATOM     80  H   ASG d 608      37.356  28.431  -4.663  0.00  0.00     0.212 HD
ATOM     81  H   ASG d 608      35.508  27.505  -3.596  0.00  0.00     0.084 H 
ATOM     82  O6B GCD d 611      20.860  22.397  -1.642  0.00  0.00    -0.642 OA
ATOM     83  C6  GCD d 611      21.017  21.171  -1.259  0.00  0.00     0.233 C 
ATOM     84  C5  GCD d 611      21.808  20.260  -2.163  0.00  0.00     0.147 C 
ATOM     85  C2  GCD d 611      23.864  18.509  -3.422  0.00  0.00     0.111 C 
ATOM     86  O6A GCD d 611      20.670  20.579  -0.165  0.00  0.00    -0.642 OA
ATOM     87  C4  GCD d 611      21.398  19.659  -3.309  0.00  0.00    -0.034 C 
ATOM     88  C1  GCD d 611      24.235  19.821  -2.806  0.00  0.00     0.165 C 
ATOM     89  O3  GCD d 611      22.066  17.453  -4.540  0.00  0.00    -0.389 OA
ATOM     90  O5  GCD d 611      23.201  20.037  -1.723  0.00  0.00    -0.311 OA
ATOM     91  O2  GCD d 611      24.799  18.173  -4.489  0.00  0.00    -0.388 OA
ATOM     92  C3  GCD d 611      22.443  18.751  -4.059  0.00  0.00     0.084 C 
ATOM     93  H   GCD d 611      23.877  17.716  -2.703  0.00  0.00     0.095 H 
ATOM     94  H   GCD d 611      20.442  19.791  -3.674  0.00  0.00     0.085 H 
ATOM     95  H   GCD d 611      24.292  20.582  -3.556  0.00  0.00     0.134 H 
ATOM     96  H   GCD d 611      22.826  17.035  -4.974  0.00  0.00     0.210 HD
ATOM     97  H   GCD d 611      24.802  18.882  -5.151  0.00  0.00     0.210 HD
ATOM     98  H   GCD d 611      22.480  19.460  -4.860  0.00  0.00     0.093 H 
ENDROOT
TORSDOF 25
ENDMDL
MODEL 9
REMARK VINA RESULT:      -9.0      3.373      4.250
REMARK  0 active torsions:
REMARK  status: ('A' for Active; 'I' for Inactive)
REMARK       I    between atoms: O3_1  and  C3_6 
REMARK       I    between atoms: O3_3  and  C3_16 
REMARK       I    between atoms: O3_3  and  C1_32 
REMARK       I    between atoms: C8_5  and  C7_53 
REMARK       I    between atoms: C6_7  and  C5_47 
REMARK       I    between atoms: C6_7  and  O6_29 
REMARK       I    between atoms: O4_8  and  C4_45 
REMARK       I    between atoms: O4_8  and  C1_39 
REMARK       I    between atoms: N_10  and  C2_35 
REMARK       I    between atoms: N_10  and  C7_17 
REMARK       I    between atoms: C5_12  and  C6_42 
REMARK       I    between atoms: C1_14  and  O3_57 
REMARK       I    between atoms: C6_15  and  C5_20 
REMARK       I    between atoms: C7_17  and  C8_54 
REMARK       I    between atoms: O6_18  and  C6_42 
REMARK       I    between atoms: S_19  and  O4_46 
REMARK       I    between atoms: C4_22  and  O4_50 
REMARK       I    between atoms: C2_23  and  O2_51 
REMARK       I    between atoms: S_26  and  O4_50 
REMARK       I    between atoms: N_27  and  C2_56 
REMARK       I    between atoms: N_27  and  C7_53 
REMARK       I    between atoms: C5_31  and  C6_55 
REMARK       I    between atoms: C1_33  and  O1_48 
REMARK       I    between atoms: C4_34  and  O4_46 
REMARK       I    between atoms: C3_40  and  O3_57 
REMARK       I    between atoms: C2_41  and  O2_60 
REMARK       I    between atoms: O3_43  and  C3_52 
ROOT
ATOM      1  O3  BDP d 609      30.827  23.777  -5.759  0.00  0.00    -0.390 OA
ATOM      2  C3  BDP d 609      30.625  23.450  -4.390  0.00  0.00     0.092 C 
ATOM      3  O4  BDP d 609      31.923  25.322  -3.678  0.00  0.00    -0.348 OA
ATOM      4  C1  BDP d 609      28.975  22.539  -2.737  0.00  0.00     0.160 C 
ATOM      5  C5  BDP d 609      30.292  24.445  -2.122  0.00  0.00     0.152 C 
ATOM      6  O5  BDP d 609      29.005  23.804  -2.044  0.00  0.00    -0.340 OA
ATOM      7  O6B BDP d 609      29.371  26.569  -1.583  0.00  0.00    -0.646 OA
ATOM      8  C2  BDP d 609      29.294  22.729  -4.226  0.00  0.00     0.110 C 
ATOM      9  C4  BDP d 609      30.625  24.732  -3.581  0.00  0.00     0.103 C 
ATOM     10  C6  BDP d 609      30.218  25.704  -1.277  0.00  0.00     0.206 C 
ATOM     11  O6A BDP d 609      31.039  25.799  -0.339  0.00  0.00    -0.646 OA
ATOM     12  O2  BDP d 609      29.365  21.458  -4.855  0.00  0.00    -0.388 OA
ATOM     13  H   BDP d 609      30.830  22.965  -6.290  0.00  0.00     0.210 HD
ATOM     14  H   BDP d 609      31.407  22.805  -4.048  0.00  0.00     0.091 H 
ATOM     15  H   BDP d 609      29.708  21.887  -2.313  0.00  0.00     0.133 H 
ATOM     16  H   BDP d 609      31.077  23.824  -1.746  0.00  0.00     0.104 H 
ATOM     17  H   BDP d 609      28.524  23.318  -4.678  0.00  0.00     0.094 H 
ATOM     18  H   BDP d 609      29.883  25.401  -3.964  0.00  0.00     0.092 H 
ATOM     19  H   BDP d 609      30.066  20.931  -4.440  0.00  0.00     0.210 HD
ATOM     20  O7  ASG d 610      35.518  25.795  -2.805  0.00  0.00    -0.274 OA
ATOM     21  O3  ASG d 610      34.825  29.099  -4.162  0.00  0.00    -0.348 OA
ATOM     22  OSB ASG d 610      35.396  29.770  -7.222  0.00  0.00    -0.572 OA
ATOM     23  OSA ASG d 610      33.719  29.046  -8.793  0.00  0.00    -0.572 OA
ATOM     24  N   ASG d 610      33.734  27.116  -2.410  0.00  0.00    -0.349 N 
ATOM     25  C5  ASG d 610      31.553  28.186  -5.807  0.00  0.00     0.090 C 
ATOM     26  C3  ASG d 610      33.474  28.617  -4.308  0.00  0.00     0.094 C 
ATOM     27  C7  ASG d 610      34.761  26.367  -2.017  0.00  0.00     0.214 C 
ATOM     28  O6  ASG d 610      29.517  27.963  -7.108  0.00  0.00    -0.398 OA
ATOM     29  O5  ASG d 610      31.527  26.814  -5.365  0.00  0.00    -0.349 OA
ATOM     30  C4  ASG d 610      32.997  28.695  -5.771  0.00  0.00     0.114 C 
ATOM     31  S   ASG d 610      34.677  28.601  -7.769  0.00  0.00     0.252 S 
ATOM     32  C2  ASG d 610      33.379  27.181  -3.814  0.00  0.00     0.087 C 
ATOM     33  C1  ASG d 610      31.956  26.665  -3.999  0.00  0.00     0.154 C 
ATOM     34  C6  ASG d 610      30.911  28.231  -7.180  0.00  0.00     0.043 C 
ATOM     35  OSC ASG d 610      35.621  27.644  -8.377  0.00  0.00    -0.572 OA
ATOM     36  O4  ASG d 610      33.825  27.869  -6.619  0.00  0.00    -0.246 OA
ATOM     37  C8  ASG d 610      34.984  26.236  -0.514  0.00  0.00    -0.003 C 
ATOM     38  H   ASG d 610      33.215  27.626  -1.746  0.00  0.00     0.163 HD
ATOM     39  H   ASG d 610      30.997  28.839  -5.168  0.00  0.00     0.090 H 
ATOM     40  H   ASG d 610      32.839  29.246  -3.720  0.00  0.00     0.091 H 
ATOM     41  H   ASG d 610      29.134  27.998  -7.998  0.00  0.00     0.209 HD
ATOM     42  H   ASG d 610      33.061  29.701  -6.129  0.00  0.00     0.093 H 
ATOM     43  H   ASG d 610      34.055  26.575  -4.379  0.00  0.00     0.084 H 
ATOM     44  H   ASG d 610      31.305  27.230  -3.365  0.00  0.00     0.132 H 
ATOM     45  H   ASG d 610      31.375  27.498  -7.807  0.00  0.00     0.078 H 
ATOM     46  H   ASG d 610      31.045  29.213  -7.583  0.00  0.00     0.078 H 
ATOM     47  H   ASG d 610      35.834  25.613  -0.333  0.00  0.00     0.040 H 
ATOM     48  H   ASG d 610      34.118  25.799  -0.062  0.00  0.00     0.040 H 
ATOM     49  H   ASG d 610      35.155  27.204  -0.093  0.00  0.00     0.040 H 
ATOM     50  C8  ASG d 608      27.962  18.124  -4.678  0.00  0.00    -0.003 C 
ATOM     51  C6  ASG d 608      25.628  22.200   1.897  0.00  0.00     0.043 C 
ATOM     52  O7  ASG d 608      26.132  19.619  -4.383  0.00  0.00    -0.274 OA
ATOM     53  S   ASG d 608      25.196  24.081  -1.416  0.00  0.00     0.252 S 
ATOM     54  OSC ASG d 608      25.354  24.239  -2.875  0.00  0.00    -0.572 OA
ATOM     55  N   ASG d 608      27.356  19.142  -2.545  0.00  0.00    -0.349 N 
ATOM     56  O6  ASG d 608      26.416  23.227   2.491  0.00  0.00    -0.398 OA
ATOM     57  O5  ASG d 608      25.619  20.223   0.564  0.00  0.00    -0.349 OA
ATOM     58  C1  ASG d 608      26.243  19.322  -0.373  0.00  0.00     0.151 C 
ATOM     59  C4  ASG d 608      26.705  22.163  -0.410  0.00  0.00     0.114 C 
ATOM     60  OSB ASG d 608      26.243  24.902  -0.782  0.00  0.00    -0.572 OA
ATOM     61  C3  ASG d 608      27.440  21.278  -1.392  0.00  0.00     0.094 C 
ATOM     62  O4  ASG d 608      25.425  22.587  -0.912  0.00  0.00    -0.246 OA
ATOM     63  C5  ASG d 608      26.427  21.382   0.875  0.00  0.00     0.090 C 
ATOM     64  O1  ASG d 608      25.344  18.305  -0.646  0.00  0.00    -0.369 OA
ATOM     65  C7  ASG d 608      27.072  19.036  -3.843  0.00  0.00     0.214 C 
ATOM     66  C2  ASG d 608      26.600  20.042  -1.688  0.00  0.00     0.087 C 
ATOM     67  O3  ASG d 608      27.708  22.001  -2.608  0.00  0.00    -0.348 OA
ATOM     68  OSA ASG d 608      23.872  24.474  -0.891  0.00  0.00    -0.572 OA
ATOM     69  H   ASG d 608      27.627  18.130  -5.694  0.00  0.00     0.040 H 
ATOM     70  H   ASG d 608      27.912  17.127  -4.292  0.00  0.00     0.040 H 
ATOM     71  H   ASG d 608      28.972  18.474  -4.634  0.00  0.00     0.040 H 
ATOM     72  H   ASG d 608      25.278  21.544   2.666  0.00  0.00     0.078 H 
ATOM     73  H   ASG d 608      24.812  22.664   1.384  0.00  0.00     0.078 H 
ATOM     74  H   ASG d 608      28.086  18.604  -2.162  0.00  0.00     0.163 HD
ATOM     75  H   ASG d 608      27.163  22.829   2.963  0.00  0.00     0.209 HD
ATOM     76  H   ASG d 608      27.147  18.942   0.054  0.00  0.00     0.132 H 
ATOM     77  H   ASG d 608      27.328  23.017  -0.242  0.00  0.00     0.093 H 
ATOM     78  H   ASG d 608      28.373  20.975  -0.964  0.00  0.00     0.091 H 
ATOM     79  H   ASG d 608      27.380  21.124   1.288  0.00  0.00     0.090 H 
ATOM     80  H   ASG d 608      24.537  18.681  -1.030  0.00  0.00     0.212 HD
ATOM     81  H   ASG d 608      25.697  20.336  -2.182  0.00  0.00     0.084 H 
ATOM     82  O6B GCD d 611      32.840  34.002  -4.770  0.00  0.00    -0.642 OA
ATOM     83  C6  GCD d 611      34.019  33.655  -5.172  0.00  0.00     0.233 C 
ATOM     84  C5  GCD d 611      34.827  32.769  -4.258  0.00  0.00     0.147 C 
ATOM     85  C2  GCD d 611      36.290  30.521  -2.960  0.00  0.00     0.111 C 
ATOM     86  O6A GCD d 611      34.629  33.875  -6.290  0.00  0.00    -0.642 OA
ATOM     87  C4  GCD d 611      35.510  33.124  -3.139  0.00  0.00    -0.034 C 
ATOM     88  C1  GCD d 611      34.924  30.326  -3.535  0.00  0.00     0.165 C 
ATOM     89  O3  GCD d 611      37.625  32.180  -1.929  0.00  0.00    -0.389 OA
ATOM     90  O5  GCD d 611      34.833  31.345  -4.650  0.00  0.00    -0.311 OA
ATOM     91  O2  GCD d 611      36.513  29.582  -1.866  0.00  0.00    -0.388 OA
ATOM     92  C3  GCD d 611      36.274  31.982  -2.370  0.00  0.00     0.084 C 
ATOM     93  H   GCD d 611      37.055  30.368  -3.693  0.00  0.00     0.095 H 
ATOM     94  H   GCD d 611      35.528  34.100  -2.807  0.00  0.00     0.085 H 
ATOM     95  H   GCD d 611      34.181  30.407  -2.769  0.00  0.00     0.134 H 
ATOM     96  H   GCD d 611      37.938  31.382  -1.476  0.00  0.00     0.210 HD
ATOM     97  H   GCD d 611      35.828  29.705  -1.190  0.00  0.00     0.210 HD
ATOM     98  H   GCD d 611      35.588  32.076  -1.554  0.00  0.00     0.093 H 
ENDROOT
TORSDOF 25
ENDMDL
MODEL 10
REMARK VINA RESULT:      -8.8      1.980      2.285
REMARK  0 active torsions:
REMARK  status: ('A' for Active; 'I' for Inactive)
REMARK       I    between atoms: O3_1  and  C3_6 
REMARK       I    between atoms: O3_3  and  C3_16 
REMARK       I    between atoms: O3_3  and  C1_32 
REMARK       I    between atoms: C8_5  and  C7_53 
REMARK       I    between atoms: C6_7  and  C5_47 
REMARK       I    between atoms: C6_7  and  O6_29 
REMARK       I    between atoms: O4_8  and  C4_45 
REMARK       I    between atoms: O4_8  and  C1_39 
REMARK       I    between atoms: N_10  and  C2_35 
REMARK       I    between atoms: N_10  and  C7_17 
REMARK       I    between atoms: C5_12  and  C6_42 
REMARK       I    between atoms: C1_14  and  O3_57 
REMARK       I    between atoms: C6_15  and  C5_20 
REMARK       I    between atoms: C7_17  and  C8_54 
REMARK       I    between atoms: O6_18  and  C6_42 
REMARK       I    between atoms: S_19  and  O4_46 
REMARK       I    between atoms: C4_22  and  O4_50 
REMARK       I    between atoms: C2_23  and  O2_51 
REMARK       I    between atoms: S_26  and  O4_50 
REMARK       I    between atoms: N_27  and  C2_56 
REMARK       I    between atoms: N_27  and  C7_53 
REMARK       I    between atoms: C5_31  and  C6_55 
REMARK       I    between atoms: C1_33  and  O1_48 
REMARK       I    between atoms: C4_34  and  O4_46 
REMARK       I    between atoms: C3_40  and  O3_57 
REMARK       I    between atoms: C2_41  and  O2_60 
REMARK       I    between atoms: O3_43  and  C3_52 
ROOT
ATOM      1  O3  BDP d 609      25.570  23.463  -5.604  0.00  0.00    -0.390 OA
ATOM      2  C3  BDP d 609      26.498  23.191  -4.562  0.00  0.00     0.092 C 
ATOM      3  O4  BDP d 609      28.205  24.451  -5.658  0.00  0.00    -0.348 OA
ATOM      4  C1  BDP d 609      26.749  22.889  -2.085  0.00  0.00     0.160 C 
ATOM      5  C5  BDP d 609      28.393  24.175  -3.262  0.00  0.00     0.152 C 
ATOM      6  O5  BDP d 609      27.620  24.038  -2.055  0.00  0.00    -0.340 OA
ATOM      7  O6B BDP d 609      28.829  26.472  -2.833  0.00  0.00    -0.646 OA
ATOM      8  C2  BDP d 609      25.754  22.993  -3.249  0.00  0.00     0.110 C 
ATOM      9  C4  BDP d 609      27.452  24.365  -4.446  0.00  0.00     0.103 C 
ATOM     10  C6  BDP d 609      29.331  25.352  -3.062  0.00  0.00     0.206 C 
ATOM     11  O6A BDP d 609      30.555  25.119  -3.170  0.00  0.00    -0.646 OA
ATOM     12  O2  BDP d 609      24.987  21.800  -3.317  0.00  0.00    -0.388 OA
ATOM     13  H   BDP d 609      24.953  22.719  -5.690  0.00  0.00     0.210 HD
ATOM     14  H   BDP d 609      27.046  22.299  -4.782  0.00  0.00     0.091 H 
ATOM     15  H   BDP d 609      27.335  22.004  -2.218  0.00  0.00     0.133 H 
ATOM     16  H   BDP d 609      28.976  23.303  -3.471  0.00  0.00     0.104 H 
ATOM     17  H   BDP d 609      25.110  23.832  -3.086  0.00  0.00     0.094 H 
ATOM     18  H   BDP d 609      26.899  25.266  -4.287  0.00  0.00     0.092 H 
ATOM     19  H   BDP d 609      25.577  21.044  -3.465  0.00  0.00     0.210 HD
ATOM     20  O7  ASG d 610      30.947  23.575  -8.029  0.00  0.00    -0.274 OA
ATOM     21  O3  ASG d 610      30.236  26.944  -9.204  0.00  0.00    -0.348 OA
ATOM     22  OSB ASG d 610      28.210  27.451 -11.608  0.00  0.00    -0.572 OA
ATOM     23  OSA ASG d 610      25.869  27.424 -11.040  0.00  0.00    -0.572 OA
ATOM     24  N   ASG d 610      30.619  25.437  -6.801  0.00  0.00    -0.349 N 
ATOM     25  C5  ASG d 610      26.938  27.315  -7.407  0.00  0.00     0.090 C 
ATOM     26  C3  ASG d 610      29.283  26.985  -8.123  0.00  0.00     0.094 C 
ATOM     27  C7  ASG d 610      31.314  24.358  -7.149  0.00  0.00     0.214 C 
ATOM     28  O6  ASG d 610      24.739  27.876  -6.547  0.00  0.00    -0.398 OA
ATOM     29  O5  ASG d 610      26.966  26.033  -6.750  0.00  0.00    -0.349 OA
ATOM     30  C4  ASG d 610      27.858  27.270  -8.632  0.00  0.00     0.114 C 
ATOM     31  S   ASG d 610      27.111  26.636 -11.052  0.00  0.00     0.252 S 
ATOM     32  C2  ASG d 610      29.302  25.666  -7.364  0.00  0.00     0.087 C 
ATOM     33  C1  ASG d 610      28.271  25.701  -6.241  0.00  0.00     0.154 C 
ATOM     34  C6  ASG d 610      25.489  27.627  -7.729  0.00  0.00     0.043 C 
ATOM     35  OSC ASG d 610      26.901  25.421 -11.864  0.00  0.00    -0.572 OA
ATOM     36  O4  ASG d 610      27.421  26.226  -9.529  0.00  0.00    -0.246 OA
ATOM     37  C8  ASG d 610      32.624  24.113  -6.409  0.00  0.00    -0.003 C 
ATOM     38  H   ASG d 610      30.998  26.080  -6.159  0.00  0.00     0.163 HD
ATOM     39  H   ASG d 610      27.311  28.107  -6.791  0.00  0.00     0.090 H 
ATOM     40  H   ASG d 610      29.567  27.782  -7.469  0.00  0.00     0.091 H 
ATOM     41  H   ASG d 610      23.819  28.072  -6.782  0.00  0.00     0.209 HD
ATOM     42  H   ASG d 610      27.833  28.196  -9.168  0.00  0.00     0.093 H 
ATOM     43  H   ASG d 610      29.065  24.873  -8.043  0.00  0.00     0.084 H 
ATOM     44  H   ASG d 610      28.569  26.444  -5.531  0.00  0.00     0.132 H 
ATOM     45  H   ASG d 610      25.059  26.795  -8.245  0.00  0.00     0.078 H 
ATOM     46  H   ASG d 610      25.460  28.506  -8.338  0.00  0.00     0.078 H 
ATOM     47  H   ASG d 610      33.083  23.221  -6.780  0.00  0.00     0.040 H 
ATOM     48  H   ASG d 610      32.427  24.005  -5.363  0.00  0.00     0.040 H 
ATOM     49  H   ASG d 610      33.281  24.943  -6.563  0.00  0.00     0.040 H 
ATOM     50  C8  ASG d 608      23.609  19.189  -1.218  0.00  0.00    -0.003 C 
ATOM     51  C6  ASG d 608      28.644  23.644   3.265  0.00  0.00     0.043 C 
ATOM     52  O7  ASG d 608      23.215  21.234  -0.062  0.00  0.00    -0.274 OA
ATOM     53  S   ASG d 608      26.156  25.648   1.145  0.00  0.00     0.252 S 
ATOM     54  OSC ASG d 608      25.091  25.779   0.131  0.00  0.00    -0.572 OA
ATOM     55  N   ASG d 608      25.253  20.297   0.205  0.00  0.00    -0.349 N 
ATOM     56  O6  ASG d 608      29.786  24.302   2.724  0.00  0.00    -0.398 OA
ATOM     57  O5  ASG d 608      27.100  21.841   3.043  0.00  0.00    -0.349 OA
ATOM     58  C1  ASG d 608      26.464  20.803   2.271  0.00  0.00     0.151 C 
ATOM     59  C4  ASG d 608      27.338  23.288   1.109  0.00  0.00     0.114 C 
ATOM     60  OSB ASG d 608      27.421  26.019   0.487  0.00  0.00    -0.572 OA
ATOM     61  C3  ASG d 608      26.729  22.226   0.220  0.00  0.00     0.094 C 
ATOM     62  O4  ASG d 608      26.343  24.157   1.677  0.00  0.00    -0.246 OA
ATOM     63  C5  ASG d 608      28.053  22.622   2.285  0.00  0.00     0.090 C 
ATOM     64  O1  ASG d 608      25.527  20.185   3.080  0.00  0.00    -0.369 OA
ATOM     65  C7  ASG d 608      24.022  20.337  -0.305  0.00  0.00     0.214 C 
ATOM     66  C2  ASG d 608      25.753  21.383   1.032  0.00  0.00     0.087 C 
ATOM     67  O3  ASG d 608      26.051  22.838  -0.893  0.00  0.00    -0.348 OA
ATOM     68  OSA ASG d 608      25.964  26.475   2.354  0.00  0.00    -0.572 OA
ATOM     69  H   ASG d 608      22.606  19.345  -1.555  0.00  0.00     0.040 H 
ATOM     70  H   ASG d 608      23.666  18.267  -0.680  0.00  0.00     0.040 H 
ATOM     71  H   ASG d 608      24.266  19.152  -2.061  0.00  0.00     0.040 H 
ATOM     72  H   ASG d 608      28.931  23.136   4.162  0.00  0.00     0.078 H 
ATOM     73  H   ASG d 608      27.898  24.385   3.462  0.00  0.00     0.078 H 
ATOM     74  H   ASG d 608      25.831  19.522   0.018  0.00  0.00     0.163 HD
ATOM     75  H   ASG d 608      30.478  23.649   2.538  0.00  0.00     0.209 HD
ATOM     76  H   ASG d 608      27.207  20.112   1.932  0.00  0.00     0.132 H 
ATOM     77  H   ASG d 608      28.005  23.856   0.494  0.00  0.00     0.093 H 
ATOM     78  H   ASG d 608      27.506  21.596  -0.161  0.00  0.00     0.091 H 
ATOM     79  H   ASG d 608      28.838  22.028   1.868  0.00  0.00     0.090 H 
ATOM     80  H   ASG d 608      24.869  20.837   3.369  0.00  0.00     0.212 HD
ATOM     81  H   ASG d 608      24.937  21.997   1.354  0.00  0.00     0.084 H 
ATOM     82  O6B GCD d 611      29.813  32.248  -9.398  0.00  0.00    -0.642 OA
ATOM     83  C6  GCD d 611      30.037  31.512 -10.438  0.00  0.00     0.233 C 
ATOM     84  C5  GCD d 611      31.008  30.369 -10.278  0.00  0.00     0.147 C 
ATOM     85  C2  GCD d 611      32.326  27.709 -10.018  0.00  0.00     0.111 C 
ATOM     86  O6A GCD d 611      29.506  31.529 -11.615  0.00  0.00    -0.642 OA
ATOM     87  C4  GCD d 611      32.364  30.423 -10.247  0.00  0.00    -0.034 C 
ATOM     88  C1  GCD d 611      31.082  28.036  -9.254  0.00  0.00     0.165 C 
ATOM     89  O3  GCD d 611      34.261  28.748 -10.898  0.00  0.00    -0.389 OA
ATOM     90  O5  GCD d 611      30.363  29.050 -10.116  0.00  0.00    -0.311 OA
ATOM     91  O2  GCD d 611      33.117  26.723  -9.291  0.00  0.00    -0.388 OA
ATOM     92  C3  GCD d 611      33.134  29.062 -10.066  0.00  0.00     0.084 C 
ATOM     93  H   GCD d 611      32.104  27.313 -10.987  0.00  0.00     0.095 H 
ATOM     94  H   GCD d 611      32.869  31.318 -10.338  0.00  0.00     0.085 H 
ATOM     95  H   GCD d 611      31.326  28.357  -8.262  0.00  0.00     0.134 H 
ATOM     96  H   GCD d 611      34.612  27.878 -10.652  0.00  0.00     0.210 HD
ATOM     97  H   GCD d 611      33.328  27.065  -8.408  0.00  0.00     0.210 HD
ATOM     98  H   GCD d 611      33.452  29.373  -9.093  0.00  0.00     0.093 H 
ENDROOT
TORSDOF 25
ENDMDL
MODEL 11
REMARK VINA RESULT:      -8.4      1.695      1.959
REMARK  0 active torsions:
REMARK  status: ('A' for Active; 'I' for Inactive)
REMARK       I    between atoms: O3_1  and  C3_6 
REMARK       I    between atoms: O3_3  and  C3_16 
REMARK       I    between atoms: O3_3  and  C1_32 
REMARK       I    between atoms: C8_5  and  C7_53 
REMARK       I    between atoms: C6_7  and  C5_47 
REMARK       I    between atoms: C6_7  and  O6_29 
REMARK       I    between atoms: O4_8  and  C4_45 
REMARK       I    between atoms: O4_8  and  C1_39 
REMARK       I    between atoms: N_10  and  C2_35 
REMARK       I    between atoms: N_10  and  C7_17 
REMARK       I    between atoms: C5_12  and  C6_42 
REMARK       I    between atoms: C1_14  and  O3_57 
REMARK       I    between atoms: C6_15  and  C5_20 
REMARK       I    between atoms: C7_17  and  C8_54 
REMARK       I    between atoms: O6_18  and  C6_42 
REMARK       I    between atoms: S_19  and  O4_46 
REMARK       I    between atoms: C4_22  and  O4_50 
REMARK       I    between atoms: C2_23  and  O2_51 
REMARK       I    between atoms: S_26  and  O4_50 
REMARK       I    between atoms: N_27  and  C2_56 
REMARK       I    between atoms: N_27  and  C7_53 
REMARK       I    between atoms: C5_31  and  C6_55 
REMARK       I    between atoms: C1_33  and  O1_48 
REMARK       I    between atoms: C4_34  and  O4_46 
REMARK       I    between atoms: C3_40  and  O3_57 
REMARK       I    between atoms: C2_41  and  O2_60 
REMARK       I    between atoms: O3_43  and  C3_52 
ROOT
ATOM      1  O3  BDP d 609      24.516  26.976  -6.314  0.00  0.00    -0.390 OA
ATOM      2  C3  BDP d 609      25.107  25.849  -5.682  0.00  0.00     0.092 C 
ATOM      3  O4  BDP d 609      27.276  26.451  -6.477  0.00  0.00    -0.348 OA
ATOM      4  C1  BDP d 609      25.030  24.380  -3.651  0.00  0.00     0.160 C 
ATOM      5  C5  BDP d 609      27.164  25.069  -4.495  0.00  0.00     0.152 C 
ATOM      6  O5  BDP d 609      26.371  24.798  -3.325  0.00  0.00    -0.340 OA
ATOM      7  O6B BDP d 609      28.716  26.375  -3.257  0.00  0.00    -0.646 OA
ATOM      8  C2  BDP d 609      24.301  25.471  -4.447  0.00  0.00     0.110 C 
ATOM      9  C4  BDP d 609      26.527  26.206  -5.285  0.00  0.00     0.103 C 
ATOM     10  C6  BDP d 609      28.568  25.398  -4.020  0.00  0.00     0.206 C 
ATOM     11  O6A BDP d 609      29.492  24.676  -4.453  0.00  0.00    -0.646 OA
ATOM     12  O2  BDP d 609      23.027  24.985  -4.846  0.00  0.00    -0.388 OA
ATOM     13  H   BDP d 609      23.606  26.762  -6.574  0.00  0.00     0.210 HD
ATOM     14  H   BDP d 609      25.117  25.015  -6.352  0.00  0.00     0.091 H 
ATOM     15  H   BDP d 609      25.072  23.494  -4.248  0.00  0.00     0.133 H 
ATOM     16  H   BDP d 609      27.213  24.228  -5.155  0.00  0.00     0.104 H 
ATOM     17  H   BDP d 609      24.185  26.337  -3.830  0.00  0.00     0.094 H 
ATOM     18  H   BDP d 609      26.520  27.076  -4.664  0.00  0.00     0.092 H 
ATOM     19  H   BDP d 609      23.140  24.201  -5.405  0.00  0.00     0.210 HD
ATOM     20  O7  ASG d 610      29.273  25.531  -9.490  0.00  0.00    -0.274 OA
ATOM     21  O3  ASG d 610      30.497  28.924  -9.012  0.00  0.00    -0.348 OA
ATOM     22  OSB ASG d 610      29.169  31.380 -10.543  0.00  0.00    -0.572 OA
ATOM     23  OSA ASG d 610      27.135  32.246  -9.586  0.00  0.00    -0.572 OA
ATOM     24  N   ASG d 610      29.905  26.525  -7.567  0.00  0.00    -0.349 N 
ATOM     25  C5  ASG d 610      27.793  29.999  -6.608  0.00  0.00     0.090 C 
ATOM     26  C3  ASG d 610      29.651  28.930  -7.845  0.00  0.00     0.094 C 
ATOM     27  C7  ASG d 610      29.949  25.539  -8.458  0.00  0.00     0.214 C 
ATOM     28  O6  ASG d 610      26.173  31.101  -5.177  0.00  0.00    -0.398 OA
ATOM     29  O5  ASG d 610      27.110  28.731  -6.555  0.00  0.00    -0.349 OA
ATOM     30  C4  ASG d 610      28.616  30.070  -7.899  0.00  0.00     0.114 C 
ATOM     31  S   ASG d 610      27.777  31.056 -10.166  0.00  0.00     0.252 S 
ATOM     32  C2  ASG d 610      28.936  27.594  -7.715  0.00  0.00     0.087 C 
ATOM     33  C1  ASG d 610      28.019  27.615  -6.497  0.00  0.00     0.154 C 
ATOM     34  C6  ASG d 610      26.742  31.085  -6.480  0.00  0.00     0.043 C 
ATOM     35  OSC ASG d 610      27.005  30.620 -11.346  0.00  0.00    -0.572 OA
ATOM     36  O4  ASG d 610      27.745  29.910  -9.040  0.00  0.00    -0.246 OA
ATOM     37  C8  ASG d 610      30.895  24.381  -8.158  0.00  0.00    -0.003 C 
ATOM     38  H   ASG d 610      30.530  26.530  -6.807  0.00  0.00     0.163 HD
ATOM     39  H   ASG d 610      28.492  30.128  -5.809  0.00  0.00     0.090 H 
ATOM     40  H   ASG d 610      30.276  29.091  -6.992  0.00  0.00     0.091 H 
ATOM     41  H   ASG d 610      25.507  31.804  -5.125  0.00  0.00     0.209 HD
ATOM     42  H   ASG d 610      29.109  31.015  -7.991  0.00  0.00     0.093 H 
ATOM     43  H   ASG d 610      28.354  27.425  -8.597  0.00  0.00     0.084 H 
ATOM     44  H   ASG d 610      28.623  27.702  -5.619  0.00  0.00     0.132 H 
ATOM     45  H   ASG d 610      25.968  30.908  -7.196  0.00  0.00     0.078 H 
ATOM     46  H   ASG d 610      27.211  32.030  -6.656  0.00  0.00     0.078 H 
ATOM     47  H   ASG d 610      30.836  23.659  -8.946  0.00  0.00     0.040 H 
ATOM     48  H   ASG d 610      30.615  23.922  -7.233  0.00  0.00     0.040 H 
ATOM     49  H   ASG d 610      31.896  24.748  -8.085  0.00  0.00     0.040 H 
ATOM     50  C8  ASG d 608      20.376  22.761  -3.777  0.00  0.00    -0.003 C 
ATOM     51  C6  ASG d 608      26.753  21.596   1.047  0.00  0.00     0.043 C 
ATOM     52  O7  ASG d 608      21.052  23.955  -1.830  0.00  0.00    -0.274 OA
ATOM     53  S   ASG d 608      25.801  25.266   0.475  0.00  0.00     0.252 S 
ATOM     54  OSC ASG d 608      25.019  26.343  -0.163  0.00  0.00    -0.572 OA
ATOM     55  N   ASG d 608      22.278  22.140  -2.381  0.00  0.00    -0.349 N 
ATOM     56  O6  ASG d 608      28.098  21.774   0.610  0.00  0.00    -0.398 OA
ATOM     57  O5  ASG d 608      24.508  21.106   0.414  0.00  0.00    -0.349 OA
ATOM     58  C1  ASG d 608      23.464  20.991  -0.573  0.00  0.00     0.151 C 
ATOM     59  C4  ASG d 608      25.571  22.945  -0.760  0.00  0.00     0.114 C 
ATOM     60  OSB ASG d 608      27.106  25.223  -0.209  0.00  0.00    -0.572 OA
ATOM     61  C3  ASG d 608      24.543  22.852  -1.867  0.00  0.00     0.094 C 
ATOM     62  O4  ASG d 608      25.151  23.822   0.300  0.00  0.00    -0.246 OA
ATOM     63  C5  ASG d 608      25.767  21.566  -0.127  0.00  0.00     0.090 C 
ATOM     64  O1  ASG d 608      22.300  20.622   0.079  0.00  0.00    -0.369 OA
ATOM     65  C7  ASG d 608      21.280  23.002  -2.574  0.00  0.00     0.214 C 
ATOM     66  C2  ASG d 608      23.229  22.332  -1.297  0.00  0.00     0.087 C 
ATOM     67  O3  ASG d 608      24.347  24.143  -2.473  0.00  0.00    -0.348 OA
ATOM     68  OSA ASG d 608      26.008  25.429   1.929  0.00  0.00    -0.572 OA
ATOM     69  H   ASG d 608      19.623  23.519  -3.815  0.00  0.00     0.040 H 
ATOM     70  H   ASG d 608      19.913  21.801  -3.688  0.00  0.00     0.040 H 
ATOM     71  H   ASG d 608      20.960  22.793  -4.673  0.00  0.00     0.040 H 
ATOM     72  H   ASG d 608      26.683  20.671   1.580  0.00  0.00     0.078 H 
ATOM     73  H   ASG d 608      26.497  22.424   1.674  0.00  0.00     0.078 H 
ATOM     74  H   ASG d 608      22.373  21.364  -2.979  0.00  0.00     0.163 HD
ATOM     75  H   ASG d 608      28.353  21.033   0.039  0.00  0.00     0.209 HD
ATOM     76  H   ASG d 608      23.751  20.266  -1.305  0.00  0.00     0.132 H 
ATOM     77  H   ASG d 608      26.468  23.320  -1.207  0.00  0.00     0.093 H 
ATOM     78  H   ASG d 608      24.893  22.175  -2.618  0.00  0.00     0.091 H 
ATOM     79  H   ASG d 608      26.145  20.927  -0.898  0.00  0.00     0.090 H 
ATOM     80  H   ASG d 608      22.068  21.298   0.733  0.00  0.00     0.212 HD
ATOM     81  H   ASG d 608      22.840  23.043  -0.597  0.00  0.00     0.084 H 
ATOM     82  O6B GCD d 611      32.928  33.176  -6.924  0.00  0.00    -0.642 OA
ATOM     83  C6  GCD d 611      32.788  32.987  -8.196  0.00  0.00     0.233 C 
ATOM     84  C5  GCD d 611      33.005  31.588  -8.715  0.00  0.00     0.147 C 
ATOM     85  C2  GCD d 611      32.717  28.842  -9.835  0.00  0.00     0.111 C 
ATOM     86  O6A GCD d 611      32.408  33.793  -9.132  0.00  0.00    -0.642 OA
ATOM     87  C4  GCD d 611      34.185  30.952  -8.933  0.00  0.00    -0.034 C 
ATOM     88  C1  GCD d 611      31.791  29.348  -8.776  0.00  0.00     0.165 C 
ATOM     89  O3  GCD d 611      34.954  29.071 -10.575  0.00  0.00    -0.389 OA
ATOM     90  O5  GCD d 611      31.757  30.846  -8.985  0.00  0.00    -0.311 OA
ATOM     91  O2  GCD d 611      32.834  27.391  -9.750  0.00  0.00    -0.388 OA
ATOM     92  C3  GCD d 611      34.116  29.479  -9.484  0.00  0.00     0.084 C 
ATOM     93  H   GCD d 611      32.373  29.093 -10.817  0.00  0.00     0.095 H 
ATOM     94  H   GCD d 611      35.088  31.414  -8.746  0.00  0.00     0.085 H 
ATOM     95  H   GCD d 611      32.114  29.019  -7.810  0.00  0.00     0.134 H 
ATOM     96  H   GCD d 611      34.783  28.139 -10.783  0.00  0.00     0.210 HD
ATOM     97  H   GCD d 611      33.146  27.144  -8.866  0.00  0.00     0.210 HD
ATOM     98  H   GCD d 611      34.497  29.115  -8.553  0.00  0.00     0.093 H 
ENDROOT
TORSDOF 25
ENDMDL
MODEL 12
REMARK VINA RESULT:      -8.4      2.705      3.617
REMARK  0 active torsions:
REMARK  status: ('A' for Active; 'I' for Inactive)
REMARK       I    between atoms: O3_1  and  C3_6 
REMARK       I    between atoms: O3_3  and  C3_16 
REMARK       I    between atoms: O3_3  and  C1_32 
REMARK       I    between atoms: C8_5  and  C7_53 
REMARK       I    between atoms: C6_7  and  C5_47 
REMARK       I    between atoms: C6_7  and  O6_29 
REMARK       I    between atoms: O4_8  and  C4_45 
REMARK       I    between atoms: O4_8  and  C1_39 
REMARK       I    between atoms: N_10  and  C2_35 
REMARK       I    between atoms: N_10  and  C7_17 
REMARK       I    between atoms: C5_12  and  C6_42 
REMARK       I    between atoms: C1_14  and  O3_57 
REMARK       I    between atoms: C6_15  and  C5_20 
REMARK       I    between atoms: C7_17  and  C8_54 
REMARK       I    between atoms: O6_18  and  C6_42 
REMARK       I    between atoms: S_19  and  O4_46 
REMARK       I    between atoms: C4_22  and  O4_50 
REMARK       I    between atoms: C2_23  and  O2_51 
REMARK       I    between atoms: S_26  and  O4_50 
REMARK       I    between atoms: N_27  and  C2_56 
REMARK       I    between atoms: N_27  and  C7_53 
REMARK       I    between atoms: C5_31  and  C6_55 
REMARK       I    between atoms: C1_33  and  O1_48 
REMARK       I    between atoms: C4_34  and  O4_46 
REMARK       I    between atoms: C3_40  and  O3_57 
REMARK       I    between atoms: C2_41  and  O2_60 
REMARK       I    between atoms: O3_43  and  C3_52 
ROOT
ATOM      1  O3  BDP d 609      30.190  22.327  -5.315  0.00  0.00    -0.390 OA
ATOM      2  C3  BDP d 609      30.084  22.476  -3.905  0.00  0.00     0.092 C 
ATOM      3  O4  BDP d 609      31.514  24.388  -3.930  0.00  0.00    -0.348 OA
ATOM      4  C1  BDP d 609      28.535  22.265  -1.945  0.00  0.00     0.160 C 
ATOM      5  C5  BDP d 609      29.978  24.175  -2.074  0.00  0.00     0.152 C 
ATOM      6  O5  BDP d 609      28.675  23.681  -1.710  0.00  0.00    -0.340 OA
ATOM      7  O6B BDP d 609      29.195  26.415  -2.208  0.00  0.00    -0.646 OA
ATOM      8  C2  BDP d 609      28.742  21.939  -3.430  0.00  0.00     0.110 C 
ATOM      9  C4  BDP d 609      30.204  23.949  -3.564  0.00  0.00     0.103 C 
ATOM     10  C6  BDP d 609      30.026  25.642  -1.687  0.00  0.00     0.206 C 
ATOM     11  O6A BDP d 609      30.923  25.982  -0.886  0.00  0.00    -0.646 OA
ATOM     12  O2  BDP d 609      28.707  20.530  -3.609  0.00  0.00    -0.388 OA
ATOM     13  H   BDP d 609      30.115  21.388  -5.548  0.00  0.00     0.210 HD
ATOM     14  H   BDP d 609      30.864  21.928  -3.419  0.00  0.00     0.091 H 
ATOM     15  H   BDP d 609      29.272  21.738  -1.376  0.00  0.00     0.133 H 
ATOM     16  H   BDP d 609      30.764  23.658  -1.564  0.00  0.00     0.104 H 
ATOM     17  H   BDP d 609      27.963  22.399  -4.001  0.00  0.00     0.094 H 
ATOM     18  H   BDP d 609      29.463  24.505  -4.099  0.00  0.00     0.092 H 
ATOM     19  H   BDP d 609      29.416  20.121  -3.088  0.00  0.00     0.210 HD
ATOM     20  O7  ASG d 610      35.185  24.879  -3.487  0.00  0.00    -0.274 OA
ATOM     21  O3  ASG d 610      34.525  27.601  -5.810  0.00  0.00    -0.348 OA
ATOM     22  OSB ASG d 610      34.876  27.201  -8.949  0.00  0.00    -0.572 OA
ATOM     23  OSA ASG d 610      33.048  26.120 -10.087  0.00  0.00    -0.572 OA
ATOM     24  N   ASG d 610      33.496  26.372  -3.438  0.00  0.00    -0.349 N 
ATOM     25  C5  ASG d 610      31.096  26.422  -6.855  0.00  0.00     0.090 C 
ATOM     26  C3  ASG d 610      33.148  27.189  -5.705  0.00  0.00     0.094 C 
ATOM     27  C7  ASG d 610      34.518  25.725  -2.886  0.00  0.00     0.214 C 
ATOM     28  O6  ASG d 610      28.954  25.925  -7.881  0.00  0.00    -0.398 OA
ATOM     29  O5  ASG d 610      31.047  25.273  -5.986  0.00  0.00    -0.349 OA
ATOM     30  C4  ASG d 610      32.559  26.818  -7.079  0.00  0.00     0.114 C 
ATOM     31  S   ASG d 610      34.066  25.969  -9.035  0.00  0.00     0.252 S 
ATOM     32  C2  ASG d 610      33.032  26.001  -4.760  0.00  0.00     0.087 C 
ATOM     33  C1  ASG d 610      31.578  25.548  -4.676  0.00  0.00     0.154 C 
ATOM     34  C6  ASG d 610      30.348  26.062  -8.125  0.00  0.00     0.043 C 
ATOM     35  OSC ASG d 610      34.917  24.805  -9.353  0.00  0.00    -0.572 OA
ATOM     36  O4  ASG d 610      33.280  25.708  -7.657  0.00  0.00    -0.246 OA
ATOM     37  C8  ASG d 610      34.856  26.074  -1.440  0.00  0.00    -0.003 C 
ATOM     38  H   ASG d 610      33.055  27.103  -2.948  0.00  0.00     0.163 HD
ATOM     39  H   ASG d 610      30.621  27.284  -6.433  0.00  0.00     0.090 H 
ATOM     40  H   ASG d 610      32.590  28.015  -5.318  0.00  0.00     0.091 H 
ATOM     41  H   ASG d 610      28.502  25.694  -8.708  0.00  0.00     0.209 HD
ATOM     42  H   ASG d 610      32.636  27.647  -7.751  0.00  0.00     0.093 H 
ATOM     43  H   ASG d 610      33.634  25.200  -5.136  0.00  0.00     0.084 H 
ATOM     44  H   ASG d 610      31.005  26.331  -4.224  0.00  0.00     0.132 H 
ATOM     45  H   ASG d 610      30.728  25.136  -8.503  0.00  0.00     0.078 H 
ATOM     46  H   ASG d 610      30.491  26.848  -8.836  0.00  0.00     0.078 H 
ATOM     47  H   ASG d 610      35.691  25.489  -1.117  0.00  0.00     0.040 H 
ATOM     48  H   ASG d 610      34.011  25.867  -0.817  0.00  0.00     0.040 H 
ATOM     49  H   ASG d 610      35.102  27.113  -1.373  0.00  0.00     0.040 H 
ATOM     50  C8  ASG d 608      27.182  17.536  -2.258  0.00  0.00    -0.003 C 
ATOM     51  C6  ASG d 608      25.562  23.673   2.742  0.00  0.00     0.043 C 
ATOM     52  O7  ASG d 608      25.448  19.165  -2.358  0.00  0.00    -0.274 OA
ATOM     53  S   ASG d 608      24.944  24.400  -0.972  0.00  0.00     0.252 S 
ATOM     54  OSC ASG d 608      24.991  24.064  -2.409  0.00  0.00    -0.572 OA
ATOM     55  N   ASG d 608      26.794  19.230  -0.546  0.00  0.00    -0.349 N 
ATOM     56  O6  ASG d 608      26.438  24.783   2.915  0.00  0.00    -0.398 OA
ATOM     57  O5  ASG d 608      25.362  21.376   2.137  0.00  0.00    -0.349 OA
ATOM     58  C1  ASG d 608      25.868  20.180   1.511  0.00  0.00     0.151 C 
ATOM     59  C4  ASG d 608      26.447  22.817   0.513  0.00  0.00     0.114 C 
ATOM     60  OSB ASG d 608      26.073  25.310  -0.710  0.00  0.00    -0.572 OA
ATOM     61  C3  ASG d 608      27.062  21.614  -0.167  0.00  0.00     0.094 C 
ATOM     62  O4  ASG d 608      25.150  23.139  -0.020  0.00  0.00    -0.246 OA
ATOM     63  C5  ASG d 608      26.241  22.516   1.998  0.00  0.00     0.090 C 
ATOM     64  O1  ASG d 608      24.908  19.191   1.645  0.00  0.00    -0.369 OA
ATOM     65  C7  ASG d 608      26.402  18.727  -1.717  0.00  0.00     0.214 C 
ATOM     66  C2  ASG d 608      26.149  20.408   0.013  0.00  0.00     0.087 C 
ATOM     67  O3  ASG d 608      27.262  21.883  -1.568  0.00  0.00    -0.348 OA
ATOM     68  OSA ASG d 608      23.685  25.029  -0.524  0.00  0.00    -0.572 OA
ATOM     69  H   ASG d 608      26.767  17.234  -3.197  0.00  0.00     0.040 H 
ATOM     70  H   ASG d 608      27.122  16.724  -1.563  0.00  0.00     0.040 H 
ATOM     71  H   ASG d 608      28.206  17.813  -2.394  0.00  0.00     0.040 H 
ATOM     72  H   ASG d 608      25.247  23.327   3.704  0.00  0.00     0.078 H 
ATOM     73  H   ASG d 608      24.727  23.998   2.156  0.00  0.00     0.078 H 
ATOM     74  H   ASG d 608      27.529  18.798  -0.054  0.00  0.00     0.163 HD
ATOM     75  H   ASG d 608      27.203  24.511   3.444  0.00  0.00     0.209 HD
ATOM     76  H   ASG d 608      26.787  19.900   1.982  0.00  0.00     0.132 H 
ATOM     77  H   ASG d 608      27.117  23.636   0.352  0.00  0.00     0.093 H 
ATOM     78  H   ASG d 608      28.013  21.405   0.277  0.00  0.00     0.091 H 
ATOM     79  H   ASG d 608      27.212  22.343   2.412  0.00  0.00     0.090 H 
ATOM     80  H   ASG d 608      24.090  19.475   1.209  0.00  0.00     0.212 HD
ATOM     81  H   ASG d 608      25.222  20.585  -0.493  0.00  0.00     0.084 H 
ATOM     82  O6B GCD d 611      32.708  32.161  -7.872  0.00  0.00    -0.642 OA
ATOM     83  C6  GCD d 611      33.836  31.624  -8.209  0.00  0.00     0.233 C 
ATOM     84  C5  GCD d 611      34.676  31.031  -7.107  0.00  0.00     0.147 C 
ATOM     85  C2  GCD d 611      36.142  29.235  -5.235  0.00  0.00     0.111 C 
ATOM     86  O6A GCD d 611      34.362  31.427  -9.373  0.00  0.00    -0.642 OA
ATOM     87  C4  GCD d 611      35.462  31.684  -6.212  0.00  0.00    -0.034 C 
ATOM     88  C1  GCD d 611      34.726  28.956  -5.628  0.00  0.00     0.165 C 
ATOM     89  O3  GCD d 611      37.625  31.046  -4.893  0.00  0.00    -0.389 OA
ATOM     90  O5  GCD d 611      34.590  29.560  -7.009  0.00  0.00    -0.311 OA
ATOM     91  O2  GCD d 611      36.412  28.690  -3.910  0.00  0.00    -0.388 OA
ATOM     92  C3  GCD d 611      36.235  30.806  -5.159  0.00  0.00     0.084 C 
ATOM     93  H   GCD d 611      36.838  28.802  -5.923  0.00  0.00     0.095 H 
ATOM     94  H   GCD d 611      35.548  32.712  -6.222  0.00  0.00     0.085 H 
ATOM     95  H   GCD d 611      34.052  29.330  -4.887  0.00  0.00     0.134 H 
ATOM     96  H   GCD d 611      37.939  30.420  -4.223  0.00  0.00     0.210 HD
ATOM     97  H   GCD d 611      35.789  29.071  -3.271  0.00  0.00     0.210 HD
ATOM     98  H   GCD d 611      35.622  31.206  -4.379  0.00  0.00     0.093 H 
ENDROOT
TORSDOF 25
ENDMDL
MODEL 13
REMARK VINA RESULT:      -8.3      3.812      4.629
REMARK  0 active torsions:
REMARK  status: ('A' for Active; 'I' for Inactive)
REMARK       I    between atoms: O3_1  and  C3_6 
REMARK       I    between atoms: O3_3  and  C3_16 
REMARK       I    between atoms: O3_3  and  C1_32 
REMARK       I    between atoms: C8_5  and  C7_53 
REMARK       I    between atoms: C6_7  and  C5_47 
REMARK       I    between atoms: C6_7  and  O6_29 
REMARK       I    between atoms: O4_8  and  C4_45 
REMARK       I    between atoms: O4_8  and  C1_39 
REMARK       I    between atoms: N_10  and  C2_35 
REMARK       I    between atoms: N_10  and  C7_17 
REMARK       I    between atoms: C5_12  and  C6_42 
REMARK       I    between atoms: C1_14  and  O3_57 
REMARK       I    between atoms: C6_15  and  C5_20 
REMARK       I    between atoms: C7_17  and  C8_54 
REMARK       I    between atoms: O6_18  and  C6_42 
REMARK       I    between atoms: S_19  and  O4_46 
REMARK       I    between atoms: C4_22  and  O4_50 
REMARK       I    between atoms: C2_23  and  O2_51 
REMARK       I    between atoms: S_26  and  O4_50 
REMARK       I    between atoms: N_27  and  C2_56 
REMARK       I    between atoms: N_27  and  C7_53 
REMARK       I    between atoms: C5_31  and  C6_55 
REMARK       I    between atoms: C1_33  and  O1_48 
REMARK       I    between atoms: C4_34  and  O4_46 
REMARK       I    between atoms: C3_40  and  O3_57 
REMARK       I    between atoms: C2_41  and  O2_60 
REMARK       I    between atoms: O3_43  and  C3_52 
ROOT
ATOM      1  O3  BDP d 609      23.650  22.357  -5.239  0.00  0.00    -0.390 OA
ATOM      2  C3  BDP d 609      24.801  22.161  -4.427  0.00  0.00     0.092 C 
ATOM      3  O4  BDP d 609      26.189  23.303  -5.998  0.00  0.00    -0.348 OA
ATOM      4  C1  BDP d 609      25.634  22.060  -2.065  0.00  0.00     0.160 C 
ATOM      5  C5  BDP d 609      26.943  23.224  -3.701  0.00  0.00     0.152 C 
ATOM      6  O5  BDP d 609      26.480  23.197  -2.338  0.00  0.00    -0.340 OA
ATOM      7  O6B BDP d 609      27.453  25.542  -3.581  0.00  0.00    -0.646 OA
ATOM      8  C2  BDP d 609      24.390  22.081  -2.964  0.00  0.00     0.110 C 
ATOM      9  C4  BDP d 609      25.747  23.327  -4.640  0.00  0.00     0.103 C 
ATOM     10  C6  BDP d 609      27.894  24.400  -3.828  0.00  0.00     0.206 C 
ATOM     11  O6A BDP d 609      29.058  24.144  -4.203  0.00  0.00    -0.646 OA
ATOM     12  O2  BDP d 609      23.638  20.896  -2.748  0.00  0.00    -0.388 OA
ATOM     13  H   BDP d 609      23.035  21.617  -5.113  0.00  0.00     0.210 HD
ATOM     14  H   BDP d 609      25.287  21.246  -4.696  0.00  0.00     0.091 H 
ATOM     15  H   BDP d 609      26.179  21.160  -2.259  0.00  0.00     0.133 H 
ATOM     16  H   BDP d 609      27.465  22.329  -3.969  0.00  0.00     0.104 H 
ATOM     17  H   BDP d 609      23.798  22.939  -2.723  0.00  0.00     0.094 H 
ATOM     18  H   BDP d 609      25.240  24.245  -4.429  0.00  0.00     0.092 H 
ATOM     19  H   BDP d 609      24.181  20.124  -2.969  0.00  0.00     0.210 HD
ATOM     20  O7  ASG d 610      28.296  22.198  -8.871  0.00  0.00    -0.274 OA
ATOM     21  O3  ASG d 610      27.303  25.468 -10.120  0.00  0.00    -0.348 OA
ATOM     22  OSB ASG d 610      24.760  25.801 -12.008  0.00  0.00    -0.572 OA
ATOM     23  OSA ASG d 610      22.621  25.851 -10.901  0.00  0.00    -0.572 OA
ATOM     24  N   ASG d 610      28.255  24.159  -7.759  0.00  0.00    -0.349 N 
ATOM     25  C5  ASG d 610      24.523  26.029  -7.630  0.00  0.00     0.090 C 
ATOM     26  C3  ASG d 610      26.634  25.610  -8.851  0.00  0.00     0.094 C 
ATOM     27  C7  ASG d 610      28.856  23.047  -8.172  0.00  0.00     0.214 C 
ATOM     28  O6  ASG d 610      22.588  26.688  -6.322  0.00  0.00    -0.398 OA
ATOM     29  O5  ASG d 610      24.715  24.805  -6.893  0.00  0.00    -0.349 OA
ATOM     30  C4  ASG d 610      25.126  25.871  -9.029  0.00  0.00     0.114 C 
ATOM     31  S   ASG d 610      23.830  25.048 -11.142  0.00  0.00     0.252 S 
ATOM     32  C2  ASG d 610      26.841  24.358  -8.012  0.00  0.00     0.087 C 
ATOM     33  C1  ASG d 610      26.107  24.499  -6.683  0.00  0.00     0.154 C 
ATOM     34  C6  ASG d 610      23.037  26.333  -7.623  0.00  0.00     0.043 C 
ATOM     35  OSC ASG d 610      23.442  23.774 -11.776  0.00  0.00    -0.572 OA
ATOM     36  O4  ASG d 610      24.496  24.762  -9.707  0.00  0.00    -0.246 OA
ATOM     37  C8  ASG d 610      30.306  22.847  -7.745  0.00  0.00    -0.003 C 
ATOM     38  H   ASG d 610      28.772  24.849  -7.282  0.00  0.00     0.163 HD
ATOM     39  H   ASG d 610      25.026  26.864  -7.188  0.00  0.00     0.090 H 
ATOM     40  H   ASG d 610      27.059  26.455  -8.352  0.00  0.00     0.091 H 
ATOM     41  H   ASG d 610      21.637  26.876  -6.348  0.00  0.00     0.209 HD
ATOM     42  H   ASG d 610      24.968  26.749  -9.619  0.00  0.00     0.093 H 
ATOM     43  H   ASG d 610      26.455  23.515  -8.546  0.00  0.00     0.084 H 
ATOM     44  H   ASG d 610      26.559  25.294  -6.128  0.00  0.00     0.132 H 
ATOM     45  H   ASG d 610      22.502  25.466  -7.951  0.00  0.00     0.078 H 
ATOM     46  H   ASG d 610      22.858  27.159  -8.279  0.00  0.00     0.078 H 
ATOM     47  H   ASG d 610      30.669  21.921  -8.139  0.00  0.00     0.040 H 
ATOM     48  H   ASG d 610      30.364  22.827  -6.677  0.00  0.00     0.040 H 
ATOM     49  H   ASG d 610      30.902  23.652  -8.120  0.00  0.00     0.040 H 
ATOM     50  C8  ASG d 608      22.817  18.487  -0.172  0.00  0.00    -0.003 C 
ATOM     51  C6  ASG d 608      28.741  23.230   2.601  0.00  0.00     0.043 C 
ATOM     52  O7  ASG d 608      22.694  20.625   0.870  0.00  0.00    -0.274 OA
ATOM     53  S   ASG d 608      25.806  25.085   0.973  0.00  0.00     0.252 S 
ATOM     54  OSC ASG d 608      24.530  25.146   0.233  0.00  0.00    -0.572 OA
ATOM     55  N   ASG d 608      24.744  19.686   0.723  0.00  0.00    -0.349 N 
ATOM     56  O6  ASG d 608      29.717  23.826   1.751  0.00  0.00    -0.398 OA
ATOM     57  O5  ASG d 608      27.201  21.435   2.903  0.00  0.00    -0.349 OA
ATOM     58  C1  ASG d 608      26.408  20.346   2.393  0.00  0.00     0.151 C 
ATOM     59  C4  ASG d 608      26.963  22.715   0.853  0.00  0.00     0.114 C 
ATOM     60  OSB ASG d 608      26.876  25.383   0.004  0.00  0.00    -0.572 OA
ATOM     61  C3  ASG d 608      26.167  21.590   0.226  0.00  0.00     0.094 C 
ATOM     62  O4  ASG d 608      26.125  23.641   1.567  0.00  0.00    -0.246 OA
ATOM     63  C5  ASG d 608      27.942  22.139   1.878  0.00  0.00     0.090 C 
ATOM     64  O1  ASG d 608      25.693  19.809   3.450  0.00  0.00    -0.369 OA
ATOM     65  C7  ASG d 608      23.426  19.700   0.519  0.00  0.00     0.214 C 
ATOM     66  C2  ASG d 608      25.418  20.831   1.315  0.00  0.00     0.087 C 
ATOM     67  O3  ASG d 608      25.240  22.117  -0.741  0.00  0.00    -0.348 OA
ATOM     68  OSA ASG d 608      25.902  26.011   2.119  0.00  0.00    -0.572 OA
ATOM     69  H   ASG d 608      21.761  18.627  -0.273  0.00  0.00     0.040 H 
ATOM     70  H   ASG d 608      23.006  17.611   0.412  0.00  0.00     0.040 H 
ATOM     71  H   ASG d 608      23.255  18.371  -1.141  0.00  0.00     0.040 H 
ATOM     72  H   ASG d 608      29.236  22.794   3.443  0.00  0.00     0.078 H 
ATOM     73  H   ASG d 608      28.058  23.994   2.906  0.00  0.00     0.078 H 
ATOM     74  H   ASG d 608      25.266  18.891   0.470  0.00  0.00     0.163 HD
ATOM     75  H   ASG d 608      30.350  23.151   1.462  0.00  0.00     0.209 HD
ATOM     76  H   ASG d 608      27.054  19.619   1.947  0.00  0.00     0.132 H 
ATOM     77  H   ASG d 608      27.461  23.221   0.053  0.00  0.00     0.093 H 
ATOM     78  H   ASG d 608      26.836  20.921  -0.274  0.00  0.00     0.091 H 
ATOM     79  H   ASG d 608      28.609  21.502   1.338  0.00  0.00     0.090 H 
ATOM     80  H   ASG d 608      25.119  20.491   3.831  0.00  0.00     0.212 HD
ATOM     81  H   ASG d 608      24.698  21.479   1.768  0.00  0.00     0.084 H 
ATOM     82  O6B GCD d 611      26.808  30.743 -10.650  0.00  0.00    -0.642 OA
ATOM     83  C6  GCD d 611      26.784  29.920 -11.648  0.00  0.00     0.233 C 
ATOM     84  C5  GCD d 611      27.773  28.782 -11.628  0.00  0.00     0.147 C 
ATOM     85  C2  GCD d 611      29.134  26.136 -11.467  0.00  0.00     0.111 C 
ATOM     86  O6A GCD d 611      25.988  29.847 -12.663  0.00  0.00    -0.642 OA
ATOM     87  C4  GCD d 611      29.097  28.820 -11.925  0.00  0.00    -0.034 C 
ATOM     88  C1  GCD d 611      28.105  26.540 -10.461  0.00  0.00     0.165 C 
ATOM     89  O3  GCD d 611      30.797  27.073 -12.865  0.00  0.00    -0.389 OA
ATOM     90  O5  GCD d 611      27.194  27.489 -11.209  0.00  0.00    -0.311 OA
ATOM     91  O2  GCD d 611      30.082  25.203 -10.870  0.00  0.00    -0.388 OA
ATOM     92  C3  GCD d 611      29.898  27.469 -11.819  0.00  0.00     0.084 C 
ATOM     93  H   GCD d 611      28.691  25.663 -12.320  0.00  0.00     0.095 H 
ATOM     94  H   GCD d 611      29.560  29.698 -12.207  0.00  0.00     0.085 H 
ATOM     95  H   GCD d 611      28.575  26.939  -9.585  0.00  0.00     0.134 H 
ATOM     96  H   GCD d 611      31.203  26.222 -12.638  0.00  0.00     0.210 HD
ATOM     97  H   GCD d 611      30.494  25.614 -10.094  0.00  0.00     0.210 HD
ATOM     98  H   GCD d 611      30.435  27.855 -10.979  0.00  0.00     0.093 H 
ENDROOT
TORSDOF 25
ENDMDL
MODEL 14
REMARK VINA RESULT:      -8.2      3.530     11.627
REMARK  0 active torsions:
REMARK  status: ('A' for Active; 'I' for Inactive)
REMARK       I    between atoms: O3_1  and  C3_6 
REMARK       I    between atoms: O3_3  and  C3_16 
REMARK       I    between atoms: O3_3  and  C1_32 
REMARK       I    between atoms: C8_5  and  C7_53 
REMARK       I    between atoms: C6_7  and  C5_47 
REMARK       I    between atoms: C6_7  and  O6_29 
REMARK       I    between atoms: O4_8  and  C4_45 
REMARK       I    between atoms: O4_8  and  C1_39 
REMARK       I    between atoms: N_10  and  C2_35 
REMARK       I    between atoms: N_10  and  C7_17 
REMARK       I    between atoms: C5_12  and  C6_42 
REMARK       I    between atoms: C1_14  and  O3_57 
REMARK       I    between atoms: C6_15  and  C5_20 
REMARK       I    between atoms: C7_17  and  C8_54 
REMARK       I    between atoms: O6_18  and  C6_42 
REMARK       I    between atoms: S_19  and  O4_46 
REMARK       I    between atoms: C4_22  and  O4_50 
REMARK       I    between atoms: C2_23  and  O2_51 
REMARK       I    between atoms: S_26  and  O4_50 
REMARK       I    between atoms: N_27  and  C2_56 
REMARK       I    between atoms: N_27  and  C7_53 
REMARK       I    between atoms: C5_31  and  C6_55 
REMARK       I    between atoms: C1_33  and  O1_48 
REMARK       I    between atoms: C4_34  and  O4_46 
REMARK       I    between atoms: C3_40  and  O3_57 
REMARK       I    between atoms: C2_41  and  O2_60 
REMARK       I    between atoms: O3_43  and  C3_52 
ROOT
ATOM      1  O3  BDP d 609      27.747  26.077  -6.992  0.00  0.00    -0.390 OA
ATOM      2  C3  BDP d 609      29.156  25.903  -6.911  0.00  0.00     0.092 C 
ATOM      3  O4  BDP d 609      28.989  25.016  -4.701  0.00  0.00    -0.348 OA
ATOM      4  C1  BDP d 609      31.210  25.286  -8.210  0.00  0.00     0.160 C 
ATOM      5  C5  BDP d 609      30.938  24.407  -5.997  0.00  0.00     0.152 C 
ATOM      6  O5  BDP d 609      31.393  24.152  -7.339  0.00  0.00    -0.340 OA
ATOM      7  O6B BDP d 609      30.784  22.087  -5.507  0.00  0.00    -0.646 OA
ATOM      8  C2  BDP d 609      29.725  25.664  -8.302  0.00  0.00     0.110 C 
ATOM      9  C4  BDP d 609      29.444  24.710  -6.020  0.00  0.00     0.103 C 
ATOM     10  C6  BDP d 609      31.277  23.182  -5.167  0.00  0.00     0.206 C 
ATOM     11  O6A BDP d 609      32.013  23.363  -4.174  0.00  0.00    -0.646 OA
ATOM     12  O2  BDP d 609      29.591  26.848  -9.076  0.00  0.00    -0.388 OA
ATOM     13  H   BDP d 609      27.547  26.839  -7.560  0.00  0.00     0.210 HD
ATOM     14  H   BDP d 609      29.611  26.780  -6.501  0.00  0.00     0.091 H 
ATOM     15  H   BDP d 609      31.750  26.123  -7.819  0.00  0.00     0.133 H 
ATOM     16  H   BDP d 609      31.416  25.260  -5.563  0.00  0.00     0.104 H 
ATOM     17  H   BDP d 609      29.187  24.863  -8.764  0.00  0.00     0.094 H 
ATOM     18  H   BDP d 609      28.938  23.847  -6.397  0.00  0.00     0.092 H 
ATOM     19  H   BDP d 609      30.081  27.569  -8.651  0.00  0.00     0.210 HD
ATOM     20  O7  ASG d 610      29.199  26.513  -1.291  0.00  0.00    -0.274 OA
ATOM     21  O3  ASG d 610      26.839  23.834  -0.590  0.00  0.00    -0.348 OA
ATOM     22  OSB ASG d 610      23.697  24.342  -0.707  0.00  0.00    -0.572 OA
ATOM     23  OSA ASG d 610      22.703  24.306  -2.901  0.00  0.00    -0.572 OA
ATOM     24  N   ASG d 610      29.303  24.359  -1.948  0.00  0.00    -0.349 N 
ATOM     25  C5  ASG d 610      26.033  23.047  -4.192  0.00  0.00     0.090 C 
ATOM     26  C3  ASG d 610      27.037  23.468  -1.970  0.00  0.00     0.094 C 
ATOM     27  C7  ASG d 610      29.813  25.446  -1.379  0.00  0.00     0.214 C 
ATOM     28  O6  ASG d 610      25.151  22.350  -6.343  0.00  0.00    -0.398 OA
ATOM     29  O5  ASG d 610      26.938  24.007  -4.774  0.00  0.00    -0.349 OA
ATOM     30  C4  ASG d 610      25.712  23.470  -2.755  0.00  0.00     0.114 C 
ATOM     31  S   ASG d 610      23.697  24.971  -2.043  0.00  0.00     0.252 S 
ATOM     32  C2  ASG d 610      28.022  24.426  -2.625  0.00  0.00     0.087 C 
ATOM     33  C1  ASG d 610      28.206  24.055  -4.092  0.00  0.00     0.154 C 
ATOM     34  C6  ASG d 610      24.822  22.958  -5.101  0.00  0.00     0.043 C 
ATOM     35  OSC ASG d 610      23.364  26.405  -1.945  0.00  0.00    -0.572 OA
ATOM     36  O4  ASG d 610      25.126  24.791  -2.757  0.00  0.00    -0.246 OA
ATOM     37  C8  ASG d 610      31.225  25.331  -0.814  0.00  0.00    -0.003 C 
ATOM     38  H   ASG d 610      29.795  23.507  -1.912  0.00  0.00     0.163 HD
ATOM     39  H   ASG d 610      26.457  22.067  -4.120  0.00  0.00     0.090 H 
ATOM     40  H   ASG d 610      27.431  22.474  -1.990  0.00  0.00     0.091 H 
ATOM     41  H   ASG d 610      24.360  22.307  -6.901  0.00  0.00     0.209 HD
ATOM     42  H   ASG d 610      25.011  22.800  -2.303  0.00  0.00     0.093 H 
ATOM     43  H   ASG d 610      27.636  25.422  -2.553  0.00  0.00     0.084 H 
ATOM     44  H   ASG d 610      28.667  23.092  -4.143  0.00  0.00     0.132 H 
ATOM     45  H   ASG d 610      24.450  23.945  -5.283  0.00  0.00     0.078 H 
ATOM     46  H   ASG d 610      24.080  22.358  -4.617  0.00  0.00     0.078 H 
ATOM     47  H   ASG d 610      31.516  26.268  -0.386  0.00  0.00     0.040 H 
ATOM     48  H   ASG d 610      31.903  25.072  -1.599  0.00  0.00     0.040 H 
ATOM     49  H   ASG d 610      31.246  24.574  -0.059  0.00  0.00     0.040 H 
ATOM     50  C8  ASG d 608      31.119  28.616 -11.843  0.00  0.00    -0.003 C 
ATOM     51  C6  ASG d 608      36.020  22.559  -9.700  0.00  0.00     0.043 C 
ATOM     52  O7  ASG d 608      31.073  26.321 -12.480  0.00  0.00    -0.274 OA
ATOM     53  S   ASG d 608      32.328  21.598 -10.092  0.00  0.00     0.252 S 
ATOM     54  OSC ASG d 608      30.902  21.901 -10.323  0.00  0.00    -0.572 OA
ATOM     55  N   ASG d 608      32.800  26.976 -11.179  0.00  0.00    -0.349 N 
ATOM     56  O6  ASG d 608      36.107  22.069  -8.365  0.00  0.00    -0.398 OA
ATOM     57  O5  ASG d 608      35.496  24.412 -11.105  0.00  0.00    -0.349 OA
ATOM     58  C1  ASG d 608      34.879  25.694 -11.337  0.00  0.00     0.151 C 
ATOM     59  C4  ASG d 608      33.769  23.739  -9.539  0.00  0.00     0.114 C 
ATOM     60  OSB ASG d 608      32.496  21.410  -8.640  0.00  0.00    -0.572 OA
ATOM     61  C3  ASG d 608      33.090  25.083  -9.686  0.00  0.00     0.094 C 
ATOM     62  O4  ASG d 608      33.304  22.786 -10.511  0.00  0.00    -0.246 OA
ATOM     63  C5  ASG d 608      35.272  23.896  -9.772  0.00  0.00     0.090 C 
ATOM     64  O1  ASG d 608      35.098  26.038 -12.660  0.00  0.00    -0.369 OA
ATOM     65  C7  ASG d 608      31.670  27.195 -11.852  0.00  0.00     0.214 C 
ATOM     66  C2  ASG d 608      33.360  25.638 -11.079  0.00  0.00     0.087 C 
ATOM     67  O3  ASG d 608      31.673  24.951  -9.469  0.00  0.00    -0.348 OA
ATOM     68  OSA ASG d 608      32.831  20.407 -10.808  0.00  0.00    -0.572 OA
ATOM     69  H   ASG d 608      30.216  28.652 -12.416  0.00  0.00     0.040 H 
ATOM     70  H   ASG d 608      31.840  29.280 -12.271  0.00  0.00     0.040 H 
ATOM     71  H   ASG d 608      30.914  28.912 -10.836  0.00  0.00     0.040 H 
ATOM     72  H   ASG d 608      37.009  22.695 -10.083  0.00  0.00     0.078 H 
ATOM     73  H   ASG d 608      35.475  21.843 -10.280  0.00  0.00     0.078 H 
ATOM     74  H   ASG d 608      33.260  27.730 -10.745  0.00  0.00     0.163 HD
ATOM     75  H   ASG d 608      36.598  22.703  -7.819  0.00  0.00     0.209 HD
ATOM     76  H   ASG d 608      35.302  26.414 -10.669  0.00  0.00     0.132 H 
ATOM     77  H   ASG d 608      33.544  23.389  -8.553  0.00  0.00     0.093 H 
ATOM     78  H   ASG d 608      33.484  25.759  -8.955  0.00  0.00     0.091 H 
ATOM     79  H   ASG d 608      35.633  24.552  -9.008  0.00  0.00     0.090 H 
ATOM     80  H   ASG d 608      34.703  25.367 -13.238  0.00  0.00     0.212 HD
ATOM     81  H   ASG d 608      32.905  25.001 -11.809  0.00  0.00     0.084 H 
ATOM     82  O6B GCD d 611      24.752  18.984   0.099  0.00  0.00    -0.642 OA
ATOM     83  C6  GCD d 611      24.364  20.029   0.758  0.00  0.00     0.233 C 
ATOM     84  C5  GCD d 611      25.432  20.978   1.238  0.00  0.00     0.147 C 
ATOM     85  C2  GCD d 611      27.267  23.285   1.675  0.00  0.00     0.111 C 
ATOM     86  O6A GCD d 611      23.178  20.464   1.026  0.00  0.00    -0.642 OA
ATOM     87  C4  GCD d 611      26.259  20.835   2.305  0.00  0.00    -0.034 C 
ATOM     88  C1  GCD d 611      26.967  22.783   0.298  0.00  0.00     0.165 C 
ATOM     89  O3  GCD d 611      27.466  22.513   3.903  0.00  0.00    -0.389 OA
ATOM     90  O5  GCD d 611      25.579  22.189   0.405  0.00  0.00    -0.311 OA
ATOM     91  O2  GCD d 611      28.590  23.897   1.709  0.00  0.00    -0.388 OA
ATOM     92  C3  GCD d 611      27.290  21.993   2.577  0.00  0.00     0.084 C 
ATOM     93  H   GCD d 611      26.552  24.013   1.997  0.00  0.00     0.095 H 
ATOM     94  H   GCD d 611      26.213  20.002   2.913  0.00  0.00     0.085 H 
ATOM     95  H   GCD d 611      27.735  22.116  -0.032  0.00  0.00     0.134 H 
ATOM     96  H   GCD d 611      28.135  23.215   3.889  0.00  0.00     0.210 HD
ATOM     97  H   GCD d 611      29.253  23.251   1.420  0.00  0.00     0.210 HD
ATOM     98  H   GCD d 611      28.093  21.336   2.315  0.00  0.00     0.093 H 
ENDROOT
TORSDOF 25
ENDMDL
MODEL 15
REMARK VINA RESULT:      -8.1      2.470      3.435
REMARK  0 active torsions:
REMARK  status: ('A' for Active; 'I' for Inactive)
REMARK       I    between atoms: O3_1  and  C3_6 
REMARK       I    between atoms: O3_3  and  C3_16 
REMARK       I    between atoms: O3_3  and  C1_32 
REMARK       I    between atoms: C8_5  and  C7_53 
REMARK       I    between atoms: C6_7  and  C5_47 
REMARK       I    between atoms: C6_7  and  O6_29 
REMARK       I    between atoms: O4_8  and  C4_45 
REMARK       I    between atoms: O4_8  and  C1_39 
REMARK       I    between atoms: N_10  and  C2_35 
REMARK       I    between atoms: N_10  and  C7_17 
REMARK       I    between atoms: C5_12  and  C6_42 
REMARK       I    between atoms: C1_14  and  O3_57 
REMARK       I    between atoms: C6_15  and  C5_20 
REMARK       I    between atoms: C7_17  and  C8_54 
REMARK       I    between atoms: O6_18  and  C6_42 
REMARK       I    between atoms: S_19  and  O4_46 
REMARK       I    between atoms: C4_22  and  O4_50 
REMARK       I    between atoms: C2_23  and  O2_51 
REMARK       I    between atoms: S_26  and  O4_50 
REMARK       I    between atoms: N_27  and  C2_56 
REMARK       I    between atoms: N_27  and  C7_53 
REMARK       I    between atoms: C5_31  and  C6_55 
REMARK       I    between atoms: C1_33  and  O1_48 
REMARK       I    between atoms: C4_34  and  O4_46 
REMARK       I    between atoms: C3_40  and  O3_57 
REMARK       I    between atoms: C2_41  and  O2_60 
REMARK       I    between atoms: O3_43  and  C3_52 
ROOT
ATOM      1  O3  BDP d 609      26.568  24.149  -6.154  0.00  0.00    -0.390 OA
ATOM      2  C3  BDP d 609      26.859  23.186  -5.149  0.00  0.00     0.092 C 
ATOM      3  O4  BDP d 609      29.177  23.192  -5.717  0.00  0.00    -0.348 OA
ATOM      4  C1  BDP d 609      26.276  22.417  -2.835  0.00  0.00     0.160 C 
ATOM      5  C5  BDP d 609      28.584  22.496  -3.477  0.00  0.00     0.152 C 
ATOM      6  O5  BDP d 609      27.628  22.708  -2.422  0.00  0.00    -0.340 OA
ATOM      7  O6B BDP d 609      30.207  23.864  -2.409  0.00  0.00    -0.646 OA
ATOM      8  C2  BDP d 609      25.862  23.318  -4.007  0.00  0.00     0.110 C 
ATOM      9  C4  BDP d 609      28.267  23.427  -4.641  0.00  0.00     0.103 C 
ATOM     10  C6  BDP d 609      29.962  22.737  -2.889  0.00  0.00     0.206 C 
ATOM     11  O6A BDP d 609      30.774  21.789  -2.952  0.00  0.00    -0.646 OA
ATOM     12  O2  BDP d 609      24.572  22.933  -4.458  0.00  0.00    -0.388 OA
ATOM     13  H   BDP d 609      25.668  24.006  -6.489  0.00  0.00     0.210 HD
ATOM     14  H   BDP d 609      26.784  22.199  -5.555  0.00  0.00     0.091 H 
ATOM     15  H   BDP d 609      26.215  21.398  -3.152  0.00  0.00     0.133 H 
ATOM     16  H   BDP d 609      28.545  21.499  -3.865  0.00  0.00     0.104 H 
ATOM     17  H   BDP d 609      25.845  24.336  -3.678  0.00  0.00     0.094 H 
ATOM     18  H   BDP d 609      28.357  24.434  -4.292  0.00  0.00     0.092 H 
ATOM     19  H   BDP d 609      24.596  22.009  -4.755  0.00  0.00     0.210 HD
ATOM     20  O7  ASG d 610      31.287  21.128  -7.997  0.00  0.00    -0.274 OA
ATOM     21  O3  ASG d 610      33.074  24.285  -8.274  0.00  0.00    -0.348 OA
ATOM     22  OSB ASG d 610      32.417  26.343 -10.614  0.00  0.00    -0.572 OA
ATOM     23  OSA ASG d 610      30.491  27.750 -10.273  0.00  0.00    -0.572 OA
ATOM     24  N   ASG d 610      31.878  22.542  -6.344  0.00  0.00    -0.349 N 
ATOM     25  C5  ASG d 610      30.372  26.419  -6.729  0.00  0.00     0.090 C 
ATOM     26  C3  ASG d 610      32.120  24.765  -7.307  0.00  0.00     0.094 C 
ATOM     27  C7  ASG d 610      31.832  21.341  -6.911  0.00  0.00     0.214 C 
ATOM     28  O6  ASG d 610      28.842  28.128  -5.936  0.00  0.00    -0.398 OA
ATOM     29  O5  ASG d 610      29.458  25.342  -6.442  0.00  0.00    -0.349 OA
ATOM     30  C4  ASG d 610      31.333  25.979  -7.838  0.00  0.00     0.114 C 
ATOM     31  S   ASG d 610      30.957  26.359 -10.394  0.00  0.00     0.252 S 
ATOM     32  C2  ASG d 610      31.153  23.651  -6.934  0.00  0.00     0.087 C 
ATOM     33  C1  ASG d 610      30.126  24.172  -5.934  0.00  0.00     0.154 C 
ATOM     34  C6  ASG d 610      29.540  27.639  -7.074  0.00  0.00     0.043 C 
ATOM     35  OSC ASG d 610      30.252  25.712 -11.518  0.00  0.00    -0.572 OA
ATOM     36  O4  ASG d 610      30.581  25.619  -9.017  0.00  0.00    -0.246 OA
ATOM     37  C8  ASG d 610      32.501  20.196  -6.156  0.00  0.00    -0.003 C 
ATOM     38  H   ASG d 610      32.403  22.679  -5.523  0.00  0.00     0.163 HD
ATOM     39  H   ASG d 610      30.989  26.675  -5.892  0.00  0.00     0.090 H 
ATOM     40  H   ASG d 610      32.664  25.078  -6.441  0.00  0.00     0.091 H 
ATOM     41  H   ASG d 610      28.320  28.906  -6.187  0.00  0.00     0.209 HD
ATOM     42  H   ASG d 610      32.004  26.768  -8.104  0.00  0.00     0.093 H 
ATOM     43  H   ASG d 610      30.652  23.317  -7.818  0.00  0.00     0.084 H 
ATOM     44  H   ASG d 610      30.634  24.425  -5.027  0.00  0.00     0.132 H 
ATOM     45  H   ASG d 610      28.831  27.375  -7.831  0.00  0.00     0.078 H 
ATOM     46  H   ASG d 610      30.197  28.408  -7.424  0.00  0.00     0.078 H 
ATOM     47  H   ASG d 610      32.395  19.290  -6.715  0.00  0.00     0.040 H 
ATOM     48  H   ASG d 610      32.037  20.082  -5.199  0.00  0.00     0.040 H 
ATOM     49  H   ASG d 610      33.539  20.414  -6.025  0.00  0.00     0.040 H 
ATOM     50  C8  ASG d 608      21.444  21.551  -3.266  0.00  0.00    -0.003 C 
ATOM     51  C6  ASG d 608      26.901  20.934   2.661  0.00  0.00     0.043 C 
ATOM     52  O7  ASG d 608      22.112  23.156  -1.638  0.00  0.00    -0.274 OA
ATOM     53  S   ASG d 608      26.736  24.366   0.959  0.00  0.00     0.252 S 
ATOM     54  OSC ASG d 608      26.249  25.309  -0.068  0.00  0.00    -0.572 OA
ATOM     55  N   ASG d 608      23.024  21.097  -1.464  0.00  0.00    -0.349 N 
ATOM     56  O6  ASG d 608      28.295  20.770   2.416  0.00  0.00    -0.398 OA
ATOM     57  O5  ASG d 608      24.689  20.620   1.831  0.00  0.00    -0.349 OA
ATOM     58  C1  ASG d 608      23.760  20.374   0.757  0.00  0.00     0.151 C 
ATOM     59  C4  ASG d 608      26.207  21.844   0.386  0.00  0.00     0.114 C 
ATOM     60  OSB ASG d 608      28.076  23.926   0.534  0.00  0.00    -0.572 OA
ATOM     61  C3  ASG d 608      25.311  21.581  -0.804  0.00  0.00     0.094 C 
ATOM     62  O4  ASG d 608      25.846  23.050   1.083  0.00  0.00    -0.246 OA
ATOM     63  C5  ASG d 608      26.066  20.704   1.396  0.00  0.00     0.090 C 
ATOM     64  O1  ASG d 608      22.481  20.395   1.287  0.00  0.00    -0.369 OA
ATOM     65  C7  ASG d 608      22.236  22.001  -2.045  0.00  0.00     0.214 C 
ATOM     66  C2  ASG d 608      23.867  21.458  -0.334  0.00  0.00     0.087 C 
ATOM     67  O3  ASG d 608      25.433  22.648  -1.764  0.00  0.00    -0.348 OA
ATOM     68  OSA ASG d 608      26.806  24.922   2.326  0.00  0.00    -0.572 OA
ATOM     69  H   ASG d 608      20.857  22.368  -3.632  0.00  0.00     0.040 H 
ATOM     70  H   ASG d 608      20.798  20.742  -2.994  0.00  0.00     0.040 H 
ATOM     71  H   ASG d 608      22.119  21.227  -4.029  0.00  0.00     0.040 H 
ATOM     72  H   ASG d 608      26.597  20.232   3.408  0.00  0.00     0.078 H 
ATOM     73  H   ASG d 608      26.739  21.940   2.986  0.00  0.00     0.078 H 
ATOM     74  H   ASG d 608      23.036  20.173  -1.803  0.00  0.00     0.163 HD
ATOM     75  H   ASG d 608      28.467  19.863   2.119  0.00  0.00     0.209 HD
ATOM     76  H   ASG d 608      23.983  19.429   0.308  0.00  0.00     0.132 H 
ATOM     77  H   ASG d 608      27.204  21.931   0.006  0.00  0.00     0.093 H 
ATOM     78  H   ASG d 608      25.608  20.667  -1.274  0.00  0.00     0.091 H 
ATOM     79  H   ASG d 608      26.398  19.815   0.901  0.00  0.00     0.090 H 
ATOM     80  H   ASG d 608      22.310  21.262   1.685  0.00  0.00     0.212 HD
ATOM     81  H   ASG d 608      23.544  22.395   0.071  0.00  0.00     0.084 H 
ATOM     82  O6B GCD d 611      36.021  28.551  -7.064  0.00  0.00    -0.642 OA
ATOM     83  C6  GCD d 611      35.990  28.015  -8.241  0.00  0.00     0.233 C 
ATOM     84  C5  GCD d 611      35.994  26.509  -8.315  0.00  0.00     0.147 C 
ATOM     85  C2  GCD d 611      35.316  23.630  -8.672  0.00  0.00     0.111 C 
ATOM     86  O6A GCD d 611      35.878  28.553  -9.411  0.00  0.00    -0.642 OA
ATOM     87  C4  GCD d 611      37.047  25.668  -8.157  0.00  0.00    -0.034 C 
ATOM     88  C1  GCD d 611      34.390  24.561  -7.957  0.00  0.00     0.165 C 
ATOM     89  O3  GCD d 611      37.623  23.290  -9.073  0.00  0.00    -0.389 OA
ATOM     90  O5  GCD d 611      34.665  25.916  -8.571  0.00  0.00    -0.311 OA
ATOM     91  O2  GCD d 611      35.144  22.270  -8.175  0.00  0.00    -0.388 OA
ATOM     92  C3  GCD d 611      36.762  24.125  -8.286  0.00  0.00     0.084 C 
ATOM     93  H   GCD d 611      35.137  23.626  -9.728  0.00  0.00     0.095 H 
ATOM     94  H   GCD d 611      37.995  26.024  -7.960  0.00  0.00     0.085 H 
ATOM     95  H   GCD d 611      34.534  24.491  -6.898  0.00  0.00     0.134 H 
ATOM     96  H   GCD d 611      37.302  22.375  -9.043  0.00  0.00     0.210 HD
ATOM     97  H   GCD d 611      35.302  22.253  -7.219  0.00  0.00     0.210 HD
ATOM     98  H   GCD d 611      36.960  24.002  -7.242  0.00  0.00     0.093 H 
ENDROOT
TORSDOF 25
ENDMDL
MODEL 16
REMARK VINA RESULT:      -8.0      2.558     11.671
REMARK  0 active torsions:
REMARK  status: ('A' for Active; 'I' for Inactive)
REMARK       I    between atoms: O3_1  and  C3_6 
REMARK       I    between atoms: O3_3  and  C3_16 
REMARK       I    between atoms: O3_3  and  C1_32 
REMARK       I    between atoms: C8_5  and  C7_53 
REMARK       I    between atoms: C6_7  and  C5_47 
REMARK       I    between atoms: C6_7  and  O6_29 
REMARK       I    between atoms: O4_8  and  C4_45 
REMARK       I    between atoms: O4_8  and  C1_39 
REMARK       I    between atoms: N_10  and  C2_35 
REMARK       I    between atoms: N_10  and  C7_17 
REMARK       I    between atoms: C5_12  and  C6_42 
REMARK       I    between atoms: C1_14  and  O3_57 
REMARK       I    between atoms: C6_15  and  C5_20 
REMARK       I    between atoms: C7_17  and  C8_54 
REMARK       I    between atoms: O6_18  and  C6_42 
REMARK       I    between atoms: S_19  and  O4_46 
REMARK       I    between atoms: C4_22  and  O4_50 
REMARK       I    between atoms: C2_23  and  O2_51 
REMARK       I    between atoms: S_26  and  O4_50 
REMARK       I    between atoms: N_27  and  C2_56 
REMARK       I    between atoms: N_27  and  C7_53 
REMARK       I    between atoms: C5_31  and  C6_55 
REMARK       I    between atoms: C1_33  and  O1_48 
REMARK       I    between atoms: C4_34  and  O4_46 
REMARK       I    between atoms: C3_40  and  O3_57 
REMARK       I    between atoms: C2_41  and  O2_60 
REMARK       I    between atoms: O3_43  and  C3_52 
ROOT
ATOM      1  O3  BDP d 609      28.058  27.321  -5.585  0.00  0.00    -0.390 OA
ATOM      2  C3  BDP d 609      29.420  27.092  -5.249  0.00  0.00     0.092 C 
ATOM      3  O4  BDP d 609      28.814  25.483  -3.593  0.00  0.00    -0.348 OA
ATOM      4  C1  BDP d 609      31.745  26.924  -6.173  0.00  0.00     0.160 C 
ATOM      5  C5  BDP d 609      31.036  25.323  -4.536  0.00  0.00     0.152 C 
ATOM      6  O5  BDP d 609      31.794  25.549  -5.738  0.00  0.00    -0.340 OA
ATOM      7  O6B BDP d 609      30.910  22.985  -4.942  0.00  0.00    -0.646 OA
ATOM      8  C2  BDP d 609      30.299  27.349  -6.465  0.00  0.00     0.110 C 
ATOM      9  C4  BDP d 609      29.570  25.654  -4.793  0.00  0.00     0.103 C 
ATOM     10  C6  BDP d 609      31.251  23.875  -4.135  0.00  0.00     0.206 C 
ATOM     11  O6A BDP d 609      31.734  23.672  -3.000  0.00  0.00    -0.646 OA
ATOM     12  O2  BDP d 609      30.274  28.733  -6.782  0.00  0.00    -0.388 OA
ATOM     13  H   BDP d 609      27.947  28.240  -5.879  0.00  0.00     0.210 HD
ATOM     14  H   BDP d 609      29.720  27.754  -4.464  0.00  0.00     0.091 H 
ATOM     15  H   BDP d 609      32.134  27.553  -5.400  0.00  0.00     0.133 H 
ATOM     16  H   BDP d 609      31.354  25.954  -3.732  0.00  0.00     0.104 H 
ATOM     17  H   BDP d 609      29.926  26.778  -7.289  0.00  0.00     0.094 H 
ATOM     18  H   BDP d 609      29.212  24.994  -5.556  0.00  0.00     0.092 H 
ATOM     19  H   BDP d 609      30.614  29.243  -6.030  0.00  0.00     0.210 HD
ATOM     20  O7  ASG d 610      28.167  25.665   0.076  0.00  0.00    -0.274 OA
ATOM     21  O3  ASG d 610      25.870  22.974  -0.772  0.00  0.00    -0.348 OA
ATOM     22  OSB ASG d 610      22.810  23.572  -1.422  0.00  0.00    -0.572 OA
ATOM     23  OSA ASG d 610      22.336  24.344  -3.655  0.00  0.00    -0.572 OA
ATOM     24  N   ASG d 610      28.541  23.883  -1.254  0.00  0.00    -0.349 N 
ATOM     25  C5  ASG d 610      25.939  23.540  -4.503  0.00  0.00     0.090 C 
ATOM     26  C3  ASG d 610      26.393  23.118  -2.108  0.00  0.00     0.094 C 
ATOM     27  C7  ASG d 610      28.847  24.683  -0.238  0.00  0.00     0.214 C 
ATOM     28  O6  ASG d 610      25.603  23.675  -6.903  0.00  0.00    -0.398 OA
ATOM     29  O5  ASG d 610      26.894  24.619  -4.487  0.00  0.00    -0.349 OA
ATOM     30  C4  ASG d 610      25.280  23.433  -3.125  0.00  0.00     0.114 C 
ATOM     31  S   ASG d 610      23.073  24.635  -2.415  0.00  0.00     0.252 S 
ATOM     32  C2  ASG d 610      27.442  24.220  -2.139  0.00  0.00     0.087 C 
ATOM     33  C1  ASG d 610      27.971  24.389  -3.559  0.00  0.00     0.154 C 
ATOM     34  C6  ASG d 610      24.969  23.811  -5.638  0.00  0.00     0.043 C 
ATOM     35  OSC ASG d 610      22.644  25.949  -1.897  0.00  0.00    -0.572 OA
ATOM     36  O4  ASG d 610      24.633  24.683  -2.797  0.00  0.00    -0.246 OA
ATOM     37  C8  ASG d 610      30.100  24.338   0.559  0.00  0.00    -0.003 C 
ATOM     38  H   ASG d 610      29.061  23.061  -1.407  0.00  0.00     0.163 HD
ATOM     39  H   ASG d 610      26.391  22.587  -4.685  0.00  0.00     0.090 H 
ATOM     40  H   ASG d 610      26.839  22.186  -2.384  0.00  0.00     0.091 H 
ATOM     41  H   ASG d 610      24.960  23.854  -7.607  0.00  0.00     0.209 HD
ATOM     42  H   ASG d 610      24.536  22.664  -3.111  0.00  0.00     0.093 H 
ATOM     43  H   ASG d 610      26.993  25.134  -1.813  0.00  0.00     0.084 H 
ATOM     44  H   ASG d 610      28.487  23.495  -3.838  0.00  0.00     0.132 H 
ATOM     45  H   ASG d 610      24.591  24.807  -5.542  0.00  0.00     0.078 H 
ATOM     46  H   ASG d 610      24.174  23.098  -5.580  0.00  0.00     0.078 H 
ATOM     47  H   ASG d 610      30.233  25.054   1.343  0.00  0.00     0.040 H 
ATOM     48  H   ASG d 610      30.951  24.357  -0.089  0.00  0.00     0.040 H 
ATOM     49  H   ASG d 610      29.996  23.362   0.982  0.00  0.00     0.040 H 
ATOM     50  C8  ASG d 608      32.278  31.328  -8.321  0.00  0.00    -0.003 C 
ATOM     51  C6  ASG d 608      36.916  24.779  -7.377  0.00  0.00     0.043 C 
ATOM     52  O7  ASG d 608      32.508  29.411  -9.715  0.00  0.00    -0.274 OA
ATOM     53  S   ASG d 608      33.468  24.117  -8.920  0.00  0.00     0.252 S 
ATOM     54  OSC ASG d 608      32.115  24.520  -9.351  0.00  0.00    -0.572 OA
ATOM     55  N   ASG d 608      33.859  29.516  -7.908  0.00  0.00    -0.349 N 
ATOM     56  O6  ASG d 608      36.730  23.845  -6.318  0.00  0.00    -0.398 OA
ATOM     57  O5  ASG d 608      36.615  27.024  -8.122  0.00  0.00    -0.349 OA
ATOM     58  C1  ASG d 608      35.991  28.320  -8.024  0.00  0.00     0.151 C 
ATOM     59  C4  ASG d 608      34.622  25.883  -7.334  0.00  0.00     0.114 C 
ATOM     60  OSB ASG d 608      33.317  23.421  -7.630  0.00  0.00    -0.572 OA
ATOM     61  C3  ASG d 608      33.917  27.209  -7.151  0.00  0.00     0.094 C 
ATOM     62  O4  ASG d 608      34.443  25.350  -8.658  0.00  0.00    -0.246 OA
ATOM     63  C5  ASG d 608      36.128  26.074  -7.145  0.00  0.00     0.090 C 
ATOM     64  O1  ASG d 608      36.481  29.105  -9.053  0.00  0.00    -0.369 OA
ATOM     65  C7  ASG d 608      32.898  29.989  -8.701  0.00  0.00     0.214 C 
ATOM     66  C2  ASG d 608      34.459  28.215  -8.159  0.00  0.00     0.087 C 
ATOM     67  O3  ASG d 608      32.497  27.045  -7.326  0.00  0.00    -0.348 OA
ATOM     68  OSA ASG d 608      34.187  23.245  -9.873  0.00  0.00    -0.572 OA
ATOM     69  H   ASG d 608      31.526  31.589  -9.035  0.00  0.00     0.040 H 
ATOM     70  H   ASG d 608      33.037  32.082  -8.309  0.00  0.00     0.040 H 
ATOM     71  H   ASG d 608      31.836  31.252  -7.350  0.00  0.00     0.040 H 
ATOM     72  H   ASG d 608      37.956  25.017  -7.450  0.00  0.00     0.078 H 
ATOM     73  H   ASG d 608      36.557  24.330  -8.280  0.00  0.00     0.078 H 
ATOM     74  H   ASG d 608      34.166  30.055  -7.143  0.00  0.00     0.163 HD
ATOM     75  H   ASG d 608      37.049  24.230  -5.487  0.00  0.00     0.209 HD
ATOM     76  H   ASG d 608      36.212  28.744  -7.067  0.00  0.00     0.132 H 
ATOM     77  H   ASG d 608      34.202  25.211  -6.614  0.00  0.00     0.093 H 
ATOM     78  H   ASG d 608      34.097  27.571  -6.160  0.00  0.00     0.091 H 
ATOM     79  H   ASG d 608      36.270  26.406  -6.138  0.00  0.00     0.090 H 
ATOM     80  H   ASG d 608      36.265  28.694  -9.904  0.00  0.00     0.212 HD
ATOM     81  H   ASG d 608      34.217  27.891  -9.149  0.00  0.00     0.084 H 
ATOM     82  O6B GCD d 611      23.966  18.252  -2.331  0.00  0.00    -0.642 OA
ATOM     83  C6  GCD d 611      23.381  19.004  -1.456  0.00  0.00     0.233 C 
ATOM     84  C5  GCD d 611      24.257  19.693  -0.441  0.00  0.00     0.147 C 
ATOM     85  C2  GCD d 611      25.811  21.645   1.188  0.00  0.00     0.111 C 
ATOM     86  O6A GCD d 611      22.141  19.347  -1.332  0.00  0.00    -0.642 OA
ATOM     87  C4  GCD d 611      24.831  19.158   0.668  0.00  0.00    -0.034 C 
ATOM     88  C1  GCD d 611      25.856  21.673  -0.306  0.00  0.00     0.165 C 
ATOM     89  O3  GCD d 611      25.550  20.127   2.985  0.00  0.00    -0.389 OA
ATOM     90  O5  GCD d 611      24.517  21.117  -0.737  0.00  0.00    -0.311 OA
ATOM     91  O2  GCD d 611      27.055  22.171   1.738  0.00  0.00    -0.388 OA
ATOM     92  C3  GCD d 611      25.706  20.117   1.558  0.00  0.00     0.084 C 
ATOM     93  H   GCD d 611      25.001  22.230   1.572  0.00  0.00     0.095 H 
ATOM     94  H   GCD d 611      24.699  18.166   0.916  0.00  0.00     0.085 H 
ATOM     95  H   GCD d 611      26.717  21.147  -0.664  0.00  0.00     0.134 H 
ATOM     96  H   GCD d 611      26.163  20.771   3.372  0.00  0.00     0.210 HD
ATOM     97  H   GCD d 611      27.802  21.652   1.401  0.00  0.00     0.210 HD
ATOM     98  H   GCD d 611      26.584  19.576   1.274  0.00  0.00     0.093 H 
ENDROOT
TORSDOF 25
ENDMDL
MODEL 17
REMARK VINA RESULT:      -8.0      3.023     11.541
REMARK  0 active torsions:
REMARK  status: ('A' for Active; 'I' for Inactive)
REMARK       I    between atoms: O3_1  and  C3_6 
REMARK       I    between atoms: O3_3  and  C3_16 
REMARK       I    between atoms: O3_3  and  C1_32 
REMARK       I    between atoms: C8_5  and  C7_53 
REMARK       I    between atoms: C6_7  and  C5_47 
REMARK       I    between atoms: C6_7  and  O6_29 
REMARK       I    between atoms: O4_8  and  C4_45 
REMARK       I    between atoms: O4_8  and  C1_39 
REMARK       I    between atoms: N_10  and  C2_35 
REMARK       I    between atoms: N_10  and  C7_17 
REMARK       I    between atoms: C5_12  and  C6_42 
REMARK       I    between atoms: C1_14  and  O3_57 
REMARK       I    between atoms: C6_15  and  C5_20 
REMARK       I    between atoms: C7_17  and  C8_54 
REMARK       I    between atoms: O6_18  and  C6_42 
REMARK       I    between atoms: S_19  and  O4_46 
REMARK       I    between atoms: C4_22  and  O4_50 
REMARK       I    between atoms: C2_23  and  O2_51 
REMARK       I    between atoms: S_26  and  O4_50 
REMARK       I    between atoms: N_27  and  C2_56 
REMARK       I    between atoms: N_27  and  C7_53 
REMARK       I    between atoms: C5_31  and  C6_55 
REMARK       I    between atoms: C1_33  and  O1_48 
REMARK       I    between atoms: C4_34  and  O4_46 
REMARK       I    between atoms: C3_40  and  O3_57 
REMARK       I    between atoms: C2_41  and  O2_60 
REMARK       I    between atoms: O3_43  and  C3_52 
ROOT
ATOM      1  O3  BDP d 609      28.344  27.123  -4.803  0.00  0.00    -0.390 OA
ATOM      2  C3  BDP d 609      29.548  26.937  -4.070  0.00  0.00     0.092 C 
ATOM      3  O4  BDP d 609      28.569  25.192  -2.768  0.00  0.00    -0.348 OA
ATOM      4  C1  BDP d 609      32.050  26.945  -4.229  0.00  0.00     0.160 C 
ATOM      5  C5  BDP d 609      30.979  25.204  -2.977  0.00  0.00     0.152 C 
ATOM      6  O5  BDP d 609      32.055  25.547  -3.870  0.00  0.00    -0.340 OA
ATOM      7  O6B BDP d 609      31.142  22.896  -3.518  0.00  0.00    -0.646 OA
ATOM      8  C2  BDP d 609      30.740  27.318  -4.936  0.00  0.00     0.110 C 
ATOM      9  C4  BDP d 609      29.646  25.480  -3.662  0.00  0.00     0.103 C 
ATOM     10  C6  BDP d 609      31.157  23.744  -2.602  0.00  0.00     0.206 C 
ATOM     11  O6A BDP d 609      31.278  23.488  -1.384  0.00  0.00    -0.646 OA
ATOM     12  O2  BDP d 609      30.721  28.718  -5.176  0.00  0.00    -0.388 OA
ATOM     13  H   BDP d 609      28.267  28.053  -5.070  0.00  0.00     0.210 HD
ATOM     14  H   BDP d 609      29.546  27.558  -3.198  0.00  0.00     0.091 H 
ATOM     15  H   BDP d 609      32.139  27.537  -3.343  0.00  0.00     0.133 H 
ATOM     16  H   BDP d 609      30.991  25.793  -2.083  0.00  0.00     0.104 H 
ATOM     17  H   BDP d 609      30.679  26.788  -5.863  0.00  0.00     0.094 H 
ATOM     18  H   BDP d 609      29.586  24.858  -4.530  0.00  0.00     0.092 H 
ATOM     19  H   BDP d 609      30.777  29.191  -4.331  0.00  0.00     0.210 HD
ATOM     20  O7  ASG d 610      26.812  25.092   0.520  0.00  0.00    -0.274 OA
ATOM     21  O3  ASG d 610      25.073  22.358  -1.135  0.00  0.00    -0.348 OA
ATOM     22  OSB ASG d 610      22.331  22.851  -2.677  0.00  0.00    -0.572 OA
ATOM     23  OSA ASG d 610      22.519  23.749  -4.905  0.00  0.00    -0.572 OA
ATOM     24  N   ASG d 610      27.696  23.425  -0.714  0.00  0.00    -0.349 N 
ATOM     25  C5  ASG d 610      26.252  23.179  -4.625  0.00  0.00     0.090 C 
ATOM     26  C3  ASG d 610      25.972  22.617  -2.232  0.00  0.00     0.094 C 
ATOM     27  C7  ASG d 610      27.618  24.168   0.386  0.00  0.00     0.214 C 
ATOM     28  O6  ASG d 610      26.665  23.461  -7.000  0.00  0.00    -0.398 OA
ATOM     29  O5  ASG d 610      27.081  24.299  -4.258  0.00  0.00    -0.349 OA
ATOM     30  C4  ASG d 610      25.209  22.947  -3.528  0.00  0.00     0.114 C 
ATOM     31  S   ASG d 610      22.815  23.990  -3.484  0.00  0.00     0.252 S 
ATOM     32  C2  ASG d 610      26.904  23.768  -1.879  0.00  0.00     0.087 C 
ATOM     33  C1  ASG d 610      27.832  24.059  -3.053  0.00  0.00     0.154 C 
ATOM     34  C6  ASG d 610      25.664  23.480  -5.991  0.00  0.00     0.043 C 
ATOM     35  OSC ASG d 610      22.161  25.243  -3.062  0.00  0.00    -0.572 OA
ATOM     36  O4  ASG d 610      24.410  24.139  -3.357  0.00  0.00    -0.246 OA
ATOM     37  C8  ASG d 610      28.585  23.830   1.516  0.00  0.00    -0.003 C 
ATOM     38  H   ASG d 610      28.291  22.641  -0.737  0.00  0.00     0.163 HD
ATOM     39  H   ASG d 610      26.802  22.263  -4.704  0.00  0.00     0.090 H 
ATOM     40  H   ASG d 610      26.543  21.728  -2.402  0.00  0.00     0.091 H 
ATOM     41  H   ASG d 610      26.261  23.656  -7.860  0.00  0.00     0.209 HD
ATOM     42  H   ASG d 610      24.550  22.144  -3.785  0.00  0.00     0.093 H 
ATOM     43  H   ASG d 610      26.315  24.636  -1.665  0.00  0.00     0.084 H 
ATOM     44  H   ASG d 610      28.468  23.211  -3.201  0.00  0.00     0.132 H 
ATOM     45  H   ASG d 610      25.209  24.448  -5.969  0.00  0.00     0.078 H 
ATOM     46  H   ASG d 610      24.940  22.726  -6.219  0.00  0.00     0.078 H 
ATOM     47  H   ASG d 610      28.421  24.496   2.337  0.00  0.00     0.040 H 
ATOM     48  H   ASG d 610      29.591  23.934   1.168  0.00  0.00     0.040 H 
ATOM     49  H   ASG d 610      28.421  22.823   1.836  0.00  0.00     0.040 H 
ATOM     50  C8  ASG d 608      32.924  31.505  -5.881  0.00  0.00    -0.003 C 
ATOM     51  C6  ASG d 608      37.472  25.138  -3.864  0.00  0.00     0.043 C 
ATOM     52  O7  ASG d 608      33.701  29.701  -7.228  0.00  0.00    -0.274 OA
ATOM     53  S   ASG d 608      34.721  24.417  -6.437  0.00  0.00     0.252 S 
ATOM     54  OSC ASG d 608      33.543  24.783  -7.248  0.00  0.00    -0.572 OA
ATOM     55  N   ASG d 608      34.418  29.748  -5.086  0.00  0.00    -0.349 N 
ATOM     56  O6  ASG d 608      37.031  24.126  -2.963  0.00  0.00    -0.398 OA
ATOM     57  O5  ASG d 608      37.265  27.411  -4.553  0.00  0.00    -0.349 OA
ATOM     58  C1  ASG d 608      36.557  28.666  -4.590  0.00  0.00     0.151 C 
ATOM     59  C4  ASG d 608      35.208  26.125  -4.484  0.00  0.00     0.114 C 
ATOM     60  OSB ASG d 608      34.226  23.629  -5.294  0.00  0.00    -0.572 OA
ATOM     61  C3  ASG d 608      34.393  27.400  -4.465  0.00  0.00     0.094 C 
ATOM     62  O4  ASG d 608      35.482  25.675  -5.823  0.00  0.00    -0.246 OA
ATOM     63  C5  ASG d 608      36.566  26.375  -3.826  0.00  0.00     0.090 C 
ATOM     64  O1  ASG d 608      37.287  29.543  -5.375  0.00  0.00    -0.369 OA
ATOM     65  C7  ASG d 608      33.719  30.227  -6.115  0.00  0.00     0.214 C 
ATOM     66  C2  ASG d 608      35.152  28.497  -5.202  0.00  0.00     0.087 C 
ATOM     67  O3  ASG d 608      33.111  27.180  -5.083  0.00  0.00    -0.348 OA
ATOM     68  OSA ASG d 608      35.755  23.648  -7.160  0.00  0.00    -0.572 OA
ATOM     69  H   ASG d 608      32.413  31.777  -6.781  0.00  0.00     0.040 H 
ATOM     70  H   ASG d 608      33.590  32.292  -5.596  0.00  0.00     0.040 H 
ATOM     71  H   ASG d 608      32.210  31.342  -5.102  0.00  0.00     0.040 H 
ATOM     72  H   ASG d 608      38.466  25.430  -3.597  0.00  0.00     0.078 H 
ATOM     73  H   ASG d 608      37.440  24.735  -4.855  0.00  0.00     0.078 H 
ATOM     74  H   ASG d 608      34.437  30.247  -4.238  0.00  0.00     0.163 HD
ATOM     75  H   ASG d 608      37.052  24.469  -2.057  0.00  0.00     0.209 HD
ATOM     76  H   ASG d 608      36.443  29.035  -3.593  0.00  0.00     0.132 H 
ATOM     77  H   ASG d 608      34.633  25.386  -3.965  0.00  0.00     0.093 H 
ATOM     78  H   ASG d 608      34.234  27.702  -3.451  0.00  0.00     0.091 H 
ATOM     79  H   ASG d 608      36.367  26.644  -2.809  0.00  0.00     0.090 H 
ATOM     80  H   ASG d 608      37.372  29.181  -6.270  0.00  0.00     0.212 HD
ATOM     81  H   ASG d 608      35.250  28.230  -6.233  0.00  0.00     0.084 H 
ATOM     82  O6B GCD d 611      24.064  17.667  -3.444  0.00  0.00    -0.642 OA
ATOM     83  C6  GCD d 611      23.188  18.329  -2.758  0.00  0.00     0.233 C 
ATOM     84  C5  GCD d 611      23.661  18.988  -1.487  0.00  0.00     0.147 C 
ATOM     85  C2  GCD d 611      24.501  20.897   0.640  0.00  0.00     0.111 C 
ATOM     86  O6A GCD d 611      21.951  18.602  -3.010  0.00  0.00    -0.642 OA
ATOM     87  C4  GCD d 611      23.898  18.407  -0.283  0.00  0.00    -0.034 C 
ATOM     88  C1  GCD d 611      25.004  21.029  -0.762  0.00  0.00     0.165 C 
ATOM     89  O3  GCD d 611      23.801  19.250   2.188  0.00  0.00    -0.389 OA
ATOM     90  O5  GCD d 611      23.903  20.439  -1.616  0.00  0.00    -0.311 OA
ATOM     91  O2  GCD d 611      25.477  21.443   1.577  0.00  0.00    -0.388 OA
ATOM     92  C3  GCD d 611      24.390  19.344   0.883  0.00  0.00     0.084 C 
ATOM     93  H   GCD d 611      23.575  21.415   0.781  0.00  0.00     0.095 H 
ATOM     94  H   GCD d 611      23.763  17.395  -0.138  0.00  0.00     0.085 H 
ATOM     95  H   GCD d 611      25.966  20.570  -0.859  0.00  0.00     0.134 H 
ATOM     96  H   GCD d 611      24.220  19.894   2.779  0.00  0.00     0.210 HD
ATOM     97  H   GCD d 611      26.324  20.985   1.464  0.00  0.00     0.210 HD
ATOM     98  H   GCD d 611      25.347  18.866   0.860  0.00  0.00     0.093 H 
ENDROOT
TORSDOF 25
ENDMDL
MODEL 18
REMARK VINA RESULT:      -7.9      3.049      4.545
REMARK  0 active torsions:
REMARK  status: ('A' for Active; 'I' for Inactive)
REMARK       I    between atoms: O3_1  and  C3_6 
REMARK       I    between atoms: O3_3  and  C3_16 
REMARK       I    between atoms: O3_3  and  C1_32 
REMARK       I    between atoms: C8_5  and  C7_53 
REMARK       I    between atoms: C6_7  and  C5_47 
REMARK       I    between atoms: C6_7  and  O6_29 
REMARK       I    between atoms: O4_8  and  C4_45 
REMARK       I    between atoms: O4_8  and  C1_39 
REMARK       I    between atoms: N_10  and  C2_35 
REMARK       I    between atoms: N_10  and  C7_17 
REMARK       I    between atoms: C5_12  and  C6_42 
REMARK       I    between atoms: C1_14  and  O3_57 
REMARK       I    between atoms: C6_15  and  C5_20 
REMARK       I    between atoms: C7_17  and  C8_54 
REMARK       I    between atoms: O6_18  and  C6_42 
REMARK       I    between atoms: S_19  and  O4_46 
REMARK       I    between atoms: C4_22  and  O4_50 
REMARK       I    between atoms: C2_23  and  O2_51 
REMARK       I    between atoms: S_26  and  O4_50 
REMARK       I    between atoms: N_27  and  C2_56 
REMARK       I    between atoms: N_27  and  C7_53 
REMARK       I    between atoms: C5_31  and  C6_55 
REMARK       I    between atoms: C1_33  and  O1_48 
REMARK       I    between atoms: C4_34  and  O4_46 
REMARK       I    between atoms: C3_40  and  O3_57 
REMARK       I    between atoms: C2_41  and  O2_60 
REMARK       I    between atoms: O3_43  and  C3_52 
ROOT
ATOM      1  O3  BDP d 609      26.623  25.986  -5.207  0.00  0.00    -0.390 OA
ATOM      2  C3  BDP d 609      26.364  24.625  -4.887  0.00  0.00     0.092 C 
ATOM      3  O4  BDP d 609      28.552  23.972  -5.585  0.00  0.00    -0.348 OA
ATOM      4  C1  BDP d 609      25.203  23.098  -3.272  0.00  0.00     0.160 C 
ATOM      5  C5  BDP d 609      27.420  22.543  -3.995  0.00  0.00     0.152 C 
ATOM      6  O5  BDP d 609      26.487  22.554  -2.900  0.00  0.00    -0.340 OA
ATOM      7  O6B BDP d 609      29.282  22.366  -2.530  0.00  0.00    -0.646 OA
ATOM      8  C2  BDP d 609      25.349  24.547  -3.755  0.00  0.00     0.110 C 
ATOM      9  C4  BDP d 609      27.666  23.972  -4.464  0.00  0.00     0.103 C 
ATOM     10  C6  BDP d 609      28.683  21.861  -3.501  0.00  0.00     0.206 C 
ATOM     11  O6A BDP d 609      29.054  20.845  -4.128  0.00  0.00    -0.646 OA
ATOM     12  O2  BDP d 609      24.090  25.015  -4.217  0.00  0.00    -0.388 OA
ATOM     13  H   BDP d 609      25.797  26.417  -5.480  0.00  0.00     0.210 HD
ATOM     14  H   BDP d 609      25.964  24.118  -5.740  0.00  0.00     0.091 H 
ATOM     15  H   BDP d 609      24.790  22.515  -4.068  0.00  0.00     0.133 H 
ATOM     16  H   BDP d 609      27.046  22.004  -4.840  0.00  0.00     0.104 H 
ATOM     17  H   BDP d 609      25.689  25.155  -2.943  0.00  0.00     0.094 H 
ATOM     18  H   BDP d 609      28.095  24.517  -3.650  0.00  0.00     0.092 H 
ATOM     19  H   BDP d 609      23.789  24.459  -4.953  0.00  0.00     0.210 HD
ATOM     20  O7  ASG d 610      29.975  22.718  -8.796  0.00  0.00    -0.274 OA
ATOM     21  O3  ASG d 610      32.883  24.515  -7.551  0.00  0.00    -0.348 OA
ATOM     22  OSB ASG d 610      33.432  27.536  -8.394  0.00  0.00    -0.572 OA
ATOM     23  OSA ASG d 610      32.191  29.211  -7.188  0.00  0.00    -0.572 OA
ATOM     24  N   ASG d 610      30.835  22.699  -6.712  0.00  0.00    -0.349 N 
ATOM     25  C5  ASG d 610      31.054  26.440  -4.869  0.00  0.00     0.090 C 
ATOM     26  C3  ASG d 610      32.069  24.773  -6.389  0.00  0.00     0.094 C 
ATOM     27  C7  ASG d 610      30.400  22.100  -7.817  0.00  0.00     0.214 C 
ATOM     28  O6  ASG d 610      30.228  27.951  -3.159  0.00  0.00    -0.398 OA
ATOM     29  O5  ASG d 610      29.759  25.854  -5.102  0.00  0.00    -0.349 OA
ATOM     30  C4  ASG d 610      31.910  26.283  -6.130  0.00  0.00     0.114 C 
ATOM     31  S   ASG d 610      32.081  28.032  -8.061  0.00  0.00     0.252 S 
ATOM     32  C2  ASG d 610      30.698  24.135  -6.564  0.00  0.00     0.087 C 
ATOM     33  C1  ASG d 610      29.830  24.436  -5.347  0.00  0.00     0.154 C 
ATOM     34  C6  ASG d 610      30.830  27.879  -4.445  0.00  0.00     0.043 C 
ATOM     35  OSC ASG d 610      31.346  28.407  -9.284  0.00  0.00    -0.572 OA
ATOM     36  O4  ASG d 610      31.252  26.922  -7.246  0.00  0.00    -0.246 OA
ATOM     37  C8  ASG d 610      30.447  20.576  -7.839  0.00  0.00    -0.003 C 
ATOM     38  H   ASG d 610      31.250  22.167  -5.995  0.00  0.00     0.163 HD
ATOM     39  H   ASG d 610      31.597  25.953  -4.086  0.00  0.00     0.090 H 
ATOM     40  H   ASG d 610      32.564  24.343  -5.544  0.00  0.00     0.091 H 
ATOM     41  H   ASG d 610      30.097  28.881  -2.915  0.00  0.00     0.209 HD
ATOM     42  H   ASG d 610      32.868  26.741  -6.006  0.00  0.00     0.093 H 
ATOM     43  H   ASG d 610      30.238  24.540  -7.440  0.00  0.00     0.084 H 
ATOM     44  H   ASG d 610      30.263  23.956  -4.494  0.00  0.00     0.132 H 
ATOM     45  H   ASG d 610      30.189  28.357  -5.157  0.00  0.00     0.078 H 
ATOM     46  H   ASG d 610      31.779  28.371  -4.402  0.00  0.00     0.078 H 
ATOM     47  H   ASG d 610      30.072  20.221  -8.776  0.00  0.00     0.040 H 
ATOM     48  H   ASG d 610      29.845  20.189  -7.044  0.00  0.00     0.040 H 
ATOM     49  H   ASG d 610      31.458  20.249  -7.712  0.00  0.00     0.040 H 
ATOM     50  C8  ASG d 608      20.536  24.639  -3.631  0.00  0.00    -0.003 C 
ATOM     51  C6  ASG d 608      24.405  18.908   0.549  0.00  0.00     0.043 C 
ATOM     52  O7  ASG d 608      21.546  24.745  -1.477  0.00  0.00    -0.274 OA
ATOM     53  S   ASG d 608      25.852  22.440   0.917  0.00  0.00     0.252 S 
ATOM     54  OSC ASG d 608      25.928  23.877   0.586  0.00  0.00    -0.572 OA
ATOM     55  N   ASG d 608      21.536  22.727  -2.492  0.00  0.00    -0.349 N 
ATOM     56  O6  ASG d 608      25.641  18.340   0.123  0.00  0.00    -0.398 OA
ATOM     57  O5  ASG d 608      22.391  20.000  -0.108  0.00  0.00    -0.349 OA
ATOM     58  C1  ASG d 608      21.603  20.745  -1.058  0.00  0.00     0.151 C 
ATOM     59  C4  ASG d 608      24.458  21.044  -0.836  0.00  0.00     0.114 C 
ATOM     60  OSB ASG d 608      26.955  21.777   0.199  0.00  0.00    -0.572 OA
ATOM     61  C3  ASG d 608      23.709  21.821  -1.898  0.00  0.00     0.094 C 
ATOM     62  O4  ASG d 608      24.507  21.746   0.418  0.00  0.00    -0.246 OA
ATOM     63  C5  ASG d 608      23.735  19.724  -0.564  0.00  0.00     0.090 C 
ATOM     64  O1  ASG d 608      20.375  21.011  -0.477  0.00  0.00    -0.369 OA
ATOM     65  C7  ASG d 608      21.260  24.031  -2.437  0.00  0.00     0.214 C 
ATOM     66  C2  ASG d 608      22.283  22.078  -1.426  0.00  0.00     0.087 C 
ATOM     67  O3  ASG d 608      24.377  23.068  -2.164  0.00  0.00    -0.348 OA
ATOM     68  OSA ASG d 608      25.941  22.132   2.359  0.00  0.00    -0.572 OA
ATOM     69  H   ASG d 608      20.378  25.683  -3.459  0.00  0.00     0.040 H 
ATOM     70  H   ASG d 608      19.592  24.153  -3.762  0.00  0.00     0.040 H 
ATOM     71  H   ASG d 608      21.129  24.510  -4.512  0.00  0.00     0.040 H 
ATOM     72  H   ASG d 608      23.746  18.119   0.844  0.00  0.00     0.078 H 
ATOM     73  H   ASG d 608      24.609  19.568   1.366  0.00  0.00     0.078 H 
ATOM     74  H   ASG d 608      21.229  22.199  -3.264  0.00  0.00     0.163 HD
ATOM     75  H   ASG d 608      25.480  17.737  -0.619  0.00  0.00     0.209 HD
ATOM     76  H   ASG d 608      21.496  20.169  -1.954  0.00  0.00     0.132 H 
ATOM     77  H   ASG d 608      25.450  20.897  -1.208  0.00  0.00     0.093 H 
ATOM     78  H   ASG d 608      23.684  21.249  -2.801  0.00  0.00     0.091 H 
ATOM     79  H   ASG d 608      23.757  19.170  -1.479  0.00  0.00     0.090 H 
ATOM     80  H   ASG d 608      20.506  21.533   0.330  0.00  0.00     0.212 HD
ATOM     81  H   ASG d 608      22.303  22.710  -0.563  0.00  0.00     0.084 H 
ATOM     82  O6B GCD d 611      37.071  25.914  -4.576  0.00  0.00    -0.642 OA
ATOM     83  C6  GCD d 611      36.999  26.124  -5.850  0.00  0.00     0.233 C 
ATOM     84  C5  GCD d 611      36.418  25.022  -6.700  0.00  0.00     0.147 C 
ATOM     85  C2  GCD d 611      34.716  23.307  -8.443  0.00  0.00     0.111 C 
ATOM     86  O6A GCD d 611      37.275  27.175  -6.549  0.00  0.00    -0.642 OA
ATOM     87  C4  GCD d 611      37.019  23.875  -7.106  0.00  0.00    -0.034 C 
ATOM     88  C1  GCD d 611      34.142  24.022  -7.262  0.00  0.00     0.165 C 
ATOM     89  O3  GCD d 611      36.732  22.312  -9.180  0.00  0.00    -0.389 OA
ATOM     90  O5  GCD d 611      35.014  25.248  -7.100  0.00  0.00    -0.311 OA
ATOM     91  O2  GCD d 611      33.952  22.096  -8.717  0.00  0.00    -0.388 OA
ATOM     92  C3  GCD d 611      36.169  22.892  -7.995  0.00  0.00     0.084 C 
ATOM     93  H   GCD d 611      34.702  23.917  -9.323  0.00  0.00     0.095 H 
ATOM     94  H   GCD d 611      37.992  23.655  -6.843  0.00  0.00     0.085 H 
ATOM     95  H   GCD d 611      34.095  23.369  -6.416  0.00  0.00     0.134 H 
ATOM     96  H   GCD d 611      36.076  21.737  -9.602  0.00  0.00     0.210 HD
ATOM     97  H   GCD d 611      33.953  21.529  -7.930  0.00  0.00     0.210 HD
ATOM     98  H   GCD d 611      36.153  22.184  -7.193  0.00  0.00     0.093 H 
ENDROOT
TORSDOF 25
ENDMDL
MODEL 19
REMARK VINA RESULT:      -7.8      4.844     12.011
REMARK  0 active torsions:
REMARK  status: ('A' for Active; 'I' for Inactive)
REMARK       I    between atoms: O3_1  and  C3_6 
REMARK       I    between atoms: O3_3  and  C3_16 
REMARK       I    between atoms: O3_3  and  C1_32 
REMARK       I    between atoms: C8_5  and  C7_53 
REMARK       I    between atoms: C6_7  and  C5_47 
REMARK       I    between atoms: C6_7  and  O6_29 
REMARK       I    between atoms: O4_8  and  C4_45 
REMARK       I    between atoms: O4_8  and  C1_39 
REMARK       I    between atoms: N_10  and  C2_35 
REMARK       I    between atoms: N_10  and  C7_17 
REMARK       I    between atoms: C5_12  and  C6_42 
REMARK       I    between atoms: C1_14  and  O3_57 
REMARK       I    between atoms: C6_15  and  C5_20 
REMARK       I    between atoms: C7_17  and  C8_54 
REMARK       I    between atoms: O6_18  and  C6_42 
REMARK       I    between atoms: S_19  and  O4_46 
REMARK       I    between atoms: C4_22  and  O4_50 
REMARK       I    between atoms: C2_23  and  O2_51 
REMARK       I    between atoms: S_26  and  O4_50 
REMARK       I    between atoms: N_27  and  C2_56 
REMARK       I    between atoms: N_27  and  C7_53 
REMARK       I    between atoms: C5_31  and  C6_55 
REMARK       I    between atoms: C1_33  and  O1_48 
REMARK       I    between atoms: C4_34  and  O4_46 
REMARK       I    between atoms: C3_40  and  O3_57 
REMARK       I    between atoms: C2_41  and  O2_60 
REMARK       I    between atoms: O3_43  and  C3_52 
ROOT
ATOM      1  O3  BDP d 609      27.759  24.318  -7.503  0.00  0.00    -0.390 OA
ATOM      2  C3  BDP d 609      29.070  23.767  -7.492  0.00  0.00     0.092 C 
ATOM      3  O4  BDP d 609      28.815  23.027  -5.237  0.00  0.00    -0.348 OA
ATOM      4  C1  BDP d 609      30.789  22.573  -8.873  0.00  0.00     0.160 C 
ATOM      5  C5  BDP d 609      30.435  21.869  -6.609  0.00  0.00     0.152 C 
ATOM      6  O5  BDP d 609      30.714  21.458  -7.960  0.00  0.00    -0.340 OA
ATOM      7  O6B BDP d 609      29.689  19.695  -6.003  0.00  0.00    -0.646 OA
ATOM      8  C2  BDP d 609      29.460  23.340  -8.900  0.00  0.00     0.110 C 
ATOM      9  C4  BDP d 609      29.082  22.568  -6.563  0.00  0.00     0.103 C 
ATOM     10  C6  BDP d 609      30.483  20.623  -5.743  0.00  0.00     0.206 C 
ATOM     11  O6A BDP d 609      31.305  20.625  -4.801  0.00  0.00    -0.646 OA
ATOM     12  O2  BDP d 609      29.601  24.491  -9.720  0.00  0.00    -0.388 OA
ATOM     13  H   BDP d 609      27.737  25.088  -8.094  0.00  0.00     0.210 HD
ATOM     14  H   BDP d 609      29.772  24.498  -7.149  0.00  0.00     0.091 H 
ATOM     15  H   BDP d 609      31.560  23.241  -8.552  0.00  0.00     0.133 H 
ATOM     16  H   BDP d 609      31.154  22.570  -6.243  0.00  0.00     0.104 H 
ATOM     17  H   BDP d 609      28.695  22.704  -9.293  0.00  0.00     0.094 H 
ATOM     18  H   BDP d 609      28.336  21.866  -6.871  0.00  0.00     0.092 H 
ATOM     19  H   BDP d 609      30.296  25.063  -9.357  0.00  0.00     0.210 HD
ATOM     20  O7  ASG d 610      29.648  24.510  -1.918  0.00  0.00    -0.274 OA
ATOM     21  O3  ASG d 610      26.701  22.603  -0.962  0.00  0.00    -0.348 OA
ATOM     22  OSB ASG d 610      23.815  23.948  -0.928  0.00  0.00    -0.572 OA
ATOM     23  OSA ASG d 610      22.705  24.120  -3.060  0.00  0.00    -0.572 OA
ATOM     24  N   ASG d 610      29.120  22.391  -2.478  0.00  0.00    -0.349 N 
ATOM     25  C5  ASG d 610      25.476  21.959  -4.473  0.00  0.00     0.090 C 
ATOM     26  C3  ASG d 610      26.701  22.156  -2.333  0.00  0.00     0.094 C 
ATOM     27  C7  ASG d 610      29.943  23.314  -1.989  0.00  0.00     0.214 C 
ATOM     28  O6  ASG d 610      24.297  21.466  -6.536  0.00  0.00    -0.398 OA
ATOM     29  O5  ASG d 610      26.567  22.616  -5.149  0.00  0.00    -0.349 OA
ATOM     30  C4  ASG d 610      25.377  22.497  -3.042  0.00  0.00     0.114 C 
ATOM     31  S   ASG d 610      23.897  24.513  -2.291  0.00  0.00     0.252 S 
ATOM     32  C2  ASG d 610      27.864  22.787  -3.085  0.00  0.00     0.087 C 
ATOM     33  C1  ASG d 610      27.842  22.336  -4.541  0.00  0.00     0.154 C 
ATOM     34  C6  ASG d 610      24.229  22.178  -5.308  0.00  0.00     0.043 C 
ATOM     35  OSC ASG d 610      23.974  25.986  -2.242  0.00  0.00    -0.572 OA
ATOM     36  O4  ASG d 610      25.173  23.927  -3.074  0.00  0.00    -0.246 OA
ATOM     37  C8  ASG d 610      31.304  22.834  -1.499  0.00  0.00    -0.003 C 
ATOM     38  H   ASG d 610      29.364  21.439  -2.429  0.00  0.00     0.163 HD
ATOM     39  H   ASG d 610      25.621  20.903  -4.379  0.00  0.00     0.090 H 
ATOM     40  H   ASG d 610      26.808  21.092  -2.327  0.00  0.00     0.091 H 
ATOM     41  H   ASG d 610      23.489  21.625  -7.048  0.00  0.00     0.209 HD
ATOM     42  H   ASG d 610      24.553  22.058  -2.521  0.00  0.00     0.093 H 
ATOM     43  H   ASG d 610      27.768  23.852  -3.039  0.00  0.00     0.084 H 
ATOM     44  H   ASG d 610      28.020  21.282  -4.572  0.00  0.00     0.132 H 
ATOM     45  H   ASG d 610      24.127  23.223  -5.516  0.00  0.00     0.078 H 
ATOM     46  H   ASG d 610      23.386  21.819  -4.756  0.00  0.00     0.078 H 
ATOM     47  H   ASG d 610      31.866  23.667  -1.132  0.00  0.00     0.040 H 
ATOM     48  H   ASG d 610      31.833  22.375  -2.307  0.00  0.00     0.040 H 
ATOM     49  H   ASG d 610      31.169  22.122  -0.712  0.00  0.00     0.040 H 
ATOM     50  C8  ASG d 608      31.365  25.689 -12.647  0.00  0.00    -0.003 C 
ATOM     51  C6  ASG d 608      34.567  18.589 -10.497  0.00  0.00     0.043 C 
ATOM     52  O7  ASG d 608      30.656  23.477 -13.172  0.00  0.00    -0.274 OA
ATOM     53  S   ASG d 608      30.736  18.664 -10.639  0.00  0.00     0.252 S 
ATOM     54  OSC ASG d 608      29.434  19.340 -10.804  0.00  0.00    -0.572 OA
ATOM     55  N   ASG d 608      32.578  23.673 -12.002  0.00  0.00    -0.349 N 
ATOM     56  O6  ASG d 608      34.606  18.134  -9.147  0.00  0.00    -0.398 OA
ATOM     57  O5  ASG d 608      34.475  20.471 -11.957  0.00  0.00    -0.349 OA
ATOM     58  C1  ASG d 608      34.215  21.865 -12.214  0.00  0.00     0.151 C 
ATOM     59  C4  ASG d 608      32.737  20.344 -10.267  0.00  0.00     0.114 C 
ATOM     60  OSB ASG d 608      30.942  18.482  -9.191  0.00  0.00    -0.572 OA
ATOM     61  C3  ASG d 608      32.441  21.818 -10.439  0.00  0.00     0.094 C 
ATOM     62  O4  ASG d 608      31.968  19.526 -11.166  0.00  0.00    -0.246 OA
ATOM     63  C5  ASG d 608      34.208  20.077 -10.591  0.00  0.00     0.090 C 
ATOM     64  O1  ASG d 608      34.432  22.096 -13.562  0.00  0.00    -0.369 OA
ATOM     65  C7  ASG d 608      31.508  24.172 -12.620  0.00  0.00     0.214 C 
ATOM     66  C2  ASG d 608      32.758  22.235 -11.870  0.00  0.00     0.087 C 
ATOM     67  O3  ASG d 608      31.059  22.085 -10.138  0.00  0.00    -0.348 OA
ATOM     68  OSA ASG d 608      30.848  17.360 -11.325  0.00  0.00    -0.572 OA
ATOM     69  H   ASG d 608      30.470  25.954 -13.170  0.00  0.00     0.040 H 
ATOM     70  H   ASG d 608      32.210  26.117 -13.145  0.00  0.00     0.040 H 
ATOM     71  H   ASG d 608      31.316  26.060 -11.646  0.00  0.00     0.040 H 
ATOM     72  H   ASG d 608      35.529  18.437 -10.941  0.00  0.00     0.078 H 
ATOM     73  H   ASG d 608      33.811  18.033 -11.011  0.00  0.00     0.078 H 
ATOM     74  H   ASG d 608      33.253  24.284 -11.630  0.00  0.00     0.163 HD
ATOM     75  H   ASG d 608      35.286  18.625  -8.660  0.00  0.00     0.209 HD
ATOM     76  H   ASG d 608      34.861  22.462 -11.605  0.00  0.00     0.132 H 
ATOM     77  H   ASG d 608      32.491  20.099  -9.255  0.00  0.00     0.093 H 
ATOM     78  H   ASG d 608      33.051  22.382  -9.764  0.00  0.00     0.091 H 
ATOM     79  H   ASG d 608      34.783  20.631  -9.879  0.00  0.00     0.090 H 
ATOM     80  H   ASG d 608      33.832  21.543 -14.085  0.00  0.00     0.212 HD
ATOM     81  H   ASG d 608      32.100  21.726 -12.543  0.00  0.00     0.084 H 
ATOM     82  O6B GCD d 611      23.426  18.534   0.068  0.00  0.00    -0.642 OA
ATOM     83  C6  GCD d 611      23.381  19.663   0.697  0.00  0.00     0.233 C 
ATOM     84  C5  GCD d 611      24.696  20.298   1.073  0.00  0.00     0.147 C 
ATOM     85  C2  GCD d 611      27.113  22.025   1.299  0.00  0.00     0.111 C 
ATOM     86  O6A GCD d 611      22.378  20.415   1.011  0.00  0.00    -0.642 OA
ATOM     87  C4  GCD d 611      25.521  19.966   2.098  0.00  0.00    -0.034 C 
ATOM     88  C1  GCD d 611      26.598  21.584  -0.034  0.00  0.00     0.165 C 
ATOM     89  O3  GCD d 611      27.242  21.296   3.546  0.00  0.00    -0.389 OA
ATOM     90  O5  GCD d 611      25.111  21.397   0.177  0.00  0.00    -0.311 OA
ATOM     91  O2  GCD d 611      28.552  22.253   1.230  0.00  0.00    -0.388 OA
ATOM     92  C3  GCD d 611      26.844  20.804   2.258  0.00  0.00     0.084 C 
ATOM     93  H   GCD d 611      26.646  22.931   1.625  0.00  0.00     0.095 H 
ATOM     94  H   GCD d 611      25.292  19.196   2.746  0.00  0.00     0.085 H 
ATOM     95  H   GCD d 611      27.132  20.722  -0.375  0.00  0.00     0.134 H 
ATOM     96  H   GCD d 611      28.074  21.787   3.462  0.00  0.00     0.210 HD
ATOM     97  H   GCD d 611      28.993  21.441   0.936  0.00  0.00     0.210 HD
ATOM     98  H   GCD d 611      27.419  19.945   1.982  0.00  0.00     0.093 H 
ENDROOT
TORSDOF 25
ENDMDL
MODEL 20
REMARK VINA RESULT:      -7.7      3.526     11.252
REMARK  0 active torsions:
REMARK  status: ('A' for Active; 'I' for Inactive)
REMARK       I    between atoms: O3_1  and  C3_6 
REMARK       I    between atoms: O3_3  and  C3_16 
REMARK       I    between atoms: O3_3  and  C1_32 
REMARK       I    between atoms: C8_5  and  C7_53 
REMARK       I    between atoms: C6_7  and  C5_47 
REMARK       I    between atoms: C6_7  and  O6_29 
REMARK       I    between atoms: O4_8  and  C4_45 
REMARK       I    between atoms: O4_8  and  C1_39 
REMARK       I    between atoms: N_10  and  C2_35 
REMARK       I    between atoms: N_10  and  C7_17 
REMARK       I    between atoms: C5_12  and  C6_42 
REMARK       I    between atoms: C1_14  and  O3_57 
REMARK       I    between atoms: C6_15  and  C5_20 
REMARK       I    between atoms: C7_17  and  C8_54 
REMARK       I    between atoms: O6_18  and  C6_42 
REMARK       I    between atoms: S_19  and  O4_46 
REMARK       I    between atoms: C4_22  and  O4_50 
REMARK       I    between atoms: C2_23  and  O2_51 
REMARK       I    between atoms: S_26  and  O4_50 
REMARK       I    between atoms: N_27  and  C2_56 
REMARK       I    between atoms: N_27  and  C7_53 
REMARK       I    between atoms: C5_31  and  C6_55 
REMARK       I    between atoms: C1_33  and  O1_48 
REMARK       I    between atoms: C4_34  and  O4_46 
REMARK       I    between atoms: C3_40  and  O3_57 
REMARK       I    between atoms: C2_41  and  O2_60 
REMARK       I    between atoms: O3_43  and  C3_52 
ROOT
ATOM      1  O3  BDP d 609      28.080  26.817  -5.754  0.00  0.00    -0.390 OA
ATOM      2  C3  BDP d 609      28.955  26.971  -4.644  0.00  0.00     0.092 C 
ATOM      3  O4  BDP d 609      27.813  25.269  -3.419  0.00  0.00    -0.348 OA
ATOM      4  C1  BDP d 609      31.324  27.435  -3.967  0.00  0.00     0.160 C 
ATOM      5  C5  BDP d 609      30.114  25.714  -2.820  0.00  0.00     0.152 C 
ATOM      6  O5  BDP d 609      31.383  26.129  -3.357  0.00  0.00    -0.340 OA
ATOM      7  O6B BDP d 609      30.760  23.427  -2.808  0.00  0.00    -0.646 OA
ATOM      8  C2  BDP d 609      30.318  27.448  -5.126  0.00  0.00     0.110 C 
ATOM      9  C4  BDP d 609      29.091  25.631  -3.946  0.00  0.00     0.103 C 
ATOM     10  C6  BDP d 609      30.334  24.382  -2.126  0.00  0.00     0.206 C 
ATOM     11  O6A BDP d 609      30.044  24.327  -0.911  0.00  0.00    -0.646 OA
ATOM     12  O2  BDP d 609      30.203  28.771  -5.631  0.00  0.00    -0.388 OA
ATOM     13  H   BDP d 609      27.984  27.668  -6.210  0.00  0.00     0.210 HD
ATOM     14  H   BDP d 609      28.560  27.695  -3.963  0.00  0.00     0.091 H 
ATOM     15  H   BDP d 609      31.011  28.152  -3.237  0.00  0.00     0.133 H 
ATOM     16  H   BDP d 609      29.727  26.413  -2.108  0.00  0.00     0.104 H 
ATOM     17  H   BDP d 609      30.662  26.791  -5.897  0.00  0.00     0.094 H 
ATOM     18  H   BDP d 609      29.427  24.893  -4.644  0.00  0.00     0.092 H 
ATOM     19  H   BDP d 609      29.890  29.359  -4.926  0.00  0.00     0.210 HD
ATOM     20  O7  ASG d 610      25.023  25.295  -0.944  0.00  0.00    -0.274 OA
ATOM     21  O3  ASG d 610      24.367  22.074  -2.504  0.00  0.00    -0.348 OA
ATOM     22  OSB ASG d 610      22.320  21.811  -4.929  0.00  0.00    -0.572 OA
ATOM     23  OSA ASG d 610      23.174  22.409  -7.101  0.00  0.00    -0.572 OA
ATOM     24  N   ASG d 610      26.501  23.672  -1.461  0.00  0.00    -0.349 N 
ATOM     25  C5  ASG d 610      26.600  22.610  -5.499  0.00  0.00     0.090 C 
ATOM     26  C3  ASG d 610      25.557  22.345  -3.271  0.00  0.00     0.094 C 
ATOM     27  C7  ASG d 610      25.938  24.533  -0.619  0.00  0.00     0.214 C 
ATOM     28  O6  ASG d 610      27.795  22.631  -7.611  0.00  0.00    -0.398 OA
ATOM     29  O5  ASG d 610      27.087  23.908  -5.108  0.00  0.00    -0.349 OA
ATOM     30  C4  ASG d 610      25.272  22.337  -4.785  0.00  0.00     0.114 C 
ATOM     31  S   ASG d 610      22.907  22.898  -5.739  0.00  0.00     0.252 S 
ATOM     32  C2  ASG d 610      26.141  23.691  -2.866  0.00  0.00     0.087 C 
ATOM     33  C1  ASG d 610      27.382  23.988  -3.701  0.00  0.00     0.154 C 
ATOM     34  C6  ASG d 610      26.506  22.598  -7.013  0.00  0.00     0.043 C 
ATOM     35  OSC ASG d 610      21.987  24.049  -5.813  0.00  0.00    -0.572 OA
ATOM     36  O4  ASG d 610      24.317  23.366  -5.126  0.00  0.00    -0.246 OA
ATOM     37  C8  ASG d 610      26.471  24.549   0.810  0.00  0.00    -0.003 C 
ATOM     38  H   ASG d 610      27.162  23.022  -1.131  0.00  0.00     0.163 HD
ATOM     39  H   ASG d 610      27.255  21.815  -5.209  0.00  0.00     0.090 H 
ATOM     40  H   ASG d 610      26.262  21.567  -3.063  0.00  0.00     0.091 H 
ATOM     41  H   ASG d 610      27.704  22.623  -8.576  0.00  0.00     0.209 HD
ATOM     42  H   ASG d 610      24.861  21.395  -5.080  0.00  0.00     0.093 H 
ATOM     43  H   ASG d 610      25.407  24.451  -3.034  0.00  0.00     0.084 H 
ATOM     44  H   ASG d 610      28.134  23.266  -3.460  0.00  0.00     0.132 H 
ATOM     45  H   ASG d 610      25.951  23.454  -7.334  0.00  0.00     0.078 H 
ATOM     46  H   ASG d 610      26.017  21.695  -7.314  0.00  0.00     0.078 H 
ATOM     47  H   ASG d 610      25.938  25.279   1.382  0.00  0.00     0.040 H 
ATOM     48  H   ASG d 610      27.512  24.794   0.800  0.00  0.00     0.040 H 
ATOM     49  H   ASG d 610      26.336  23.584   1.251  0.00  0.00     0.040 H 
ATOM     50  C8  ASG d 608      32.127  31.802  -6.107  0.00  0.00    -0.003 C 
ATOM     51  C6  ASG d 608      36.442  26.771  -1.485  0.00  0.00     0.043 C 
ATOM     52  O7  ASG d 608      33.564  30.010  -6.737  0.00  0.00    -0.274 OA
ATOM     53  S   ASG d 608      34.916  25.183  -4.624  0.00  0.00     0.252 S 
ATOM     54  OSC ASG d 608      34.069  25.199  -5.833  0.00  0.00    -0.572 OA
ATOM     55  N   ASG d 608      33.453  30.493  -4.533  0.00  0.00    -0.349 N 
ATOM     56  O6  ASG d 608      35.844  25.829  -0.599  0.00  0.00    -0.398 OA
ATOM     57  O5  ASG d 608      36.200  28.843  -2.639  0.00  0.00    -0.349 OA
ATOM     58  C1  ASG d 608      35.394  29.921  -3.155  0.00  0.00     0.151 C 
ATOM     59  C4  ASG d 608      34.442  27.209  -2.999  0.00  0.00     0.114 C 
ATOM     60  OSB ASG d 608      34.152  24.483  -3.577  0.00  0.00    -0.572 OA
ATOM     61  C3  ASG d 608      33.515  28.294  -3.502  0.00  0.00     0.094 C 
ATOM     62  O4  ASG d 608      35.234  26.638  -4.055  0.00  0.00    -0.246 OA
ATOM     63  C5  ASG d 608      35.428  27.804  -1.993  0.00  0.00     0.090 C 
ATOM     64  O1  ASG d 608      36.235  30.803  -3.812  0.00  0.00    -0.369 OA
ATOM     65  C7  ASG d 608      33.113  30.680  -5.808  0.00  0.00     0.214 C 
ATOM     66  C2  ASG d 608      34.337  29.403  -4.150  0.00  0.00     0.087 C 
ATOM     67  O3  ASG d 608      32.580  27.748  -4.452  0.00  0.00    -0.348 OA
ATOM     68  OSA ASG d 608      36.231  24.533  -4.798  0.00  0.00    -0.572 OA
ATOM     69  H   ASG d 608      31.941  31.843  -7.160  0.00  0.00     0.040 H 
ATOM     70  H   ASG d 608      32.537  32.734  -5.780  0.00  0.00     0.040 H 
ATOM     71  H   ASG d 608      31.209  31.616  -5.591  0.00  0.00     0.040 H 
ATOM     72  H   ASG d 608      37.227  27.283  -0.968  0.00  0.00     0.078 H 
ATOM     73  H   ASG d 608      36.820  26.235  -2.331  0.00  0.00     0.078 H 
ATOM     74  H   ASG d 608      33.102  31.100  -3.842  0.00  0.00     0.163 HD
ATOM     75  H   ASG d 608      35.494  26.294   0.177  0.00  0.00     0.209 HD
ATOM     76  H   ASG d 608      34.883  30.397  -2.345  0.00  0.00     0.132 H 
ATOM     77  H   ASG d 608      33.821  26.454  -2.564  0.00  0.00     0.093 H 
ATOM     78  H   ASG d 608      32.965  28.699  -2.678  0.00  0.00     0.091 H 
ATOM     79  H   ASG d 608      34.846  28.170  -1.174  0.00  0.00     0.090 H 
ATOM     80  H   ASG d 608      36.682  30.343  -4.539  0.00  0.00     0.212 HD
ATOM     81  H   ASG d 608      34.831  29.017  -5.017  0.00  0.00     0.084 H 
ATOM     82  O6B GCD d 611      24.875  17.001  -4.038  0.00  0.00    -0.642 OA
ATOM     83  C6  GCD d 611      23.734  17.571  -3.825  0.00  0.00     0.233 C 
ATOM     84  C5  GCD d 611      23.629  18.480  -2.627  0.00  0.00     0.147 C 
ATOM     85  C2  GCD d 611      23.393  20.794  -0.764  0.00  0.00     0.111 C 
ATOM     86  O6A GCD d 611      22.645  17.564  -4.520  0.00  0.00    -0.642 OA
ATOM     87  C4  GCD d 611      23.493  18.130  -1.322  0.00  0.00    -0.034 C 
ATOM     88  C1  GCD d 611      24.343  20.822  -1.919  0.00  0.00     0.165 C 
ATOM     89  O3  GCD d 611      22.407  19.276   0.760  0.00  0.00    -0.389 OA
ATOM     90  O5  GCD d 611      23.709  19.919  -2.954  0.00  0.00    -0.311 OA
ATOM     91  O2  GCD d 611      23.888  21.642   0.314  0.00  0.00    -0.388 OA
ATOM     92  C3  GCD d 611      23.407  19.297  -0.269  0.00  0.00     0.084 C 
ATOM     93  H   GCD d 611      22.419  21.139  -1.042  0.00  0.00     0.095 H 
ATOM     94  H   GCD d 611      23.448  17.141  -1.033  0.00  0.00     0.085 H 
ATOM     95  H   GCD d 611      25.327  20.548  -1.600  0.00  0.00     0.134 H 
ATOM     96  H   GCD d 611      22.499  20.065   1.316  0.00  0.00     0.210 HD
ATOM     97  H   GCD d 611      24.772  21.344   0.580  0.00  0.00     0.210 HD
ATOM     98  H   GCD d 611      24.362  19.014   0.120  0.00  0.00     0.093 H 
ENDROOT
TORSDOF 25
ENDMDL
MODEL 21
REMARK VINA RESULT:      -7.7      4.703      7.782
REMARK  0 active torsions:
REMARK  status: ('A' for Active; 'I' for Inactive)
REMARK       I    between atoms: O3_1  and  C3_6 
REMARK       I    between atoms: O3_3  and  C3_16 
REMARK       I    between atoms: O3_3  and  C1_32 
REMARK       I    between atoms: C8_5  and  C7_53 
REMARK       I    between atoms: C6_7  and  C5_47 
REMARK       I    between atoms: C6_7  and  O6_29 
REMARK       I    between atoms: O4_8  and  C4_45 
REMARK       I    between atoms: O4_8  and  C1_39 
REMARK       I    between atoms: N_10  and  C2_35 
REMARK       I    between atoms: N_10  and  C7_17 
REMARK       I    between atoms: C5_12  and  C6_42 
REMARK       I    between atoms: C1_14  and  O3_57 
REMARK       I    between atoms: C6_15  and  C5_20 
REMARK       I    between atoms: C7_17  and  C8_54 
REMARK       I    between atoms: O6_18  and  C6_42 
REMARK       I    between atoms: S_19  and  O4_46 
REMARK       I    between atoms: C4_22  and  O4_50 
REMARK       I    between atoms: C2_23  and  O2_51 
REMARK       I    between atoms: S_26  and  O4_50 
REMARK       I    between atoms: N_27  and  C2_56 
REMARK       I    between atoms: N_27  and  C7_53 
REMARK       I    between atoms: C5_31  and  C6_55 
REMARK       I    between atoms: C1_33  and  O1_48 
REMARK       I    between atoms: C4_34  and  O4_46 
REMARK       I    between atoms: C3_40  and  O3_57 
REMARK       I    between atoms: C2_41  and  O2_60 
REMARK       I    between atoms: O3_43  and  C3_52 
ROOT
ATOM      1  O3  BDP d 609      29.232  29.359  -8.255  0.00  0.00    -0.390 OA
ATOM      2  C3  BDP d 609      28.588  28.092  -8.295  0.00  0.00     0.092 C 
ATOM      3  O4  BDP d 609      30.131  27.180  -6.717  0.00  0.00    -0.348 OA
ATOM      4  C1  BDP d 609      26.369  26.940  -8.481  0.00  0.00     0.160 C 
ATOM      5  C5  BDP d 609      27.965  26.118  -6.893  0.00  0.00     0.152 C 
ATOM      6  O5  BDP d 609      26.576  26.377  -7.169  0.00  0.00    -0.340 OA
ATOM      7  O6B BDP d 609      27.584  26.058  -4.548  0.00  0.00    -0.646 OA
ATOM      8  C2  BDP d 609      27.113  28.275  -8.622  0.00  0.00     0.110 C 
ATOM      9  C4  BDP d 609      28.742  27.429  -6.939  0.00  0.00     0.103 C 
ATOM     10  C6  BDP d 609      28.033  25.442  -5.536  0.00  0.00     0.206 C 
ATOM     11  O6A BDP d 609      28.567  24.312  -5.498  0.00  0.00    -0.646 OA
ATOM     12  O2  BDP d 609      26.980  28.746  -9.955  0.00  0.00    -0.388 OA
ATOM     13  H   BDP d 609      29.142  29.795  -9.117  0.00  0.00     0.210 HD
ATOM     14  H   BDP d 609      29.033  27.478  -9.050  0.00  0.00     0.091 H 
ATOM     15  H   BDP d 609      26.744  26.263  -9.219  0.00  0.00     0.133 H 
ATOM     16  H   BDP d 609      28.409  25.474  -7.622  0.00  0.00     0.104 H 
ATOM     17  H   BDP d 609      26.693  28.984  -7.940  0.00  0.00     0.094 H 
ATOM     18  H   BDP d 609      28.352  28.071  -6.178  0.00  0.00     0.092 H 
ATOM     19  H   BDP d 609      27.364  28.098 -10.567  0.00  0.00     0.210 HD
ATOM     20  O7  ASG d 610      33.344  25.311  -7.026  0.00  0.00    -0.274 OA
ATOM     21  O3  ASG d 610      34.014  27.082  -3.919  0.00  0.00    -0.348 OA
ATOM     22  OSB ASG d 610      35.545  29.875  -3.919  0.00  0.00    -0.572 OA
ATOM     23  OSA ASG d 610      34.211  31.811  -4.443  0.00  0.00    -0.572 OA
ATOM     24  N   ASG d 610      31.976  25.580  -5.254  0.00  0.00    -0.349 N 
ATOM     25  C5  ASG d 610      31.178  29.552  -4.237  0.00  0.00     0.090 C 
ATOM     26  C3  ASG d 610      32.672  27.587  -4.064  0.00  0.00     0.094 C 
ATOM     27  C7  ASG d 610      32.601  24.837  -6.162  0.00  0.00     0.214 C 
ATOM     28  O6  ASG d 610      29.585  31.381  -4.151  0.00  0.00    -0.398 OA
ATOM     29  O5  ASG d 610      30.642  29.026  -5.468  0.00  0.00    -0.349 OA
ATOM     30  C4  ASG d 610      32.644  29.126  -4.107  0.00  0.00     0.114 C 
ATOM     31  S   ASG d 610      34.693  30.513  -4.942  0.00  0.00     0.252 S 
ATOM     32  C2  ASG d 610      32.040  27.027  -5.330  0.00  0.00     0.087 C 
ATOM     33  C1  ASG d 610      30.632  27.586  -5.496  0.00  0.00     0.154 C 
ATOM     34  C6  ASG d 610      30.965  31.053  -4.256  0.00  0.00     0.043 C 
ATOM     35  OSC ASG d 610      35.449  30.729  -6.191  0.00  0.00    -0.572 OA
ATOM     36  O4  ASG d 610      33.394  29.615  -5.241  0.00  0.00    -0.246 OA
ATOM     37  C8  ASG d 610      32.370  23.331  -6.099  0.00  0.00    -0.003 C 
ATOM     38  H   ASG d 610      31.469  25.148  -4.529  0.00  0.00     0.163 HD
ATOM     39  H   ASG d 610      30.684  29.165  -3.370  0.00  0.00     0.090 H 
ATOM     40  H   ASG d 610      32.111  27.270  -3.209  0.00  0.00     0.091 H 
ATOM     41  H   ASG d 610      29.480  32.344  -4.165  0.00  0.00     0.209 HD
ATOM     42  H   ASG d 610      33.086  29.531  -3.221  0.00  0.00     0.093 H 
ATOM     43  H   ASG d 610      32.639  27.311  -6.170  0.00  0.00     0.084 H 
ATOM     44  H   ASG d 610      30.026  27.226  -4.691  0.00  0.00     0.132 H 
ATOM     45  H   ASG d 610      31.348  31.449  -5.173  0.00  0.00     0.078 H 
ATOM     46  H   ASG d 610      31.477  31.477  -3.418  0.00  0.00     0.078 H 
ATOM     47  H   ASG d 610      32.925  22.852  -6.878  0.00  0.00     0.040 H 
ATOM     48  H   ASG d 610      31.328  23.125  -6.225  0.00  0.00     0.040 H 
ATOM     49  H   ASG d 610      32.694  22.960  -5.150  0.00  0.00     0.040 H 
ATOM     50  C8  ASG d 608      24.685  28.723 -12.756  0.00  0.00    -0.003 C 
ATOM     51  C6  ASG d 608      21.960  23.512  -7.215  0.00  0.00     0.043 C 
ATOM     52  O7  ASG d 608      23.352  29.116 -10.823  0.00  0.00    -0.274 OA
ATOM     53  S   ASG d 608      22.983  26.947  -5.848  0.00  0.00     0.252 S 
ATOM     54  OSC ASG d 608      23.561  28.299  -5.974  0.00  0.00    -0.572 OA
ATOM     55  N   ASG d 608      23.853  26.963 -11.287  0.00  0.00    -0.349 N 
ATOM     56  O6  ASG d 608      22.823  22.796  -6.335  0.00  0.00    -0.398 OA
ATOM     57  O5  ASG d 608      21.739  24.618  -9.315  0.00  0.00    -0.349 OA
ATOM     58  C1  ASG d 608      22.303  25.247 -10.483  0.00  0.00     0.151 C 
ATOM     59  C4  ASG d 608      23.554  25.379  -7.893  0.00  0.00     0.114 C 
ATOM     60  OSB ASG d 608      24.014  26.098  -5.225  0.00  0.00    -0.572 OA
ATOM     61  C3  ASG d 608      24.238  26.018  -9.082  0.00  0.00     0.094 C 
ATOM     62  O4  ASG d 608      22.631  26.275  -7.250  0.00  0.00    -0.246 OA
ATOM     63  C5  ASG d 608      22.733  24.176  -8.361  0.00  0.00     0.090 C 
ATOM     64  O1  ASG d 608      21.257  25.692 -11.273  0.00  0.00    -0.369 OA
ATOM     65  C7  ASG d 608      23.906  28.273 -11.527  0.00  0.00     0.214 C 
ATOM     66  C2  ASG d 608      23.188  26.450 -10.099  0.00  0.00     0.087 C 
ATOM     67  O3  ASG d 608      25.015  27.154  -8.657  0.00  0.00    -0.348 OA
ATOM     68  OSA ASG d 608      21.737  26.877  -5.057  0.00  0.00    -0.572 OA
ATOM     69  H   ASG d 608      24.648  29.790 -12.831  0.00  0.00     0.040 H 
ATOM     70  H   ASG d 608      24.251  28.289 -13.633  0.00  0.00     0.040 H 
ATOM     71  H   ASG d 608      25.703  28.407 -12.669  0.00  0.00     0.040 H 
ATOM     72  H   ASG d 608      21.246  22.832  -7.628  0.00  0.00     0.078 H 
ATOM     73  H   ASG d 608      21.479  24.284  -6.650  0.00  0.00     0.078 H 
ATOM     74  H   ASG d 608      24.269  26.335 -11.921  0.00  0.00     0.163 HD
ATOM     75  H   ASG d 608      23.271  22.091  -6.826  0.00  0.00     0.209 HD
ATOM     76  H   ASG d 608      22.914  24.539 -11.003  0.00  0.00     0.132 H 
ATOM     77  H   ASG d 608      24.328  25.103  -7.207  0.00  0.00     0.093 H 
ATOM     78  H   ASG d 608      24.896  25.307  -9.536  0.00  0.00     0.091 H 
ATOM     79  H   ASG d 608      23.426  23.477  -8.779  0.00  0.00     0.090 H 
ATOM     80  H   ASG d 608      20.725  26.330 -10.774  0.00  0.00     0.212 HD
ATOM     81  H   ASG d 608      22.572  27.214  -9.672  0.00  0.00     0.084 H 
ATOM     82  O6B GCD d 611      33.756  28.661   1.160  0.00  0.00    -0.642 OA
ATOM     83  C6  GCD d 611      34.848  28.661   0.467  0.00  0.00     0.233 C 
ATOM     84  C5  GCD d 611      35.095  27.476  -0.433  0.00  0.00     0.147 C 
ATOM     85  C2  GCD d 611      35.451  25.618  -2.735  0.00  0.00     0.111 C 
ATOM     86  O6A GCD d 611      35.769  29.558   0.343  0.00  0.00    -0.642 OA
ATOM     87  C4  GCD d 611      35.529  26.238  -0.084  0.00  0.00    -0.034 C 
ATOM     88  C1  GCD d 611      34.291  26.558  -2.671  0.00  0.00     0.165 C 
ATOM     89  O3  GCD d 611      36.883  24.375  -1.318  0.00  0.00    -0.389 OA
ATOM     90  O5  GCD d 611      34.796  27.730  -1.857  0.00  0.00    -0.311 OA
ATOM     91  O2  GCD d 611      35.097  24.434  -3.509  0.00  0.00    -0.388 OA
ATOM     92  C3  GCD d 611      35.699  25.183  -1.240  0.00  0.00     0.084 C 
ATOM     93  H   GCD d 611      36.306  26.072  -3.191  0.00  0.00     0.095 H 
ATOM     94  H   GCD d 611      35.737  25.998   0.898  0.00  0.00     0.085 H 
ATOM     95  H   GCD d 611      33.427  26.060  -2.283  0.00  0.00     0.134 H 
ATOM     96  H   GCD d 611      36.821  23.785  -2.085  0.00  0.00     0.210 HD
ATOM     97  H   GCD d 611      34.322  24.008  -3.110  0.00  0.00     0.210 HD
ATOM     98  H   GCD d 611      34.878  24.621  -0.846  0.00  0.00     0.093 H 
ENDROOT
TORSDOF 25
ENDMDL
MODEL 22
REMARK VINA RESULT:      -7.7      5.821     12.246
REMARK  0 active torsions:
REMARK  status: ('A' for Active; 'I' for Inactive)
REMARK       I    between atoms: O3_1  and  C3_6 
REMARK       I    between atoms: O3_3  and  C3_16 
REMARK       I    between atoms: O3_3  and  C1_32 
REMARK       I    between atoms: C8_5  and  C7_53 
REMARK       I    between atoms: C6_7  and  C5_47 
REMARK       I    between atoms: C6_7  and  O6_29 
REMARK       I    between atoms: O4_8  and  C4_45 
REMARK       I    between atoms: O4_8  and  C1_39 
REMARK       I    between atoms: N_10  and  C2_35 
REMARK       I    between atoms: N_10  and  C7_17 
REMARK       I    between atoms: C5_12  and  C6_42 
REMARK       I    between atoms: C1_14  and  O3_57 
REMARK       I    between atoms: C6_15  and  C5_20 
REMARK       I    between atoms: C7_17  and  C8_54 
REMARK       I    between atoms: O6_18  and  C6_42 
REMARK       I    between atoms: S_19  and  O4_46 
REMARK       I    between atoms: C4_22  and  O4_50 
REMARK       I    between atoms: C2_23  and  O2_51 
REMARK       I    between atoms: S_26  and  O4_50 
REMARK       I    between atoms: N_27  and  C2_56 
REMARK       I    between atoms: N_27  and  C7_53 
REMARK       I    between atoms: C5_31  and  C6_55 
REMARK       I    between atoms: C1_33  and  O1_48 
REMARK       I    between atoms: C4_34  and  O4_46 
REMARK       I    between atoms: C3_40  and  O3_57 
REMARK       I    between atoms: C2_41  and  O2_60 
REMARK       I    between atoms: O3_43  and  C3_52 
ROOT
ATOM      1  O3  BDP d 609      26.454  21.409  -7.293  0.00  0.00    -0.390 OA
ATOM      2  C3  BDP d 609      27.805  21.845  -7.379  0.00  0.00     0.092 C 
ATOM      3  O4  BDP d 609      27.961  22.055  -5.006  0.00  0.00    -0.348 OA
ATOM      4  C1  BDP d 609      29.964  21.553  -8.620  0.00  0.00     0.160 C 
ATOM      5  C5  BDP d 609      30.022  21.730  -6.231  0.00  0.00     0.152 C 
ATOM      6  O5  BDP d 609      30.580  21.098  -7.397  0.00  0.00    -0.340 OA
ATOM      7  O6B BDP d 609      30.835  20.017  -4.798  0.00  0.00    -0.646 OA
ATOM      8  C2  BDP d 609      28.460  21.247  -8.616  0.00  0.00     0.110 C 
ATOM      9  C4  BDP d 609      28.540  21.392  -6.132  0.00  0.00     0.103 C 
ATOM     10  C6  BDP d 609      30.818  21.243  -5.033  0.00  0.00     0.206 C 
ATOM     11  O6A BDP d 609      31.384  22.118  -4.342  0.00  0.00    -0.646 OA
ATOM     12  O2  BDP d 609      27.867  21.804  -9.780  0.00  0.00    -0.388 OA
ATOM     13  H   BDP d 609      25.972  21.692  -8.086  0.00  0.00     0.210 HD
ATOM     14  H   BDP d 609      27.842  22.911  -7.454  0.00  0.00     0.091 H 
ATOM     15  H   BDP d 609      30.095  22.611  -8.709  0.00  0.00     0.133 H 
ATOM     16  H   BDP d 609      30.089  22.797  -6.277  0.00  0.00     0.104 H 
ATOM     17  H   BDP d 609      28.318  20.187  -8.606  0.00  0.00     0.094 H 
ATOM     18  H   BDP d 609      28.449  20.331  -6.025  0.00  0.00     0.092 H 
ATOM     19  H   BDP d 609      28.000  22.765  -9.782  0.00  0.00     0.210 HD
ATOM     20  O7  ASG d 610      27.435  24.872  -2.619  0.00  0.00    -0.274 OA
ATOM     21  O3  ASG d 610      26.387  22.118  -0.485  0.00  0.00    -0.348 OA
ATOM     22  OSB ASG d 610      23.324  21.270  -0.286  0.00  0.00    -0.572 OA
ATOM     23  OSA ASG d 610      22.496  19.876  -2.068  0.00  0.00    -0.572 OA
ATOM     24  N   ASG d 610      28.445  22.878  -2.324  0.00  0.00    -0.349 N 
ATOM     25  C5  ASG d 610      26.082  19.559  -3.243  0.00  0.00     0.090 C 
ATOM     26  C3  ASG d 610      26.757  21.280  -1.599  0.00  0.00     0.094 C 
ATOM     27  C7  ASG d 610      28.440  24.207  -2.353  0.00  0.00     0.214 C 
ATOM     28  O6  ASG d 610      25.630  17.694  -4.728  0.00  0.00    -0.398 OA
ATOM     29  O5  ASG d 610      26.521  20.420  -4.313  0.00  0.00    -0.349 OA
ATOM     30  C4  ASG d 610      25.574  20.421  -2.083  0.00  0.00     0.114 C 
ATOM     31  S   ASG d 610      23.098  21.178  -1.743  0.00  0.00     0.252 S 
ATOM     32  C2  ASG d 610      27.271  22.138  -2.746  0.00  0.00     0.087 C 
ATOM     33  C1  ASG d 610      27.633  21.251  -3.932  0.00  0.00     0.154 C 
ATOM     34  C6  ASG d 610      25.044  18.615  -3.819  0.00  0.00     0.043 C 
ATOM     35  OSC ASG d 610      22.196  22.253  -2.200  0.00  0.00    -0.572 OA
ATOM     36  O4  ASG d 610      24.491  21.261  -2.540  0.00  0.00    -0.246 OA
ATOM     37  C8  ASG d 610      29.755  24.910  -2.032  0.00  0.00    -0.003 C 
ATOM     38  H   ASG d 610      29.246  22.396  -2.016  0.00  0.00     0.163 HD
ATOM     39  H   ASG d 610      26.873  18.962  -2.839  0.00  0.00     0.090 H 
ATOM     40  H   ASG d 610      27.530  20.620  -1.266  0.00  0.00     0.091 H 
ATOM     41  H   ASG d 610      24.945  17.105  -5.080  0.00  0.00     0.209 HD
ATOM     42  H   ASG d 610      25.204  19.814  -1.284  0.00  0.00     0.093 H 
ATOM     43  H   ASG d 610      26.504  22.826  -3.034  0.00  0.00     0.084 H 
ATOM     44  H   ASG d 610      28.456  20.628  -3.651  0.00  0.00     0.132 H 
ATOM     45  H   ASG d 610      24.300  19.187  -4.333  0.00  0.00     0.078 H 
ATOM     46  H   ASG d 610      24.606  18.063  -3.014  0.00  0.00     0.078 H 
ATOM     47  H   ASG d 610      29.617  25.969  -2.089  0.00  0.00     0.040 H 
ATOM     48  H   ASG d 610      30.501  24.608  -2.737  0.00  0.00     0.040 H 
ATOM     49  H   ASG d 610      30.069  24.644  -1.045  0.00  0.00     0.040 H 
ATOM     50  C8  ASG d 608      28.595  22.578 -13.242  0.00  0.00    -0.003 C 
ATOM     51  C6  ASG d 608      35.512  20.529  -9.602  0.00  0.00     0.043 C 
ATOM     52  O7  ASG d 608      29.526  20.422 -12.845  0.00  0.00    -0.274 OA
ATOM     53  S   ASG d 608      32.569  18.160  -8.944  0.00  0.00     0.252 S 
ATOM     54  OSC ASG d 608      31.153  17.755  -9.043  0.00  0.00    -0.572 OA
ATOM     55  N   ASG d 608      30.787  22.197 -12.241  0.00  0.00    -0.349 N 
ATOM     56  O6  ASG d 608      35.758  20.765  -8.219  0.00  0.00    -0.398 OA
ATOM     57  O5  ASG d 608      34.303  21.195 -11.546  0.00  0.00    -0.349 OA
ATOM     58  C1  ASG d 608      33.215  21.888 -12.187  0.00  0.00     0.151 C 
ATOM     59  C4  ASG d 608      32.971  20.690  -9.581  0.00  0.00     0.114 C 
ATOM     60  OSB ASG d 608      32.759  18.724  -7.596  0.00  0.00    -0.572 OA
ATOM     61  C3  ASG d 608      31.798  21.449 -10.163  0.00  0.00     0.094 C 
ATOM     62  O4  ASG d 608      32.972  19.307  -9.975  0.00  0.00    -0.246 OA
ATOM     63  C5  ASG d 608      34.278  21.289 -10.103  0.00  0.00     0.090 C 
ATOM     64  O1  ASG d 608      33.307  21.658 -13.549  0.00  0.00    -0.369 OA
ATOM     65  C7  ASG d 608      29.688  21.638 -12.747  0.00  0.00     0.214 C 
ATOM     66  C2  ASG d 608      31.851  21.376 -11.684  0.00  0.00     0.087 C 
ATOM     67  O3  ASG d 608      30.559  20.895  -9.680  0.00  0.00    -0.348 OA
ATOM     68  OSA ASG d 608      33.542  17.071  -9.169  0.00  0.00    -0.572 OA
ATOM     69  H   ASG d 608      27.775  22.004 -13.621  0.00  0.00     0.040 H 
ATOM     70  H   ASG d 608      28.985  23.200 -14.021  0.00  0.00     0.040 H 
ATOM     71  H   ASG d 608      28.258  23.190 -12.433  0.00  0.00     0.040 H 
ATOM     72  H   ASG d 608      36.365  20.847 -10.164  0.00  0.00     0.078 H 
ATOM     73  H   ASG d 608      35.331  19.482  -9.732  0.00  0.00     0.078 H 
ATOM     74  H   ASG d 608      30.879  23.177 -12.243  0.00  0.00     0.163 HD
ATOM     75  H   ASG d 608      35.926  21.710  -8.077  0.00  0.00     0.209 HD
ATOM     76  H   ASG d 608      33.281  22.932 -11.961  0.00  0.00     0.132 H 
ATOM     77  H   ASG d 608      32.885  20.763  -8.517  0.00  0.00     0.093 H 
ATOM     78  H   ASG d 608      31.854  22.473  -9.857  0.00  0.00     0.091 H 
ATOM     79  H   ASG d 608      34.311  22.300  -9.753  0.00  0.00     0.090 H 
ATOM     80  H   ASG d 608      33.243  20.706 -13.721  0.00  0.00     0.212 HD
ATOM     81  H   ASG d 608      31.723  20.360 -11.995  0.00  0.00     0.084 H 
ATOM     82  O6B GCD d 611      26.491  17.710   2.500  0.00  0.00    -0.642 OA
ATOM     83  C6  GCD d 611      25.686  18.699   2.715  0.00  0.00     0.233 C 
ATOM     84  C5  GCD d 611      26.248  20.091   2.572  0.00  0.00     0.147 C 
ATOM     85  C2  GCD d 611      26.942  22.853   1.697  0.00  0.00     0.111 C 
ATOM     86  O6A GCD d 611      24.419  18.716   2.968  0.00  0.00    -0.642 OA
ATOM     87  C4  GCD d 611      27.029  20.771   3.450  0.00  0.00    -0.034 C 
ATOM     88  C1  GCD d 611      26.916  21.717   0.726  0.00  0.00     0.165 C 
ATOM     89  O3  GCD d 611      27.383  23.305   3.977  0.00  0.00    -0.389 OA
ATOM     90  O5  GCD d 611      25.900  20.752   1.298  0.00  0.00    -0.311 OA
ATOM     91  O2  GCD d 611      27.888  23.871   1.254  0.00  0.00    -0.388 OA
ATOM     92  C3  GCD d 611      27.477  22.223   3.039  0.00  0.00     0.084 C 
ATOM     93  H   GCD d 611      25.980  23.312   1.798  0.00  0.00     0.095 H 
ATOM     94  H   GCD d 611      27.318  20.354   4.348  0.00  0.00     0.085 H 
ATOM     95  H   GCD d 611      27.902  21.324   0.583  0.00  0.00     0.134 H 
ATOM     96  H   GCD d 611      27.699  24.123   3.561  0.00  0.00     0.210 HD
ATOM     97  H   GCD d 611      28.768  23.473   1.157  0.00  0.00     0.210 HD
ATOM     98  H   GCD d 611      28.487  21.884   2.947  0.00  0.00     0.093 H 
ENDROOT
TORSDOF 25
ENDMDL
MODEL 23
REMARK VINA RESULT:      -7.7      2.931     11.791
REMARK  0 active torsions:
REMARK  status: ('A' for Active; 'I' for Inactive)
REMARK       I    between atoms: O3_1  and  C3_6 
REMARK       I    between atoms: O3_3  and  C3_16 
REMARK       I    between atoms: O3_3  and  C1_32 
REMARK       I    between atoms: C8_5  and  C7_53 
REMARK       I    between atoms: C6_7  and  C5_47 
REMARK       I    between atoms: C6_7  and  O6_29 
REMARK       I    between atoms: O4_8  and  C4_45 
REMARK       I    between atoms: O4_8  and  C1_39 
REMARK       I    between atoms: N_10  and  C2_35 
REMARK       I    between atoms: N_10  and  C7_17 
REMARK       I    between atoms: C5_12  and  C6_42 
REMARK       I    between atoms: C1_14  and  O3_57 
REMARK       I    between atoms: C6_15  and  C5_20 
REMARK       I    between atoms: C7_17  and  C8_54 
REMARK       I    between atoms: O6_18  and  C6_42 
REMARK       I    between atoms: S_19  and  O4_46 
REMARK       I    between atoms: C4_22  and  O4_50 
REMARK       I    between atoms: C2_23  and  O2_51 
REMARK       I    between atoms: S_26  and  O4_50 
REMARK       I    between atoms: N_27  and  C2_56 
REMARK       I    between atoms: N_27  and  C7_53 
REMARK       I    between atoms: C5_31  and  C6_55 
REMARK       I    between atoms: C1_33  and  O1_48 
REMARK       I    between atoms: C4_34  and  O4_46 
REMARK       I    between atoms: C3_40  and  O3_57 
REMARK       I    between atoms: C2_41  and  O2_60 
REMARK       I    between atoms: O3_43  and  C3_52 
ROOT
ATOM      1  O3  BDP d 609      28.773  26.764  -5.163  0.00  0.00    -0.390 OA
ATOM      2  C3  BDP d 609      30.000  26.071  -5.355  0.00  0.00     0.092 C 
ATOM      3  O4  BDP d 609      29.521  24.579  -3.554  0.00  0.00    -0.348 OA
ATOM      4  C1  BDP d 609      31.631  25.257  -7.077  0.00  0.00     0.160 C 
ATOM      5  C5  BDP d 609      31.058  23.809  -5.255  0.00  0.00     0.152 C 
ATOM      6  O5  BDP d 609      31.362  23.903  -6.660  0.00  0.00    -0.340 OA
ATOM      7  O6B BDP d 609      30.008  21.695  -5.528  0.00  0.00    -0.646 OA
ATOM      8  C2  BDP d 609      30.414  26.156  -6.817  0.00  0.00     0.110 C 
ATOM      9  C4  BDP d 609      29.805  24.622  -4.954  0.00  0.00     0.103 C 
ATOM     10  C6  BDP d 609      30.896  22.335  -4.929  0.00  0.00     0.206 C 
ATOM     11  O6A BDP d 609      31.655  21.867  -4.053  0.00  0.00    -0.646 OA
ATOM     12  O2  BDP d 609      30.749  27.499  -7.136  0.00  0.00    -0.388 OA
ATOM     13  H   BDP d 609      28.884  27.694  -5.416  0.00  0.00     0.210 HD
ATOM     14  H   BDP d 609      30.768  26.512  -4.756  0.00  0.00     0.091 H 
ATOM     15  H   BDP d 609      32.461  25.640  -6.522  0.00  0.00     0.133 H 
ATOM     16  H   BDP d 609      31.838  24.213  -4.645  0.00  0.00     0.104 H 
ATOM     17  H   BDP d 609      29.599  25.829  -7.428  0.00  0.00     0.094 H 
ATOM     18  H   BDP d 609      28.995  24.199  -5.511  0.00  0.00     0.092 H 
ATOM     19  H   BDP d 609      31.488  27.789  -6.578  0.00  0.00     0.210 HD
ATOM     20  O7  ASG d 610      30.341  24.570   0.084  0.00  0.00    -0.274 OA
ATOM     21  O3  ASG d 610      27.124  22.876   0.224  0.00  0.00    -0.348 OA
ATOM     22  OSB ASG d 610      24.435  24.499   0.751  0.00  0.00    -0.572 OA
ATOM     23  OSA ASG d 610      23.484  25.616  -1.160  0.00  0.00    -0.572 OA
ATOM     24  N   ASG d 610      29.580  22.915  -1.245  0.00  0.00    -0.349 N 
ATOM     25  C5  ASG d 610      26.035  23.781  -3.275  0.00  0.00     0.090 C 
ATOM     26  C3  ASG d 610      27.147  22.983  -1.214  0.00  0.00     0.094 C 
ATOM     27  C7  ASG d 610      30.484  23.461  -0.436  0.00  0.00     0.214 C 
ATOM     28  O6  ASG d 610      24.926  24.273  -5.377  0.00  0.00    -0.398 OA
ATOM     29  O5  ASG d 610      27.238  24.485  -3.643  0.00  0.00    -0.349 OA
ATOM     30  C4  ASG d 610      25.921  23.748  -1.747  0.00  0.00     0.114 C 
ATOM     31  S   ASG d 610      24.668  25.518  -0.293  0.00  0.00     0.252 S 
ATOM     32  C2  ASG d 610      28.423  23.682  -1.662  0.00  0.00     0.087 C 
ATOM     33  C1  ASG d 610      28.429  23.821  -3.180  0.00  0.00     0.154 C 
ATOM     34  C6  ASG d 610      24.877  24.471  -3.970  0.00  0.00     0.043 C 
ATOM     35  OSC ASG d 610      24.929  26.838   0.315  0.00  0.00    -0.572 OA
ATOM     36  O4  ASG d 610      25.903  25.098  -1.232  0.00  0.00    -0.246 OA
ATOM     37  C8  ASG d 610      31.742  22.645  -0.158  0.00  0.00    -0.003 C 
ATOM     38  H   ASG d 610      29.698  21.990  -1.561  0.00  0.00     0.163 HD
ATOM     39  H   ASG d 610      26.038  22.758  -3.589  0.00  0.00     0.090 H 
ATOM     40  H   ASG d 610      27.118  21.992  -1.614  0.00  0.00     0.091 H 
ATOM     41  H   ASG d 610      24.176  24.724  -5.794  0.00  0.00     0.209 HD
ATOM     42  H   ASG d 610      25.018  23.266  -1.437  0.00  0.00     0.093 H 
ATOM     43  H   ASG d 610      28.461  24.653  -1.214  0.00  0.00     0.084 H 
ATOM     44  H   ASG d 610      28.473  22.842  -3.610  0.00  0.00     0.132 H 
ATOM     45  H   ASG d 610      24.921  25.520  -3.765  0.00  0.00     0.078 H 
ATOM     46  H   ASG d 610      23.964  24.053  -3.602  0.00  0.00     0.078 H 
ATOM     47  H   ASG d 610      32.383  23.191   0.502  0.00  0.00     0.040 H 
ATOM     48  H   ASG d 610      32.254  22.455  -1.078  0.00  0.00     0.040 H 
ATOM     49  H   ASG d 610      31.471  21.716   0.297  0.00  0.00     0.040 H 
ATOM     50  C8  ASG d 608      32.820  29.452  -9.375  0.00  0.00    -0.003 C 
ATOM     51  C6  ASG d 608      34.960  21.692 -10.076  0.00  0.00     0.043 C 
ATOM     52  O7  ASG d 608      31.867  27.724 -10.707  0.00  0.00    -0.274 OA
ATOM     53  S   ASG d 608      31.185  22.351 -10.201  0.00  0.00     0.252 S 
ATOM     54  OSC ASG d 608      29.991  23.214 -10.103  0.00  0.00    -0.572 OA
ATOM     55  N   ASG d 608      33.726  27.193  -9.540  0.00  0.00    -0.349 N 
ATOM     56  O6  ASG d 608      34.862  20.761  -9.002  0.00  0.00    -0.398 OA
ATOM     57  O5  ASG d 608      35.195  23.979 -10.708  0.00  0.00    -0.349 OA
ATOM     58  C1  ASG d 608      35.129  25.389 -10.416  0.00  0.00     0.151 C 
ATOM     59  C4  ASG d 608      33.358  23.469  -9.205  0.00  0.00     0.114 C 
ATOM     60  OSB ASG d 608      31.281  21.610  -8.931  0.00  0.00    -0.572 OA
ATOM     61  C3  ASG d 608      33.263  24.925  -8.803  0.00  0.00     0.094 C 
ATOM     62  O4  ASG d 608      32.546  23.167 -10.352  0.00  0.00    -0.246 OA
ATOM     63  C5  ASG d 608      34.800  23.140  -9.598  0.00  0.00     0.090 C 
ATOM     64  O1  ASG d 608      35.452  26.078 -11.573  0.00  0.00    -0.369 OA
ATOM     65  C7  ASG d 608      32.766  28.033  -9.927  0.00  0.00     0.214 C 
ATOM     66  C2  ASG d 608      33.714  25.802  -9.965  0.00  0.00     0.087 C 
ATOM     67  O3  ASG d 608      31.910  25.250  -8.431  0.00  0.00    -0.348 OA
ATOM     68  OSA ASG d 608      31.170  21.400 -11.331  0.00  0.00    -0.572 OA
ATOM     69  H   ASG d 608      31.998  30.017  -9.762  0.00  0.00     0.040 H 
ATOM     70  H   ASG d 608      33.740  29.914  -9.667  0.00  0.00     0.040 H 
ATOM     71  H   ASG d 608      32.760  29.421  -8.308  0.00  0.00     0.040 H 
ATOM     72  H   ASG d 608      35.919  21.586 -10.539  0.00  0.00     0.078 H 
ATOM     73  H   ASG d 608      34.171  21.483 -10.768  0.00  0.00     0.078 H 
ATOM     74  H   ASG d 608      34.451  27.518  -8.959  0.00  0.00     0.163 HD
ATOM     75  H   ASG d 608      35.569  20.932  -8.361  0.00  0.00     0.209 HD
ATOM     76  H   ASG d 608      35.810  25.615  -9.622  0.00  0.00     0.132 H 
ATOM     77  H   ASG d 608      33.024  22.897  -8.364  0.00  0.00     0.093 H 
ATOM     78  H   ASG d 608      33.899  25.101  -7.961  0.00  0.00     0.091 H 
ATOM     79  H   ASG d 608      35.398  23.299  -8.725  0.00  0.00     0.090 H 
ATOM     80  H   ASG d 608      34.819  25.852 -12.271  0.00  0.00     0.212 HD
ATOM     81  H   ASG d 608      33.037  25.681 -10.785  0.00  0.00     0.084 H 
ATOM     82  O6B GCD d 611      23.302  19.221  -0.394  0.00  0.00    -0.642 OA
ATOM     83  C6  GCD d 611      23.364  20.024   0.618  0.00  0.00     0.233 C 
ATOM     84  C5  GCD d 611      24.725  20.279   1.214  0.00  0.00     0.147 C 
ATOM     85  C2  GCD d 611      27.325  21.438   2.095  0.00  0.00     0.111 C 
ATOM     86  O6A GCD d 611      22.449  20.735   1.188  0.00  0.00    -0.642 OA
ATOM     87  C4  GCD d 611      25.440  19.473   2.040  0.00  0.00    -0.034 C 
ATOM     88  C1  GCD d 611      26.837  21.608   0.693  0.00  0.00     0.165 C 
ATOM     89  O3  GCD d 611      27.228  19.905   3.895  0.00  0.00    -0.389 OA
ATOM     90  O5  GCD d 611      25.329  21.565   0.808  0.00  0.00    -0.311 OA
ATOM     91  O2  GCD d 611      28.783  21.470   2.127  0.00  0.00    -0.388 OA
ATOM     92  C3  GCD d 611      26.847  19.996   2.515  0.00  0.00     0.084 C 
ATOM     93  H   GCD d 611      26.959  22.210   2.740  0.00  0.00     0.095 H 
ATOM     94  H   GCD d 611      25.077  18.557   2.344  0.00  0.00     0.085 H 
ATOM     95  H   GCD d 611      27.277  20.872   0.052  0.00  0.00     0.134 H 
ATOM     96  H   GCD d 611      28.120  20.270   4.010  0.00  0.00     0.210 HD
ATOM     97  H   GCD d 611      29.134  20.776   1.548  0.00  0.00     0.210 HD
ATOM     98  H   GCD d 611      27.324  19.233   1.936  0.00  0.00     0.093 H 
ENDROOT
TORSDOF 25
ENDMDL
MODEL 24
REMARK VINA RESULT:      -7.6      2.548     11.734
REMARK  0 active torsions:
REMARK  status: ('A' for Active; 'I' for Inactive)
REMARK       I    between atoms: O3_1  and  C3_6 
REMARK       I    between atoms: O3_3  and  C3_16 
REMARK       I    between atoms: O3_3  and  C1_32 
REMARK       I    between atoms: C8_5  and  C7_53 
REMARK       I    between atoms: C6_7  and  C5_47 
REMARK       I    between atoms: C6_7  and  O6_29 
REMARK       I    between atoms: O4_8  and  C4_45 
REMARK       I    between atoms: O4_8  and  C1_39 
REMARK       I    between atoms: N_10  and  C2_35 
REMARK       I    between atoms: N_10  and  C7_17 
REMARK       I    between atoms: C5_12  and  C6_42 
REMARK       I    between atoms: C1_14  and  O3_57 
REMARK       I    between atoms: C6_15  and  C5_20 
REMARK       I    between atoms: C7_17  and  C8_54 
REMARK       I    between atoms: O6_18  and  C6_42 
REMARK       I    between atoms: S_19  and  O4_46 
REMARK       I    between atoms: C4_22  and  O4_50 
REMARK       I    between atoms: C2_23  and  O2_51 
REMARK       I    between atoms: S_26  and  O4_50 
REMARK       I    between atoms: N_27  and  C2_56 
REMARK       I    between atoms: N_27  and  C7_53 
REMARK       I    between atoms: C5_31  and  C6_55 
REMARK       I    between atoms: C1_33  and  O1_48 
REMARK       I    between atoms: C4_34  and  O4_46 
REMARK       I    between atoms: C3_40  and  O3_57 
REMARK       I    between atoms: C2_41  and  O2_60 
REMARK       I    between atoms: O3_43  and  C3_52 
ROOT
ATOM      1  O3  BDP d 609      27.329  27.119  -5.318  0.00  0.00    -0.390 OA
ATOM      2  C3  BDP d 609      28.648  26.656  -5.058  0.00  0.00     0.092 C 
ATOM      3  O4  BDP d 609      27.833  24.922  -3.634  0.00  0.00    -0.348 OA
ATOM      4  C1  BDP d 609      30.917  26.301  -6.066  0.00  0.00     0.160 C 
ATOM      5  C5  BDP d 609      30.001  24.593  -4.655  0.00  0.00     0.152 C 
ATOM      6  O5  BDP d 609      30.773  24.884  -5.835  0.00  0.00    -0.340 OA
ATOM      7  O6B BDP d 609      29.540  22.381  -5.389  0.00  0.00    -0.646 OA
ATOM      8  C2  BDP d 609      29.544  26.962  -6.250  0.00  0.00     0.110 C 
ATOM      9  C4  BDP d 609      28.596  25.159  -4.819  0.00  0.00     0.103 C 
ATOM     10  C6  BDP d 609      30.011  23.086  -4.473  0.00  0.00     0.206 C 
ATOM     11  O6A BDP d 609      30.471  22.654  -3.394  0.00  0.00    -0.646 OA
ATOM     12  O2  BDP d 609      29.713  28.367  -6.365  0.00  0.00    -0.388 OA
ATOM     13  H   BDP d 609      27.347  28.077  -5.473  0.00  0.00     0.210 HD
ATOM     14  H   BDP d 609      29.046  27.147  -4.196  0.00  0.00     0.091 H 
ATOM     15  H   BDP d 609      31.398  26.749  -5.222  0.00  0.00     0.133 H 
ATOM     16  H   BDP d 609      30.413  25.048  -3.779  0.00  0.00     0.104 H 
ATOM     17  H   BDP d 609      29.085  26.576  -7.137  0.00  0.00     0.094 H 
ATOM     18  H   BDP d 609      28.140  24.675  -5.657  0.00  0.00     0.092 H 
ATOM     19  H   BDP d 609      30.129  28.710  -5.557  0.00  0.00     0.210 HD
ATOM     20  O7  ASG d 610      27.253  24.653   0.041  0.00  0.00    -0.274 OA
ATOM     21  O3  ASG d 610      24.587  22.463  -1.116  0.00  0.00    -0.348 OA
ATOM     22  OSB ASG d 610      21.639  23.572  -1.582  0.00  0.00    -0.572 OA
ATOM     23  OSA ASG d 610      21.259  24.721  -3.665  0.00  0.00    -0.572 OA
ATOM     24  N   ASG d 610      27.356  23.050  -1.542  0.00  0.00    -0.349 N 
ATOM     25  C5  ASG d 610      24.702  23.554  -4.727  0.00  0.00     0.090 C 
ATOM     26  C3  ASG d 610      25.114  22.726  -2.432  0.00  0.00     0.094 C 
ATOM     27  C7  ASG d 610      27.782  23.643  -0.430  0.00  0.00     0.214 C 
ATOM     28  O6  ASG d 610      24.367  24.085  -7.071  0.00  0.00    -0.398 OA
ATOM     29  O5  ASG d 610      25.802  24.475  -4.584  0.00  0.00    -0.349 OA
ATOM     30  C4  ASG d 610      24.047  23.339  -3.359  0.00  0.00     0.114 C 
ATOM     31  S   ASG d 610      22.041  24.721  -2.418  0.00  0.00     0.252 S 
ATOM     32  C2  ASG d 610      26.309  23.663  -2.335  0.00  0.00     0.087 C 
ATOM     33  C1  ASG d 610      26.844  23.964  -3.731  0.00  0.00     0.154 C 
ATOM     34  C6  ASG d 610      23.771  24.121  -5.781  0.00  0.00     0.043 C 
ATOM     35  OSC ASG d 610      21.809  25.992  -1.705  0.00  0.00    -0.572 OA
ATOM     36  O4  ASG d 610      23.589  24.606  -2.836  0.00  0.00    -0.246 OA
ATOM     37  C8  ASG d 610      28.981  23.013   0.271  0.00  0.00    -0.003 C 
ATOM     38  H   ASG d 610      27.753  22.195  -1.826  0.00  0.00     0.163 HD
ATOM     39  H   ASG d 610      25.013  22.584  -5.057  0.00  0.00     0.090 H 
ATOM     40  H   ASG d 610      25.419  21.792  -2.852  0.00  0.00     0.091 H 
ATOM     41  H   ASG d 610      23.751  24.453  -7.723  0.00  0.00     0.209 HD
ATOM     42  H   ASG d 610      23.202  22.689  -3.433  0.00  0.00     0.093 H 
ATOM     43  H   ASG d 610      25.998  24.574  -1.868  0.00  0.00     0.084 H 
ATOM     44  H   ASG d 610      27.225  23.056  -4.151  0.00  0.00     0.132 H 
ATOM     45  H   ASG d 610      23.540  25.136  -5.533  0.00  0.00     0.078 H 
ATOM     46  H   ASG d 610      22.883  23.525  -5.803  0.00  0.00     0.078 H 
ATOM     47  H   ASG d 610      29.222  23.580   1.146  0.00  0.00     0.040 H 
ATOM     48  H   ASG d 610      29.820  23.007  -0.393  0.00  0.00     0.040 H 
ATOM     49  H   ASG d 610      28.743  22.009   0.553  0.00  0.00     0.040 H 
ATOM     50  C8  ASG d 608      32.052  30.854  -7.573  0.00  0.00    -0.003 C 
ATOM     51  C6  ASG d 608      35.718  23.654  -7.719  0.00  0.00     0.043 C 
ATOM     52  O7  ASG d 608      31.994  29.149  -9.235  0.00  0.00    -0.274 OA
ATOM     53  S   ASG d 608      32.197  23.713  -9.238  0.00  0.00     0.252 S 
ATOM     54  OSC ASG d 608      30.911  24.360  -9.565  0.00  0.00    -0.572 OA
ATOM     55  N   ASG d 608      33.363  28.799  -7.473  0.00  0.00    -0.349 N 
ATOM     56  O6  ASG d 608      35.410  22.610  -6.800  0.00  0.00    -0.398 OA
ATOM     57  O5  ASG d 608      35.732  26.004  -8.124  0.00  0.00    -0.349 OA
ATOM     58  C1  ASG d 608      35.301  27.346  -7.823  0.00  0.00     0.151 C 
ATOM     59  C4  ASG d 608      33.605  25.050  -7.449  0.00  0.00     0.114 C 
ATOM     60  OSB ASG d 608      31.960  22.865  -8.057  0.00  0.00    -0.572 OA
ATOM     61  C3  ASG d 608      33.098  26.420  -7.057  0.00  0.00     0.094 C 
ATOM     62  O4  ASG d 608      33.340  24.747  -8.830  0.00  0.00    -0.246 OA
ATOM     63  C5  ASG d 608      35.124  24.999  -7.280  0.00  0.00     0.090 C 
ATOM     64  O1  ASG d 608      35.889  28.197  -8.742  0.00  0.00    -0.369 OA
ATOM     65  C7  ASG d 608      32.472  29.512  -8.161  0.00  0.00     0.214 C 
ATOM     66  C2  ASG d 608      33.769  27.477  -7.925  0.00  0.00     0.087 C 
ATOM     67  O3  ASG d 608      31.667  26.484  -7.212  0.00  0.00    -0.348 OA
ATOM     68  OSA ASG d 608      32.775  22.899 -10.326  0.00  0.00    -0.572 OA
ATOM     69  H   ASG d 608      31.338  31.319  -8.220  0.00  0.00     0.040 H 
ATOM     70  H   ASG d 608      32.911  31.485  -7.477  0.00  0.00     0.040 H 
ATOM     71  H   ASG d 608      31.613  30.700  -6.611  0.00  0.00     0.040 H 
ATOM     72  H   ASG d 608      36.781  23.752  -7.788  0.00  0.00     0.078 H 
ATOM     73  H   ASG d 608      35.290  23.397  -8.666  0.00  0.00     0.078 H 
ATOM     74  H   ASG d 608      33.750  29.171  -6.648  0.00  0.00     0.163 HD
ATOM     75  H   ASG d 608      35.788  22.822  -5.932  0.00  0.00     0.209 HD
ATOM     76  H   ASG d 608      35.589  27.591  -6.822  0.00  0.00     0.132 H 
ATOM     77  H   ASG d 608      33.100  24.345  -6.821  0.00  0.00     0.093 H 
ATOM     78  H   ASG d 608      33.336  26.604  -6.030  0.00  0.00     0.091 H 
ATOM     79  H   ASG d 608      35.321  25.156  -6.240  0.00  0.00     0.090 H 
ATOM     80  H   ASG d 608      35.609  27.950  -9.637  0.00  0.00     0.212 HD
ATOM     81  H   ASG d 608      33.474  27.339  -8.945  0.00  0.00     0.084 H 
ATOM     82  O6B GCD d 611      22.016  18.334  -3.279  0.00  0.00    -0.642 OA
ATOM     83  C6  GCD d 611      21.552  19.024  -2.288  0.00  0.00     0.233 C 
ATOM     84  C5  GCD d 611      22.527  19.427  -1.211  0.00  0.00     0.147 C 
ATOM     85  C2  GCD d 611      24.358  20.883   0.635  0.00  0.00     0.111 C 
ATOM     86  O6A GCD d 611      20.375  19.514  -2.079  0.00  0.00    -0.642 OA
ATOM     87  C4  GCD d 611      23.028  18.661  -0.208  0.00  0.00    -0.034 C 
ATOM     88  C1  GCD d 611      24.393  21.123  -0.841  0.00  0.00     0.165 C 
ATOM     89  O3  GCD d 611      23.900  19.170   2.201  0.00  0.00    -0.389 OA
ATOM     90  O5  GCD d 611      22.984  20.828  -1.307  0.00  0.00    -0.311 OA
ATOM     91  O2  GCD d 611      25.669  21.143   1.217  0.00  0.00    -0.388 OA
ATOM     92  C3  GCD d 611      24.039  19.347   0.784  0.00  0.00     0.084 C 
ATOM     93  H   GCD d 611      23.643  21.513   1.123  0.00  0.00     0.095 H 
ATOM     94  H   GCD d 611      22.758  17.671  -0.101  0.00  0.00     0.085 H 
ATOM     95  H   GCD d 611      25.166  20.540  -1.296  0.00  0.00     0.134 H 
ATOM     96  H   GCD d 611      24.602  19.658   2.659  0.00  0.00     0.210 HD
ATOM     97  H   GCD d 611      26.331  20.580   0.787  0.00  0.00     0.210 HD
ATOM     98  H   GCD d 611      24.829  18.736   0.399  0.00  0.00     0.093 H 
ENDROOT
TORSDOF 25
ENDMDL
MODEL 25
REMARK VINA RESULT:      -7.6      2.693      3.535
REMARK  0 active torsions:
REMARK  status: ('A' for Active; 'I' for Inactive)
REMARK       I    between atoms: O3_1  and  C3_6 
REMARK       I    between atoms: O3_3  and  C3_16 
REMARK       I    between atoms: O3_3  and  C1_32 
REMARK       I    between atoms: C8_5  and  C7_53 
REMARK       I    between atoms: C6_7  and  C5_47 
REMARK       I    between atoms: C6_7  and  O6_29 
REMARK       I    between atoms: O4_8  and  C4_45 
REMARK       I    between atoms: O4_8  and  C1_39 
REMARK       I    between atoms: N_10  and  C2_35 
REMARK       I    between atoms: N_10  and  C7_17 
REMARK       I    between atoms: C5_12  and  C6_42 
REMARK       I    between atoms: C1_14  and  O3_57 
REMARK       I    between atoms: C6_15  and  C5_20 
REMARK       I    between atoms: C7_17  and  C8_54 
REMARK       I    between atoms: O6_18  and  C6_42 
REMARK       I    between atoms: S_19  and  O4_46 
REMARK       I    between atoms: C4_22  and  O4_50 
REMARK       I    between atoms: C2_23  and  O2_51 
REMARK       I    between atoms: S_26  and  O4_50 
REMARK       I    between atoms: N_27  and  C2_56 
REMARK       I    between atoms: N_27  and  C7_53 
REMARK       I    between atoms: C5_31  and  C6_55 
REMARK       I    between atoms: C1_33  and  O1_48 
REMARK       I    between atoms: C4_34  and  O4_46 
REMARK       I    between atoms: C3_40  and  O3_57 
REMARK       I    between atoms: C2_41  and  O2_60 
REMARK       I    between atoms: O3_43  and  C3_52 
ROOT
ATOM      1  O3  BDP d 609      29.549  21.560  -5.511  0.00  0.00    -0.390 OA
ATOM      2  C3  BDP d 609      29.583  21.977  -4.152  0.00  0.00     0.092 C 
ATOM      3  O4  BDP d 609      30.944  23.862  -4.692  0.00  0.00    -0.348 OA
ATOM      4  C1  BDP d 609      28.248  22.131  -2.035  0.00  0.00     0.160 C 
ATOM      5  C5  BDP d 609      29.611  23.995  -2.678  0.00  0.00     0.152 C 
ATOM      6  O5  BDP d 609      28.368  23.568  -2.091  0.00  0.00    -0.340 OA
ATOM      7  O6B BDP d 609      28.751  26.159  -3.153  0.00  0.00    -0.646 OA
ATOM      8  C2  BDP d 609      28.313  21.527  -3.445  0.00  0.00     0.110 C 
ATOM      9  C4  BDP d 609      29.693  23.489  -4.113  0.00  0.00     0.103 C 
ATOM     10  C6  BDP d 609      29.654  25.509  -2.585  0.00  0.00     0.206 C 
ATOM     11  O6A BDP d 609      30.617  26.007  -1.962  0.00  0.00    -0.646 OA
ATOM     12  O2  BDP d 609      28.303  20.110  -3.347  0.00  0.00    -0.388 OA
ATOM     13  H   BDP d 609      29.480  20.593  -5.551  0.00  0.00     0.210 HD
ATOM     14  H   BDP d 609      30.424  21.540  -3.655  0.00  0.00     0.091 H 
ATOM     15  H   BDP d 609      29.055  21.731  -1.457  0.00  0.00     0.133 H 
ATOM     16  H   BDP d 609      30.460  23.595  -2.164  0.00  0.00     0.104 H 
ATOM     17  H   BDP d 609      27.466  21.860  -4.008  0.00  0.00     0.094 H 
ATOM     18  H   BDP d 609      28.884  23.923  -4.663  0.00  0.00     0.092 H 
ATOM     19  H   BDP d 609      29.073  19.816  -2.836  0.00  0.00     0.210 HD
ATOM     20  O7  ASG d 610      34.625  24.467  -4.740  0.00  0.00    -0.274 OA
ATOM     21  O3  ASG d 610      33.651  26.683  -7.456  0.00  0.00    -0.348 OA
ATOM     22  OSB ASG d 610      33.693  25.689 -10.481  0.00  0.00    -0.572 OA
ATOM     23  OSA ASG d 610      31.793  24.390 -11.192  0.00  0.00    -0.572 OA
ATOM     24  N   ASG d 610      32.905  25.924  -4.798  0.00  0.00    -0.349 N 
ATOM     25  C5  ASG d 610      30.170  25.290  -7.891  0.00  0.00     0.090 C 
ATOM     26  C3  ASG d 610      32.304  26.285  -7.130  0.00  0.00     0.094 C 
ATOM     27  C7  ASG d 610      33.997  25.406  -4.243  0.00  0.00     0.214 C 
ATOM     28  O6  ASG d 610      27.951  24.582  -8.572  0.00  0.00    -0.398 OA
ATOM     29  O5  ASG d 610      30.244  24.330  -6.818  0.00  0.00    -0.349 OA
ATOM     30  C4  ASG d 610      31.590  25.651  -8.338  0.00  0.00     0.114 C 
ATOM     31  S   ASG d 610      32.916  24.456 -10.244  0.00  0.00     0.252 S 
ATOM     32  C2  ASG d 610      32.320  25.300  -5.969  0.00  0.00     0.087 C 
ATOM     33  C1  ASG d 610      30.897  24.858  -5.648  0.00  0.00     0.154 C 
ATOM     34  C6  ASG d 610      29.309  24.684  -8.982  0.00  0.00     0.043 C 
ATOM     35  OSC ASG d 610      33.766  23.262 -10.422  0.00  0.00    -0.572 OA
ATOM     36  O4  ASG d 610      32.282  24.457  -8.767  0.00  0.00    -0.246 OA
ATOM     37  C8  ASG d 610      34.468  26.031  -2.935  0.00  0.00    -0.003 C 
ATOM     38  H   ASG d 610      32.494  26.731  -4.413  0.00  0.00     0.163 HD
ATOM     39  H   ASG d 610      29.715  26.212  -7.593  0.00  0.00     0.090 H 
ATOM     40  H   ASG d 610      31.763  27.164  -6.851  0.00  0.00     0.091 H 
ATOM     41  H   ASG d 610      27.426  24.192  -9.287  0.00  0.00     0.209 HD
ATOM     42  H   ASG d 610      31.574  26.335  -9.161  0.00  0.00     0.093 H 
ATOM     43  H   ASG d 610      32.905  24.448  -6.247  0.00  0.00     0.084 H 
ATOM     44  H   ASG d 610      30.349  25.706  -5.295  0.00  0.00     0.132 H 
ATOM     45  H   ASG d 610      29.676  23.707  -9.215  0.00  0.00     0.078 H 
ATOM     46  H   ASG d 610      29.355  25.320  -9.841  0.00  0.00     0.078 H 
ATOM     47  H   ASG d 610      35.349  25.527  -2.596  0.00  0.00     0.040 H 
ATOM     48  H   ASG d 610      33.699  25.939  -2.198  0.00  0.00     0.040 H 
ATOM     49  H   ASG d 610      34.688  27.066  -3.093  0.00  0.00     0.040 H 
ATOM     50  C8  ASG d 608      27.014  17.417  -1.298  0.00  0.00    -0.003 C 
ATOM     51  C6  ASG d 608      25.723  24.385   2.583  0.00  0.00     0.043 C 
ATOM     52  O7  ASG d 608      25.230  18.978  -1.523  0.00  0.00    -0.274 OA
ATOM     53  S   ASG d 608      24.711  24.377  -1.115  0.00  0.00     0.252 S 
ATOM     54  OSC ASG d 608      24.622  23.770  -2.458  0.00  0.00    -0.572 OA
ATOM     55  N   ASG d 608      26.750  19.405   0.092  0.00  0.00    -0.349 N 
ATOM     56  O6  ASG d 608      26.579  25.517   2.448  0.00  0.00    -0.398 OA
ATOM     57  O5  ASG d 608      25.533  22.013   2.451  0.00  0.00    -0.349 OA
ATOM     58  C1  ASG d 608      26.010  20.724   2.016  0.00  0.00     0.151 C 
ATOM     59  C4  ASG d 608      26.403  23.126   0.478  0.00  0.00     0.114 C 
ATOM     60  OSB ASG d 608      25.833  25.332  -1.152  0.00  0.00    -0.572 OA
ATOM     61  C3  ASG d 608      26.983  21.820  -0.021  0.00  0.00     0.094 C 
ATOM     62  O4  ASG d 608      25.050  23.325   0.033  0.00  0.00    -0.246 OA
ATOM     63  C5  ASG d 608      26.358  23.114   2.007  0.00  0.00     0.090 C 
ATOM     64  O1  ASG d 608      25.099  19.770   2.436  0.00  0.00    -0.369 OA
ATOM     65  C7  ASG d 608      26.257  18.682  -0.914  0.00  0.00     0.214 C 
ATOM     66  C2  ASG d 608      26.129  20.661   0.480  0.00  0.00     0.087 C 
ATOM     67  O3  ASG d 608      27.031  21.816  -1.461  0.00  0.00    -0.348 OA
ATOM     68  OSA ASG d 608      23.485  25.067  -0.665  0.00  0.00    -0.572 OA
ATOM     69  H   ASG d 608      26.515  16.936  -2.112  0.00  0.00     0.040 H 
ATOM     70  H   ASG d 608      27.049  16.754  -0.459  0.00  0.00     0.040 H 
ATOM     71  H   ASG d 608      28.010  17.673  -1.591  0.00  0.00     0.040 H 
ATOM     72  H   ASG d 608      25.519  24.229   3.622  0.00  0.00     0.078 H 
ATOM     73  H   ASG d 608      24.824  24.583   2.037  0.00  0.00     0.078 H 
ATOM     74  H   ASG d 608      27.544  19.084   0.577  0.00  0.00     0.163 HD
ATOM     75  H   ASG d 608      27.402  25.360   2.936  0.00  0.00     0.209 HD
ATOM     76  H   ASG d 608      26.980  20.550   2.432  0.00  0.00     0.132 H 
ATOM     77  H   ASG d 608      27.029  23.905   0.094  0.00  0.00     0.093 H 
ATOM     78  H   ASG d 608      27.980  21.711   0.352  0.00  0.00     0.091 H 
ATOM     79  H   ASG d 608      27.371  23.034   2.341  0.00  0.00     0.090 H 
ATOM     80  H   ASG d 608      24.232  19.956   2.042  0.00  0.00     0.212 HD
ATOM     81  H   ASG d 608      25.152  20.729   0.051  0.00  0.00     0.084 H 
ATOM     82  O6B GCD d 611      31.496  30.742 -10.146  0.00  0.00    -0.642 OA
ATOM     83  C6  GCD d 611      32.600  30.161 -10.492  0.00  0.00     0.233 C 
ATOM     84  C5  GCD d 611      33.565  29.801  -9.392  0.00  0.00     0.147 C 
ATOM     85  C2  GCD d 611      35.267  28.414  -7.377  0.00  0.00     0.111 C 
ATOM     86  O6A GCD d 611      33.011  29.750 -11.646  0.00  0.00    -0.642 OA
ATOM     87  C4  GCD d 611      34.417  30.622  -8.726  0.00  0.00    -0.034 C 
ATOM     88  C1  GCD d 611      33.828  28.050  -7.558  0.00  0.00     0.165 C 
ATOM     89  O3  GCD d 611      36.721  30.273  -7.544  0.00  0.00    -0.389 OA
ATOM     90  O5  GCD d 611      33.534  28.375  -9.006  0.00  0.00    -0.311 OA
ATOM     91  O2  GCD d 611      35.686  28.138  -6.008  0.00  0.00    -0.388 OA
ATOM     92  C3  GCD d 611      35.320  29.971  -7.612  0.00  0.00     0.084 C 
ATOM     93  H   GCD d 611      35.903  27.864  -8.039  0.00  0.00     0.095 H 
ATOM     94  H   GCD d 611      34.471  31.630  -8.940  0.00  0.00     0.085 H 
ATOM     95  H   GCD d 611      33.221  28.553  -6.835  0.00  0.00     0.134 H 
ATOM     96  H   GCD d 611      37.121  29.790  -6.804  0.00  0.00     0.210 HD
ATOM     97  H   GCD d 611      35.120  28.628  -5.392  0.00  0.00     0.210 HD
ATOM     98  H   GCD d 611      34.777  30.507  -6.862  0.00  0.00     0.093 H 
ENDROOT
TORSDOF 25
ENDMDL
MODEL 26
REMARK VINA RESULT:      -7.6      2.801      4.239
REMARK  0 active torsions:
REMARK  status: ('A' for Active; 'I' for Inactive)
REMARK       I    between atoms: O3_1  and  C3_6 
REMARK       I    between atoms: O3_3  and  C3_16 
REMARK       I    between atoms: O3_3  and  C1_32 
REMARK       I    between atoms: C8_5  and  C7_53 
REMARK       I    between atoms: C6_7  and  C5_47 
REMARK       I    between atoms: C6_7  and  O6_29 
REMARK       I    between atoms: O4_8  and  C4_45 
REMARK       I    between atoms: O4_8  and  C1_39 
REMARK       I    between atoms: N_10  and  C2_35 
REMARK       I    between atoms: N_10  and  C7_17 
REMARK       I    between atoms: C5_12  and  C6_42 
REMARK       I    between atoms: C1_14  and  O3_57 
REMARK       I    between atoms: C6_15  and  C5_20 
REMARK       I    between atoms: C7_17  and  C8_54 
REMARK       I    between atoms: O6_18  and  C6_42 
REMARK       I    between atoms: S_19  and  O4_46 
REMARK       I    between atoms: C4_22  and  O4_50 
REMARK       I    between atoms: C2_23  and  O2_51 
REMARK       I    between atoms: S_26  and  O4_50 
REMARK       I    between atoms: N_27  and  C2_56 
REMARK       I    between atoms: N_27  and  C7_53 
REMARK       I    between atoms: C5_31  and  C6_55 
REMARK       I    between atoms: C1_33  and  O1_48 
REMARK       I    between atoms: C4_34  and  O4_46 
REMARK       I    between atoms: C3_40  and  O3_57 
REMARK       I    between atoms: C2_41  and  O2_60 
REMARK       I    between atoms: O3_43  and  C3_52 
ROOT
ATOM      1  O3  BDP d 609      26.906  27.050  -5.633  0.00  0.00    -0.390 OA
ATOM      2  C3  BDP d 609      26.604  25.688  -5.361  0.00  0.00     0.092 C 
ATOM      3  O4  BDP d 609      28.799  25.001  -6.000  0.00  0.00    -0.348 OA
ATOM      4  C1  BDP d 609      25.351  24.146  -3.832  0.00  0.00     0.160 C 
ATOM      5  C5  BDP d 609      27.578  23.557  -4.492  0.00  0.00     0.152 C 
ATOM      6  O5  BDP d 609      26.606  23.561  -3.430  0.00  0.00    -0.340 OA
ATOM      7  O6B BDP d 609      29.382  23.294  -2.967  0.00  0.00    -0.646 OA
ATOM      8  C2  BDP d 609      25.548  25.604  -4.268  0.00  0.00     0.110 C 
ATOM      9  C4  BDP d 609      27.874  24.992  -4.911  0.00  0.00     0.103 C 
ATOM     10  C6  BDP d 609      28.806  22.831  -3.973  0.00  0.00     0.206 C 
ATOM     11  O6A BDP d 609      29.176  21.823  -4.614  0.00  0.00    -0.646 OA
ATOM     12  O2  BDP d 609      24.317  26.115  -4.761  0.00  0.00    -0.388 OA
ATOM     13  H   BDP d 609      26.101  27.509  -5.923  0.00  0.00     0.210 HD
ATOM     14  H   BDP d 609      26.224  25.214  -6.241  0.00  0.00     0.091 H 
ATOM     15  H   BDP d 609      24.953  23.595  -4.658  0.00  0.00     0.133 H 
ATOM     16  H   BDP d 609      27.222  23.051  -5.364  0.00  0.00     0.104 H 
ATOM     17  H   BDP d 609      25.872  26.181  -3.428  0.00  0.00     0.094 H 
ATOM     18  H   BDP d 609      28.287  25.504  -4.068  0.00  0.00     0.092 H 
ATOM     19  H   BDP d 609      24.030  25.587  -5.523  0.00  0.00     0.210 HD
ATOM     20  O7  ASG d 610      30.307  23.800  -9.193  0.00  0.00    -0.274 OA
ATOM     21  O3  ASG d 610      33.210  25.490  -7.795  0.00  0.00    -0.348 OA
ATOM     22  OSB ASG d 610      33.860  28.519  -8.534  0.00  0.00    -0.572 OA
ATOM     23  OSA ASG d 610      32.616  30.191  -7.325  0.00  0.00    -0.572 OA
ATOM     24  N   ASG d 610      31.091  23.703  -7.081  0.00  0.00    -0.349 N 
ATOM     25  C5  ASG d 610      31.332  27.386  -5.126  0.00  0.00     0.090 C 
ATOM     26  C3  ASG d 610      32.362  25.736  -6.656  0.00  0.00     0.094 C 
ATOM     27  C7  ASG d 610      30.682  23.145  -8.216  0.00  0.00     0.214 C 
ATOM     28  O6  ASG d 610      30.481  28.870  -3.405  0.00  0.00    -0.398 OA
ATOM     29  O5  ASG d 610      30.032  26.838  -5.422  0.00  0.00    -0.349 OA
ATOM     30  C4  ASG d 610      32.229  27.242  -6.360  0.00  0.00     0.114 C 
ATOM     31  S   ASG d 610      32.510  29.039  -8.234  0.00  0.00     0.252 S 
ATOM     32  C2  ASG d 610      30.983  25.137  -6.897  0.00  0.00     0.087 C 
ATOM     33  C1  ASG d 610      30.079  25.426  -5.703  0.00  0.00     0.154 C 
ATOM     34  C6  ASG d 610      31.127  28.818  -4.671  0.00  0.00     0.043 C 
ATOM     35  OSC ASG d 610      31.828  29.465  -9.472  0.00  0.00    -0.572 OA
ATOM     36  O4  ASG d 610      31.627  27.928  -7.481  0.00  0.00    -0.246 OA
ATOM     37  C8  ASG d 610      30.694  21.622  -8.280  0.00  0.00    -0.003 C 
ATOM     38  H   ASG d 610      31.468  23.142  -6.365  0.00  0.00     0.163 HD
ATOM     39  H   ASG d 610      31.835  26.865  -4.338  0.00  0.00     0.090 H 
ATOM     40  H   ASG d 610      32.815  25.271  -5.806  0.00  0.00     0.091 H 
ATOM     41  H   ASG d 610      30.363  29.795  -3.140  0.00  0.00     0.209 HD
ATOM     42  H   ASG d 610      33.193  27.673  -6.190  0.00  0.00     0.093 H 
ATOM     43  H   ASG d 610      30.564  25.577  -7.778  0.00  0.00     0.084 H 
ATOM     44  H   ASG d 610      30.469  24.912  -4.850  0.00  0.00     0.132 H 
ATOM     45  H   ASG d 610      30.523  29.330  -5.391  0.00  0.00     0.078 H 
ATOM     46  H   ASG d 610      32.085  29.285  -4.580  0.00  0.00     0.078 H 
ATOM     47  H   ASG d 610      30.345  21.301  -9.239  0.00  0.00     0.040 H 
ATOM     48  H   ASG d 610      30.056  21.228  -7.518  0.00  0.00     0.040 H 
ATOM     49  H   ASG d 610      31.692  21.267  -8.127  0.00  0.00     0.040 H 
ATOM     50  C8  ASG d 608      20.737  25.811  -4.312  0.00  0.00    -0.003 C 
ATOM     51  C6  ASG d 608      24.317  19.874  -0.161  0.00  0.00     0.043 C 
ATOM     52  O7  ASG d 608      21.670  25.833  -2.121  0.00  0.00    -0.274 OA
ATOM     53  S   ASG d 608      25.832  23.359   0.357  0.00  0.00     0.252 S 
ATOM     54  OSC ASG d 608      25.954  24.802   0.070  0.00  0.00    -0.572 OA
ATOM     55  N   ASG d 608      21.649  23.845  -3.193  0.00  0.00    -0.349 N 
ATOM     56  O6  ASG d 608      25.553  19.288  -0.559  0.00  0.00    -0.398 OA
ATOM     57  O5  ASG d 608      22.354  21.033  -0.858  0.00  0.00    -0.349 OA
ATOM     58  C1  ASG d 608      21.618  21.822  -1.814  0.00  0.00     0.151 C 
ATOM     59  C4  ASG d 608      24.469  22.046  -1.483  0.00  0.00     0.114 C 
ATOM     60  OSB ASG d 608      26.945  22.689  -0.339  0.00  0.00    -0.572 OA
ATOM     61  C3  ASG d 608      23.778  22.869  -2.547  0.00  0.00     0.094 C 
ATOM     62  O4  ASG d 608      24.490  22.712  -0.208  0.00  0.00    -0.246 OA
ATOM     63  C5  ASG d 608      23.707  20.736  -1.273  0.00  0.00     0.090 C 
ATOM     64  O1  ASG d 608      20.377  22.103  -1.268  0.00  0.00    -0.369 OA
ATOM     65  C7  ASG d 608      21.403  25.152  -3.110  0.00  0.00     0.214 C 
ATOM     66  C2  ASG d 608      22.342  23.149  -2.120  0.00  0.00     0.087 C 
ATOM     67  O3  ASG d 608      24.485  24.107  -2.755  0.00  0.00    -0.348 OA
ATOM     68  OSA ASG d 608      25.863  23.009   1.792  0.00  0.00    -0.572 OA
ATOM     69  H   ASG d 608      20.598  26.853  -4.116  0.00  0.00     0.040 H 
ATOM     70  H   ASG d 608      19.787  25.351  -4.490  0.00  0.00     0.040 H 
ATOM     71  H   ASG d 608      21.358  25.691  -5.174  0.00  0.00     0.040 H 
ATOM     72  H   ASG d 608      23.629  19.094   0.088  0.00  0.00     0.078 H 
ATOM     73  H   ASG d 608      24.507  20.507   0.681  0.00  0.00     0.078 H 
ATOM     74  H   ASG d 608      21.359  23.345  -3.989  0.00  0.00     0.163 HD
ATOM     75  H   ASG d 608      25.406  18.709  -1.322  0.00  0.00     0.209 HD
ATOM     76  H   ASG d 608      21.530  21.274  -2.728  0.00  0.00     0.132 H 
ATOM     77  H   ASG d 608      25.471  21.884  -1.823  0.00  0.00     0.093 H 
ATOM     78  H   ASG d 608      23.772  22.323  -3.467  0.00  0.00     0.091 H 
ATOM     79  H   ASG d 608      23.748  20.207  -2.202  0.00  0.00     0.090 H 
ATOM     80  H   ASG d 608      20.491  22.599  -0.444  0.00  0.00     0.212 HD
ATOM     81  H   ASG d 608      22.346  23.756  -1.239  0.00  0.00     0.084 H 
ATOM     82  O6B GCD d 611      37.321  26.704  -4.636  0.00  0.00    -0.642 OA
ATOM     83  C6  GCD d 611      37.299  26.951  -5.906  0.00  0.00     0.233 C 
ATOM     84  C5  GCD d 611      36.723  25.888  -6.806  0.00  0.00     0.147 C 
ATOM     85  C2  GCD d 611      35.045  24.263  -8.656  0.00  0.00     0.111 C 
ATOM     86  O6A GCD d 611      37.625  28.014  -6.564  0.00  0.00    -0.642 OA
ATOM     87  C4  GCD d 611      37.312  24.737  -7.223  0.00  0.00    -0.034 C 
ATOM     88  C1  GCD d 611      34.446  24.959  -7.476  0.00  0.00     0.165 C 
ATOM     89  O3  GCD d 611      37.063  23.239  -9.349  0.00  0.00    -0.389 OA
ATOM     90  O5  GCD d 611      35.340  26.159  -7.249  0.00  0.00    -0.311 OA
ATOM     91  O2  GCD d 611      34.263  23.078  -8.990  0.00  0.00    -0.388 OA
ATOM     92  C3  GCD d 611      36.471  23.801  -8.168  0.00  0.00     0.084 C 
ATOM     93  H   GCD d 611      35.077  24.897  -9.518  0.00  0.00     0.095 H 
ATOM     94  H   GCD d 611      38.269  24.487  -6.932  0.00  0.00     0.085 H 
ATOM     95  H   GCD d 611      34.353  24.284  -6.651  0.00  0.00     0.134 H 
ATOM     96  H   GCD d 611      36.408  22.692  -9.810  0.00  0.00     0.210 HD
ATOM     97  H   GCD d 611      34.223  22.490  -8.220  0.00  0.00     0.210 HD
ATOM     98  H   GCD d 611      36.409  23.071  -7.388  0.00  0.00     0.093 H 
ENDROOT
TORSDOF 25
ENDMDL
MODEL 27
REMARK VINA RESULT:      -7.5      2.754     11.748
REMARK  0 active torsions:
REMARK  status: ('A' for Active; 'I' for Inactive)
REMARK       I    between atoms: O3_1  and  C3_6 
REMARK       I    between atoms: O3_3  and  C3_16 
REMARK       I    between atoms: O3_3  and  C1_32 
REMARK       I    between atoms: C8_5  and  C7_53 
REMARK       I    between atoms: C6_7  and  C5_47 
REMARK       I    between atoms: C6_7  and  O6_29 
REMARK       I    between atoms: O4_8  and  C4_45 
REMARK       I    between atoms: O4_8  and  C1_39 
REMARK       I    between atoms: N_10  and  C2_35 
REMARK       I    between atoms: N_10  and  C7_17 
REMARK       I    between atoms: C5_12  and  C6_42 
REMARK       I    between atoms: C1_14  and  O3_57 
REMARK       I    between atoms: C6_15  and  C5_20 
REMARK       I    between atoms: C7_17  and  C8_54 
REMARK       I    between atoms: O6_18  and  C6_42 
REMARK       I    between atoms: S_19  and  O4_46 
REMARK       I    between atoms: C4_22  and  O4_50 
REMARK       I    between atoms: C2_23  and  O2_51 
REMARK       I    between atoms: S_26  and  O4_50 
REMARK       I    between atoms: N_27  and  C2_56 
REMARK       I    between atoms: N_27  and  C7_53 
REMARK       I    between atoms: C5_31  and  C6_55 
REMARK       I    between atoms: C1_33  and  O1_48 
REMARK       I    between atoms: C4_34  and  O4_46 
REMARK       I    between atoms: C3_40  and  O3_57 
REMARK       I    between atoms: C2_41  and  O2_60 
REMARK       I    between atoms: O3_43  and  C3_52 
ROOT
ATOM      1  O3  BDP d 609      31.141  26.999  -1.906  0.00  0.00    -0.390 OA
ATOM      2  C3  BDP d 609      31.091  27.036  -3.327  0.00  0.00     0.092 C 
ATOM      3  O4  BDP d 609      29.794  25.033  -3.403  0.00  0.00    -0.348 OA
ATOM      4  C1  BDP d 609      30.929  28.549  -5.320  0.00  0.00     0.160 C 
ATOM      5  C5  BDP d 609      29.629  26.535  -5.292  0.00  0.00     0.152 C 
ATOM      6  O5  BDP d 609      29.674  27.925  -5.664  0.00  0.00    -0.340 OA
ATOM      7  O6B BDP d 609      27.255  26.494  -5.370  0.00  0.00    -0.646 OA
ATOM      8  C2  BDP d 609      31.172  28.478  -3.806  0.00  0.00     0.110 C 
ATOM      9  C4  BDP d 609      29.786  26.411  -3.781  0.00  0.00     0.103 C 
ATOM     10  C6  BDP d 609      28.309  25.979  -5.794  0.00  0.00     0.206 C 
ATOM     11  O6A BDP d 609      28.372  25.014  -6.587  0.00  0.00    -0.646 OA
ATOM     12  O2  BDP d 609      32.461  29.000  -3.516  0.00  0.00    -0.388 OA
ATOM     13  H   BDP d 609      31.972  27.396  -1.601  0.00  0.00     0.210 HD
ATOM     14  H   BDP d 609      31.915  26.492  -3.737  0.00  0.00     0.091 H 
ATOM     15  H   BDP d 609      31.726  28.036  -5.816  0.00  0.00     0.133 H 
ATOM     16  H   BDP d 609      30.428  25.973  -5.729  0.00  0.00     0.104 H 
ATOM     17  H   BDP d 609      30.424  29.054  -3.303  0.00  0.00     0.094 H 
ATOM     18  H   BDP d 609      28.964  26.917  -3.321  0.00  0.00     0.092 H 
ATOM     19  H   BDP d 609      33.134  28.473  -3.975  0.00  0.00     0.210 HD
ATOM     20  O7  ASG d 610      30.640  21.416  -3.747  0.00  0.00    -0.274 OA
ATOM     21  O3  ASG d 610      27.663  21.108  -1.679  0.00  0.00    -0.348 OA
ATOM     22  OSB ASG d 610      27.878  20.939   1.493  0.00  0.00    -0.572 OA
ATOM     23  OSA ASG d 610      28.158  23.037   2.646  0.00  0.00    -0.572 OA
ATOM     24  N   ASG d 610      28.668  22.483  -3.980  0.00  0.00    -0.349 N 
ATOM     25  C5  ASG d 610      27.489  24.741  -0.670  0.00  0.00     0.090 C 
ATOM     26  C3  ASG d 610      27.583  22.542  -1.802  0.00  0.00     0.094 C 
ATOM     27  C7  ASG d 610      29.674  21.745  -4.440  0.00  0.00     0.214 C 
ATOM     28  O6  ASG d 610      27.125  26.929   0.312  0.00  0.00    -0.398 OA
ATOM     29  O5  ASG d 610      28.623  25.179  -1.444  0.00  0.00    -0.349 OA
ATOM     30  C4  ASG d 610      27.603  23.233  -0.425  0.00  0.00     0.114 C 
ATOM     31  S   ASG d 610      28.743  22.127   1.649  0.00  0.00     0.252 S 
ATOM     32  C2  ASG d 610      28.737  23.056  -2.650  0.00  0.00     0.087 C 
ATOM     33  C1  ASG d 610      28.666  24.576  -2.752  0.00  0.00     0.154 C 
ATOM     34  C6  ASG d 610      27.456  25.576   0.596  0.00  0.00     0.043 C 
ATOM     35  OSC ASG d 610      30.095  21.734   2.091  0.00  0.00    -0.572 OA
ATOM     36  O4  ASG d 610      28.838  22.945   0.268  0.00  0.00    -0.246 OA
ATOM     37  C8  ASG d 610      29.592  21.297  -5.895  0.00  0.00    -0.003 C 
ATOM     38  H   ASG d 610      27.876  22.640  -4.543  0.00  0.00     0.163 HD
ATOM     39  H   ASG d 610      26.558  24.884  -1.178  0.00  0.00     0.090 H 
ATOM     40  H   ASG d 610      26.653  22.776  -2.275  0.00  0.00     0.091 H 
ATOM     41  H   ASG d 610      27.111  27.438   1.138  0.00  0.00     0.209 HD
ATOM     42  H   ASG d 610      26.796  22.878   0.181  0.00  0.00     0.093 H 
ATOM     43  H   ASG d 610      29.659  22.771  -2.189  0.00  0.00     0.084 H 
ATOM     44  H   ASG d 610      27.778  24.839  -3.287  0.00  0.00     0.132 H 
ATOM     45  H   ASG d 610      28.418  25.543   1.061  0.00  0.00     0.078 H 
ATOM     46  H   ASG d 610      26.707  25.174   1.245  0.00  0.00     0.078 H 
ATOM     47  H   ASG d 610      30.455  20.714  -6.139  0.00  0.00     0.040 H 
ATOM     48  H   ASG d 610      29.550  22.156  -6.531  0.00  0.00     0.040 H 
ATOM     49  H   ASG d 610      28.712  20.706  -6.037  0.00  0.00     0.040 H 
ATOM     50  C8  ASG d 608      34.854  31.459  -4.675  0.00  0.00    -0.003 C 
ATOM     51  C6  ASG d 608      29.005  30.818 -10.213  0.00  0.00     0.043 C 
ATOM     52  O7  ASG d 608      32.725  32.522  -4.772  0.00  0.00    -0.274 OA
ATOM     53  S   ASG d 608      27.782  31.170  -6.595  0.00  0.00     0.252 S 
ATOM     54  OSC ASG d 608      27.985  31.253  -5.135  0.00  0.00    -0.572 OA
ATOM     55  N   ASG d 608      33.289  31.224  -6.532  0.00  0.00    -0.349 N 
ATOM     56  O6  ASG d 608      28.285  29.610 -10.442  0.00  0.00    -0.398 OA
ATOM     57  O5  ASG d 608      31.029  31.806  -9.431  0.00  0.00    -0.349 OA
ATOM     58  C1  ASG d 608      32.265  31.749  -8.693  0.00  0.00     0.151 C 
ATOM     59  C4  ASG d 608      29.911  30.299  -7.890  0.00  0.00     0.114 C 
ATOM     60  OSB ASG d 608      27.344  29.794  -6.888  0.00  0.00    -0.572 OA
ATOM     61  C3  ASG d 608      31.187  30.144  -7.093  0.00  0.00     0.094 C 
ATOM     62  O4  ASG d 608      29.116  31.408  -7.434  0.00  0.00    -0.246 OA
ATOM     63  C5  ASG d 608      30.254  30.587  -9.353  0.00  0.00     0.090 C 
ATOM     64  O1  ASG d 608      32.870  32.991  -8.782  0.00  0.00    -0.369 OA
ATOM     65  C7  ASG d 608      33.520  31.774  -5.340  0.00  0.00     0.214 C 
ATOM     66  C2  ASG d 608      32.016  31.418  -7.208  0.00  0.00     0.087 C 
ATOM     67  O3  ASG d 608      30.880  29.873  -5.712  0.00  0.00    -0.348 OA
ATOM     68  OSA ASG d 608      26.800  32.131  -7.140  0.00  0.00    -0.572 OA
ATOM     69  H   ASG d 608      34.909  31.959  -3.731  0.00  0.00     0.040 H 
ATOM     70  H   ASG d 608      35.653  31.792  -5.304  0.00  0.00     0.040 H 
ATOM     71  H   ASG d 608      34.936  30.403  -4.524  0.00  0.00     0.040 H 
ATOM     72  H   ASG d 608      29.305  31.226 -11.155  0.00  0.00     0.078 H 
ATOM     73  H   ASG d 608      28.361  31.492  -9.687  0.00  0.00     0.078 H 
ATOM     74  H   ASG d 608      33.990  30.681  -6.960  0.00  0.00     0.163 HD
ATOM     75  H   ASG d 608      28.850  28.982 -10.919  0.00  0.00     0.209 HD
ATOM     76  H   ASG d 608      32.886  30.981  -9.105  0.00  0.00     0.132 H 
ATOM     77  H   ASG d 608      29.363  29.388  -7.771  0.00  0.00     0.093 H 
ATOM     78  H   ASG d 608      31.749  29.321  -7.483  0.00  0.00     0.091 H 
ATOM     79  H   ASG d 608      30.787  29.733  -9.715  0.00  0.00     0.090 H 
ATOM     80  H   ASG d 608      32.285  33.663  -8.401  0.00  0.00     0.212 HD
ATOM     81  H   ASG d 608      31.486  32.228  -6.754  0.00  0.00     0.084 H 
ATOM     82  O6B GCD d 611      22.592  21.246  -0.062  0.00  0.00    -0.642 OA
ATOM     83  C6  GCD d 611      23.452  20.377   0.360  0.00  0.00     0.233 C 
ATOM     84  C5  GCD d 611      24.394  19.786  -0.659  0.00  0.00     0.147 C 
ATOM     85  C2  GCD d 611      26.744  19.021  -2.323  0.00  0.00     0.111 C 
ATOM     86  O6A GCD d 611      23.713  19.960   1.554  0.00  0.00    -0.642 OA
ATOM     87  C4  GCD d 611      24.134  18.817  -1.574  0.00  0.00    -0.034 C 
ATOM     88  C1  GCD d 611      26.482  20.448  -1.962  0.00  0.00     0.165 C 
ATOM     89  O3  GCD d 611      25.592  17.000  -2.755  0.00  0.00    -0.389 OA
ATOM     90  O5  GCD d 611      25.748  20.377  -0.641  0.00  0.00    -0.311 OA
ATOM     91  O2  GCD d 611      27.464  18.948  -3.589  0.00  0.00    -0.388 OA
ATOM     92  C3  GCD d 611      25.314  18.388  -2.523  0.00  0.00     0.084 C 
ATOM     93  H   GCD d 611      27.327  18.523  -1.577  0.00  0.00     0.095 H 
ATOM     94  H   GCD d 611      23.202  18.380  -1.645  0.00  0.00     0.085 H 
ATOM     95  H   GCD d 611      25.965  20.946  -2.756  0.00  0.00     0.134 H 
ATOM     96  H   GCD d 611      26.346  16.918  -3.360  0.00  0.00     0.210 HD
ATOM     97  H   GCD d 611      26.950  19.395  -4.279  0.00  0.00     0.210 HD
ATOM     98  H   GCD d 611      24.799  18.820  -3.355  0.00  0.00     0.093 H 
ENDROOT
TORSDOF 25
ENDMDL
MODEL 28
REMARK VINA RESULT:      -7.5      3.004      4.095
REMARK  0 active torsions:
REMARK  status: ('A' for Active; 'I' for Inactive)
REMARK       I    between atoms: O3_1  and  C3_6 
REMARK       I    between atoms: O3_3  and  C3_16 
REMARK       I    between atoms: O3_3  and  C1_32 
REMARK       I    between atoms: C8_5  and  C7_53 
REMARK       I    between atoms: C6_7  and  C5_47 
REMARK       I    between atoms: C6_7  and  O6_29 
REMARK       I    between atoms: O4_8  and  C4_45 
REMARK       I    between atoms: O4_8  and  C1_39 
REMARK       I    between atoms: N_10  and  C2_35 
REMARK       I    between atoms: N_10  and  C7_17 
REMARK       I    between atoms: C5_12  and  C6_42 
REMARK       I    between atoms: C1_14  and  O3_57 
REMARK       I    between atoms: C6_15  and  C5_20 
REMARK       I    between atoms: C7_17  and  C8_54 
REMARK       I    between atoms: O6_18  and  C6_42 
REMARK       I    between atoms: S_19  and  O4_46 
REMARK       I    between atoms: C4_22  and  O4_50 
REMARK       I    between atoms: C2_23  and  O2_51 
REMARK       I    between atoms: S_26  and  O4_50 
REMARK       I    between atoms: N_27  and  C2_56 
REMARK       I    between atoms: N_27  and  C7_53 
REMARK       I    between atoms: C5_31  and  C6_55 
REMARK       I    between atoms: C1_33  and  O1_48 
REMARK       I    between atoms: C4_34  and  O4_46 
REMARK       I    between atoms: C3_40  and  O3_57 
REMARK       I    between atoms: C2_41  and  O2_60 
REMARK       I    between atoms: O3_43  and  C3_52 
ROOT
ATOM      1  O3  BDP d 609      26.460  23.026  -6.618  0.00  0.00    -0.390 OA
ATOM      2  C3  BDP d 609      26.837  22.269  -5.475  0.00  0.00     0.092 C 
ATOM      3  O4  BDP d 609      29.139  22.331  -6.106  0.00  0.00    -0.348 OA
ATOM      4  C1  BDP d 609      26.354  21.870  -3.047  0.00  0.00     0.160 C 
ATOM      5  C5  BDP d 609      28.638  21.989  -3.764  0.00  0.00     0.152 C 
ATOM      6  O5  BDP d 609      27.690  22.314  -2.731  0.00  0.00    -0.340 OA
ATOM      7  O6B BDP d 609      30.181  23.623  -2.992  0.00  0.00    -0.646 OA
ATOM      8  C2  BDP d 609      25.855  22.528  -4.340  0.00  0.00     0.110 C 
ATOM      9  C4  BDP d 609      28.234  22.686  -5.058  0.00  0.00     0.103 C 
ATOM     10  C6  BDP d 609      30.007  22.418  -3.267  0.00  0.00     0.206 C 
ATOM     11  O6A BDP d 609      30.882  21.528  -3.194  0.00  0.00    -0.646 OA
ATOM     12  O2  BDP d 609      24.587  21.987  -4.681  0.00  0.00    -0.388 OA
ATOM     13  H   BDP d 609      25.567  22.769  -6.896  0.00  0.00     0.210 HD
ATOM     14  H   BDP d 609      26.825  21.225  -5.706  0.00  0.00     0.091 H 
ATOM     15  H   BDP d 609      26.359  20.809  -3.185  0.00  0.00     0.133 H 
ATOM     16  H   BDP d 609      28.662  20.941  -3.976  0.00  0.00     0.104 H 
ATOM     17  H   BDP d 609      25.773  23.584  -4.187  0.00  0.00     0.094 H 
ATOM     18  H   BDP d 609      28.260  23.742  -4.886  0.00  0.00     0.092 H 
ATOM     19  H   BDP d 609      24.670  21.030  -4.818  0.00  0.00     0.210 HD
ATOM     20  O7  ASG d 610      31.344  20.053  -8.069  0.00  0.00    -0.274 OA
ATOM     21  O3  ASG d 610      32.900  23.228  -8.929  0.00  0.00    -0.348 OA
ATOM     22  OSB ASG d 610      32.056  24.810 -11.560  0.00  0.00    -0.572 OA
ATOM     23  OSA ASG d 610      30.043  26.124 -11.403  0.00  0.00    -0.572 OA
ATOM     24  N   ASG d 610      31.865  21.764  -6.697  0.00  0.00    -0.349 N 
ATOM     25  C5  ASG d 610      30.085  25.411  -7.683  0.00  0.00     0.090 C 
ATOM     26  C3  ASG d 610      31.933  23.802  -8.027  0.00  0.00     0.094 C 
ATOM     27  C7  ASG d 610      31.894  20.483  -7.051  0.00  0.00     0.214 C 
ATOM     28  O6  ASG d 610      28.454  27.125  -7.144  0.00  0.00    -0.398 OA
ATOM     29  O5  ASG d 610      29.254  24.341  -7.191  0.00  0.00    -0.349 OA
ATOM     30  C4  ASG d 610      31.053  24.853  -8.731  0.00  0.00     0.114 C 
ATOM     31  S   ASG d 610      30.602  24.767 -11.301  0.00  0.00     0.252 S 
ATOM     32  C2  ASG d 610      31.053  22.706  -7.442  0.00  0.00     0.087 C 
ATOM     33  C1  ASG d 610      30.012  23.320  -6.513  0.00  0.00     0.154 C 
ATOM     34  C6  ASG d 610      29.163  26.497  -8.204  0.00  0.00     0.043 C 
ATOM     35  OSC ASG d 610      29.924  23.893 -12.278  0.00  0.00    -0.572 OA
ATOM     36  O4  ASG d 610      30.305  24.248  -9.809  0.00  0.00    -0.246 OA
ATOM     37  C8  ASG d 610      32.655  19.531  -6.135  0.00  0.00    -0.003 C 
ATOM     38  H   ASG d 610      32.396  22.073  -5.927  0.00  0.00     0.163 HD
ATOM     39  H   ASG d 610      30.698  25.845  -6.921  0.00  0.00     0.090 H 
ATOM     40  H   ASG d 610      32.470  24.292  -7.243  0.00  0.00     0.091 H 
ATOM     41  H   ASG d 610      27.874  27.813  -7.505  0.00  0.00     0.209 HD
ATOM     42  H   ASG d 610      31.661  25.628  -9.147  0.00  0.00     0.093 H 
ATOM     43  H   ASG d 610      30.561  22.194  -8.242  0.00  0.00     0.084 H 
ATOM     44  H   ASG d 610      30.518  23.758  -5.678  0.00  0.00     0.132 H 
ATOM     45  H   ASG d 610      28.460  26.061  -8.883  0.00  0.00     0.078 H 
ATOM     46  H   ASG d 610      29.757  27.237  -8.698  0.00  0.00     0.078 H 
ATOM     47  H   ASG d 610      32.602  18.538  -6.530  0.00  0.00     0.040 H 
ATOM     48  H   ASG d 610      32.219  19.550  -5.159  0.00  0.00     0.040 H 
ATOM     49  H   ASG d 610      33.678  19.836  -6.075  0.00  0.00     0.040 H 
ATOM     50  C8  ASG d 608      21.587  20.626  -3.178  0.00  0.00    -0.003 C 
ATOM     51  C6  ASG d 608      27.186  21.388   2.598  0.00  0.00     0.043 C 
ATOM     52  O7  ASG d 608      22.172  22.525  -1.865  0.00  0.00    -0.274 OA
ATOM     53  S   ASG d 608      26.748  24.462   0.348  0.00  0.00     0.252 S 
ATOM     54  OSC ASG d 608      26.177  25.182  -0.807  0.00  0.00    -0.572 OA
ATOM     55  N   ASG d 608      23.229  20.590  -1.374  0.00  0.00    -0.349 N 
ATOM     56  O6  ASG d 608      28.583  21.277   2.342  0.00  0.00    -0.398 OA
ATOM     57  O5  ASG d 608      24.985  20.792   1.902  0.00  0.00    -0.349 OA
ATOM     58  C1  ASG d 608      24.056  20.306   0.913  0.00  0.00     0.151 C 
ATOM     59  C4  ASG d 608      26.387  21.850   0.225  0.00  0.00     0.114 C 
ATOM     60  OSB ASG d 608      28.108  24.045  -0.037  0.00  0.00    -0.572 OA
ATOM     61  C3  ASG d 608      25.489  21.329  -0.876  0.00  0.00     0.094 C 
ATOM     62  O4  ASG d 608      25.955  23.130   0.719  0.00  0.00    -0.246 OA
ATOM     63  C5  ASG d 608      26.345  20.891   1.416  0.00  0.00     0.090 C 
ATOM     64  O1  ASG d 608      22.789  20.332   1.472  0.00  0.00    -0.369 OA
ATOM     65  C7  ASG d 608      22.369  21.329  -2.075  0.00  0.00     0.214 C 
ATOM     66  C2  ASG d 608      24.066  21.193  -0.348  0.00  0.00     0.087 C 
ATOM     67  O3  ASG d 608      25.518  22.223  -2.005  0.00  0.00    -0.348 OA
ATOM     68  OSA ASG d 608      26.805  25.246   1.599  0.00  0.00    -0.572 OA
ATOM     69  H   ASG d 608      20.938  21.328  -3.658  0.00  0.00     0.040 H 
ATOM     70  H   ASG d 608      21.005  19.834  -2.753  0.00  0.00     0.040 H 
ATOM     71  H   ASG d 608      22.269  20.222  -3.896  0.00  0.00     0.040 H 
ATOM     72  H   ASG d 608      26.946  20.804   3.462  0.00  0.00     0.078 H 
ATOM     73  H   ASG d 608      26.960  22.422   2.755  0.00  0.00     0.078 H 
ATOM     74  H   ASG d 608      23.299  19.625  -1.553  0.00  0.00     0.163 HD
ATOM     75  H   ASG d 608      28.812  20.346   2.197  0.00  0.00     0.209 HD
ATOM     76  H   ASG d 608      24.336  19.316   0.623  0.00  0.00     0.132 H 
ATOM     77  H   ASG d 608      27.367  21.936  -0.195  0.00  0.00     0.093 H 
ATOM     78  H   ASG d 608      25.840  20.370  -1.193  0.00  0.00     0.091 H 
ATOM     79  H   ASG d 608      26.730  19.955   1.069  0.00  0.00     0.090 H 
ATOM     80  H   ASG d 608      22.565  21.242   1.722  0.00  0.00     0.212 HD
ATOM     81  H   ASG d 608      23.686  22.162  -0.097  0.00  0.00     0.084 H 
ATOM     82  O6B GCD d 611      35.563  27.823  -8.546  0.00  0.00    -0.642 OA
ATOM     83  C6  GCD d 611      35.547  27.093  -9.614  0.00  0.00     0.233 C 
ATOM     84  C5  GCD d 611      35.655  25.600  -9.433  0.00  0.00     0.147 C 
ATOM     85  C2  GCD d 611      35.174  22.664  -9.279  0.00  0.00     0.111 C 
ATOM     86  O6A GCD d 611      35.375  27.415 -10.853  0.00  0.00    -0.642 OA
ATOM     87  C4  GCD d 611      36.768  24.869  -9.168  0.00  0.00    -0.034 C 
ATOM     88  C1  GCD d 611      34.199  23.640  -8.702  0.00  0.00     0.165 C 
ATOM     89  O3  GCD d 611      37.491  22.413  -9.687  0.00  0.00    -0.389 OA
ATOM     90  O5  GCD d 611      34.367  24.886  -9.544  0.00  0.00    -0.311 OA
ATOM     91  O2  GCD d 611      35.107  21.400  -8.555  0.00  0.00    -0.388 OA
ATOM     92  C3  GCD d 611      36.589  23.311  -9.026  0.00  0.00     0.084 C 
ATOM     93  H   GCD d 611      34.976  22.468 -10.313  0.00  0.00     0.095 H 
ATOM     94  H   GCD d 611      37.692  25.315  -9.062  0.00  0.00     0.085 H 
ATOM     95  H   GCD d 611      34.368  23.760  -7.652  0.00  0.00     0.134 H 
ATOM     96  H   GCD d 611      37.236  21.497  -9.494  0.00  0.00     0.210 HD
ATOM     97  H   GCD d 611      35.284  21.557  -7.614  0.00  0.00     0.210 HD
ATOM     98  H   GCD d 611      36.815  23.382  -7.983  0.00  0.00     0.093 H 
ENDROOT
TORSDOF 25
ENDMDL
MODEL 29
REMARK VINA RESULT:      -7.3      4.468     10.816
REMARK  0 active torsions:
REMARK  status: ('A' for Active; 'I' for Inactive)
REMARK       I    between atoms: O3_1  and  C3_6 
REMARK       I    between atoms: O3_3  and  C3_16 
REMARK       I    between atoms: O3_3  and  C1_32 
REMARK       I    between atoms: C8_5  and  C7_53 
REMARK       I    between atoms: C6_7  and  C5_47 
REMARK       I    between atoms: C6_7  and  O6_29 
REMARK       I    between atoms: O4_8  and  C4_45 
REMARK       I    between atoms: O4_8  and  C1_39 
REMARK       I    between atoms: N_10  and  C2_35 
REMARK       I    between atoms: N_10  and  C7_17 
REMARK       I    between atoms: C5_12  and  C6_42 
REMARK       I    between atoms: C1_14  and  O3_57 
REMARK       I    between atoms: C6_15  and  C5_20 
REMARK       I    between atoms: C7_17  and  C8_54 
REMARK       I    between atoms: O6_18  and  C6_42 
REMARK       I    between atoms: S_19  and  O4_46 
REMARK       I    between atoms: C4_22  and  O4_50 
REMARK       I    between atoms: C2_23  and  O2_51 
REMARK       I    between atoms: S_26  and  O4_50 
REMARK       I    between atoms: N_27  and  C2_56 
REMARK       I    between atoms: N_27  and  C7_53 
REMARK       I    between atoms: C5_31  and  C6_55 
REMARK       I    between atoms: C1_33  and  O1_48 
REMARK       I    between atoms: C4_34  and  O4_46 
REMARK       I    between atoms: C3_40  and  O3_57 
REMARK       I    between atoms: C2_41  and  O2_60 
REMARK       I    between atoms: O3_43  and  C3_52 
ROOT
ATOM      1  O3  BDP d 609      28.448  25.597  -1.732  0.00  0.00    -0.390 OA
ATOM      2  C3  BDP d 609      29.632  24.890  -2.078  0.00  0.00     0.092 C 
ATOM      3  O4  BDP d 609      28.380  23.228  -3.249  0.00  0.00    -0.348 OA
ATOM      4  C1  BDP d 609      32.039  25.145  -2.735  0.00  0.00     0.160 C 
ATOM      5  C5  BDP d 609      30.694  23.529  -3.886  0.00  0.00     0.152 C 
ATOM      6  O5  BDP d 609      31.738  24.514  -3.997  0.00  0.00    -0.340 OA
ATOM      7  O6B BDP d 609      30.248  23.603  -6.219  0.00  0.00    -0.646 OA
ATOM      8  C2  BDP d 609      30.800  25.861  -2.178  0.00  0.00     0.110 C 
ATOM      9  C4  BDP d 609      29.412  24.203  -3.412  0.00  0.00     0.103 C 
ATOM     10  C6  BDP d 609      30.547  22.877  -5.249  0.00  0.00     0.206 C 
ATOM     11  O6A BDP d 609      30.710  21.638  -5.299  0.00  0.00    -0.646 OA
ATOM     12  O2  BDP d 609      31.098  26.375  -0.888  0.00  0.00    -0.388 OA
ATOM     13  H   BDP d 609      28.575  26.042  -0.879  0.00  0.00     0.210 HD
ATOM     14  H   BDP d 609      29.856  24.161  -1.328  0.00  0.00     0.091 H 
ATOM     15  H   BDP d 609      32.345  24.399  -2.031  0.00  0.00     0.133 H 
ATOM     16  H   BDP d 609      30.926  22.773  -3.166  0.00  0.00     0.104 H 
ATOM     17  H   BDP d 609      30.531  26.660  -2.837  0.00  0.00     0.094 H 
ATOM     18  H   BDP d 609      29.127  24.926  -4.148  0.00  0.00     0.092 H 
ATOM     19  H   BDP d 609      31.340  25.645  -0.297  0.00  0.00     0.210 HD
ATOM     20  O7  ASG d 610      26.946  19.920  -2.294  0.00  0.00    -0.274 OA
ATOM     21  O3  ASG d 610      24.462  20.925  -4.755  0.00  0.00    -0.348 OA
ATOM     22  OSB ASG d 610      21.795  22.426  -3.875  0.00  0.00    -0.572 OA
ATOM     23  OSA ASG d 610      21.996  24.794  -3.479  0.00  0.00    -0.572 OA
ATOM     24  N   ASG d 610      27.291  20.829  -4.328  0.00  0.00    -0.349 N 
ATOM     25  C5  ASG d 610      25.493  24.552  -4.916  0.00  0.00     0.090 C 
ATOM     26  C3  ASG d 610      25.297  22.086  -4.938  0.00  0.00     0.094 C 
ATOM     27  C7  ASG d 610      27.492  19.898  -3.400  0.00  0.00     0.214 C 
ATOM     28  O6  ASG d 610      25.751  26.950  -5.189  0.00  0.00    -0.398 OA
ATOM     29  O5  ASG d 610      26.596  24.449  -3.993  0.00  0.00    -0.349 OA
ATOM     30  C4  ASG d 610      24.524  23.391  -4.670  0.00  0.00     0.114 C 
ATOM     31  S   ASG d 610      22.466  23.462  -3.065  0.00  0.00     0.252 S 
ATOM     32  C2  ASG d 610      26.505  22.007  -4.016  0.00  0.00     0.087 C 
ATOM     33  C1  ASG d 610      27.370  23.251  -4.190  0.00  0.00     0.154 C 
ATOM     34  C6  ASG d 610      24.876  25.926  -4.732  0.00  0.00     0.043 C 
ATOM     35  OSC ASG d 610      22.172  23.274  -1.630  0.00  0.00    -0.572 OA
ATOM     36  O4  ASG d 610      24.055  23.431  -3.304  0.00  0.00    -0.246 OA
ATOM     37  C8  ASG d 610      28.444  18.762  -3.758  0.00  0.00    -0.003 C 
ATOM     38  H   ASG d 610      27.676  20.718  -5.227  0.00  0.00     0.163 HD
ATOM     39  H   ASG d 610      25.796  24.468  -5.938  0.00  0.00     0.090 H 
ATOM     40  H   ASG d 610      25.620  22.096  -5.958  0.00  0.00     0.091 H 
ATOM     41  H   ASG d 610      25.332  27.815  -5.059  0.00  0.00     0.209 HD
ATOM     42  H   ASG d 610      23.672  23.456  -5.312  0.00  0.00     0.093 H 
ATOM     43  H   ASG d 610      26.165  21.948  -3.003  0.00  0.00     0.084 H 
ATOM     44  H   ASG d 610      27.768  23.251  -5.184  0.00  0.00     0.132 H 
ATOM     45  H   ASG d 610      24.672  26.081  -3.693  0.00  0.00     0.078 H 
ATOM     46  H   ASG d 610      23.975  25.971  -5.306  0.00  0.00     0.078 H 
ATOM     47  H   ASG d 610      28.518  18.085  -2.933  0.00  0.00     0.040 H 
ATOM     48  H   ASG d 610      29.411  19.163  -3.979  0.00  0.00     0.040 H 
ATOM     49  H   ASG d 610      28.071  18.240  -4.614  0.00  0.00     0.040 H 
ATOM     50  C8  ASG d 608      33.836  27.709   1.071  0.00  0.00    -0.003 C 
ATOM     51  C6  ASG d 608      36.876  24.639  -5.757  0.00  0.00     0.043 C 
ATOM     52  O7  ASG d 608      34.034  28.697  -1.087  0.00  0.00    -0.274 OA
ATOM     53  S   ASG d 608      33.817  26.906  -6.218  0.00  0.00     0.252 S 
ATOM     54  OSC ASG d 608      32.695  27.727  -5.721  0.00  0.00    -0.572 OA
ATOM     55  N   ASG d 608      34.927  26.638  -0.830  0.00  0.00    -0.349 N 
ATOM     56  O6  ASG d 608      36.285  23.538  -6.441  0.00  0.00    -0.398 OA
ATOM     57  O5  ASG d 608      37.163  25.760  -3.672  0.00  0.00    -0.349 OA
ATOM     58  C1  ASG d 608      36.777  26.020  -2.308  0.00  0.00     0.151 C 
ATOM     59  C4  ASG d 608      34.871  25.355  -4.360  0.00  0.00     0.114 C 
ATOM     60  OSB ASG d 608      33.250  25.610  -6.631  0.00  0.00    -0.572 OA
ATOM     61  C3  ASG d 608      34.392  25.559  -2.939  0.00  0.00     0.094 C 
ATOM     62  O4  ASG d 608      34.910  26.586  -5.103  0.00  0.00    -0.246 OA
ATOM     63  C5  ASG d 608      36.301  24.813  -4.346  0.00  0.00     0.090 C 
ATOM     64  O1  ASG d 608      37.625  26.992  -1.805  0.00  0.00    -0.369 OA
ATOM     65  C7  ASG d 608      34.276  27.714  -0.387  0.00  0.00     0.214 C 
ATOM     66  C2  ASG d 608      35.325  26.530  -2.225  0.00  0.00     0.087 C 
ATOM     67  O3  ASG d 608      33.046  26.070  -2.937  0.00  0.00    -0.348 OA
ATOM     68  OSA ASG d 608      34.568  27.500  -7.343  0.00  0.00    -0.572 OA
ATOM     69  H   ASG d 608      33.328  28.625   1.294  0.00  0.00     0.040 H 
ATOM     70  H   ASG d 608      34.694  27.614   1.703  0.00  0.00     0.040 H 
ATOM     71  H   ASG d 608      33.175  26.886   1.241  0.00  0.00     0.040 H 
ATOM     72  H   ASG d 608      37.930  24.475  -5.682  0.00  0.00     0.078 H 
ATOM     73  H   ASG d 608      36.661  25.528  -6.314  0.00  0.00     0.078 H 
ATOM     74  H   ASG d 608      35.140  25.908  -0.205  0.00  0.00     0.163 HD
ATOM     75  H   ASG d 608      36.468  22.720  -5.953  0.00  0.00     0.209 HD
ATOM     76  H   ASG d 608      36.843  25.113  -1.746  0.00  0.00     0.132 H 
ATOM     77  H   ASG d 608      34.182  24.677  -4.820  0.00  0.00     0.093 H 
ATOM     78  H   ASG d 608      34.400  24.620  -2.426  0.00  0.00     0.091 H 
ATOM     79  H   ASG d 608      36.263  23.865  -3.853  0.00  0.00     0.090 H 
ATOM     80  H   ASG d 608      37.541  27.799  -2.335  0.00  0.00     0.212 HD
ATOM     81  H   ASG d 608      35.264  27.490  -2.693  0.00  0.00     0.084 H 
ATOM     82  O6B GCD d 611      22.154  22.207  -9.379  0.00  0.00    -0.642 OA
ATOM     83  C6  GCD d 611      21.527  21.634  -8.402  0.00  0.00     0.233 C 
ATOM     84  C5  GCD d 611      22.254  20.540  -7.662  0.00  0.00     0.147 C 
ATOM     85  C2  GCD d 611      23.714  18.872  -5.670  0.00  0.00     0.111 C 
ATOM     86  O6A GCD d 611      20.375  21.887  -7.876  0.00  0.00    -0.642 OA
ATOM     87  C4  GCD d 611      22.450  19.254  -8.052  0.00  0.00    -0.034 C 
ATOM     88  C1  GCD d 611      24.108  20.291  -5.930  0.00  0.00     0.165 C 
ATOM     89  O3  GCD d 611      22.776  17.000  -6.773  0.00  0.00    -0.389 OA
ATOM     90  O5  GCD d 611      22.827  20.966  -6.369  0.00  0.00    -0.311 OA
ATOM     91  O2  GCD d 611      24.870  18.103  -5.226  0.00  0.00    -0.388 OA
ATOM     92  C3  GCD d 611      23.253  18.320  -7.073  0.00  0.00     0.084 C 
ATOM     93  H   GCD d 611      22.956  18.802  -4.918  0.00  0.00     0.095 H 
ATOM     94  H   GCD d 611      22.088  18.905  -8.953  0.00  0.00     0.085 H 
ATOM     95  H   GCD d 611      24.919  20.332  -6.627  0.00  0.00     0.134 H 
ATOM     96  H   GCD d 611      23.389  16.567  -6.158  0.00  0.00     0.210 HD
ATOM     97  H   GCD d 611      25.569  18.155  -5.897  0.00  0.00     0.210 HD
ATOM     98  H   GCD d 611      24.062  18.284  -7.773  0.00  0.00     0.093 H 
ENDROOT
TORSDOF 25
ENDMDL
MODEL 30
REMARK VINA RESULT:      -7.3      3.482      5.332
REMARK  0 active torsions:
REMARK  status: ('A' for Active; 'I' for Inactive)
REMARK       I    between atoms: O3_1  and  C3_6 
REMARK       I    between atoms: O3_3  and  C3_16 
REMARK       I    between atoms: O3_3  and  C1_32 
REMARK       I    between atoms: C8_5  and  C7_53 
REMARK       I    between atoms: C6_7  and  C5_47 
REMARK       I    between atoms: C6_7  and  O6_29 
REMARK       I    between atoms: O4_8  and  C4_45 
REMARK       I    between atoms: O4_8  and  C1_39 
REMARK       I    between atoms: N_10  and  C2_35 
REMARK       I    between atoms: N_10  and  C7_17 
REMARK       I    between atoms: C5_12  and  C6_42 
REMARK       I    between atoms: C1_14  and  O3_57 
REMARK       I    between atoms: C6_15  and  C5_20 
REMARK       I    between atoms: C7_17  and  C8_54 
REMARK       I    between atoms: O6_18  and  C6_42 
REMARK       I    between atoms: S_19  and  O4_46 
REMARK       I    between atoms: C4_22  and  O4_50 
REMARK       I    between atoms: C2_23  and  O2_51 
REMARK       I    between atoms: S_26  and  O4_50 
REMARK       I    between atoms: N_27  and  C2_56 
REMARK       I    between atoms: N_27  and  C7_53 
REMARK       I    between atoms: C5_31  and  C6_55 
REMARK       I    between atoms: C1_33  and  O1_48 
REMARK       I    between atoms: C4_34  and  O4_46 
REMARK       I    between atoms: C3_40  and  O3_57 
REMARK       I    between atoms: C2_41  and  O2_60 
REMARK       I    between atoms: O3_43  and  C3_52 
ROOT
ATOM      1  O3  BDP d 609      31.327  22.172  -5.044  0.00  0.00    -0.390 OA
ATOM      2  C3  BDP d 609      30.468  22.623  -4.005  0.00  0.00     0.092 C 
ATOM      3  O4  BDP d 609      31.746  24.619  -3.720  0.00  0.00    -0.348 OA
ATOM      4  C1  BDP d 609      28.088  22.697  -3.217  0.00  0.00     0.160 C 
ATOM      5  C5  BDP d 609      29.434  24.669  -3.008  0.00  0.00     0.152 C 
ATOM      6  O5  BDP d 609      28.129  24.137  -3.300  0.00  0.00    -0.340 OA
ATOM      7  O6B BDP d 609      28.940  26.727  -4.090  0.00  0.00    -0.646 OA
ATOM      8  C2  BDP d 609      29.067  22.068  -4.219  0.00  0.00     0.110 C 
ATOM      9  C4  BDP d 609      30.436  24.139  -4.027  0.00  0.00     0.103 C 
ATOM     10  C6  BDP d 609      29.317  26.182  -3.031  0.00  0.00     0.206 C 
ATOM     11  O6A BDP d 609      29.636  26.787  -1.985  0.00  0.00    -0.646 OA
ATOM     12  O2  BDP d 609      29.083  20.660  -4.035  0.00  0.00    -0.388 OA
ATOM     13  H   BDP d 609      31.357  21.202  -5.041  0.00  0.00     0.210 HD
ATOM     14  H   BDP d 609      30.829  22.283  -3.057  0.00  0.00     0.091 H 
ATOM     15  H   BDP d 609      28.370  22.392  -2.231  0.00  0.00     0.133 H 
ATOM     16  H   BDP d 609      29.789  24.366  -2.046  0.00  0.00     0.104 H 
ATOM     17  H   BDP d 609      28.749  22.303  -5.213  0.00  0.00     0.094 H 
ATOM     18  H   BDP d 609      30.133  24.479  -4.995  0.00  0.00     0.092 H 
ATOM     19  H   BDP d 609      29.372  20.455  -3.132  0.00  0.00     0.210 HD
ATOM     20  O7  ASG d 610      34.581  25.579  -1.494  0.00  0.00    -0.274 OA
ATOM     21  O3  ASG d 610      35.413  27.624  -4.386  0.00  0.00    -0.348 OA
ATOM     22  OSB ASG d 610      37.420  26.566  -6.621  0.00  0.00    -0.572 OA
ATOM     23  OSA ASG d 610      36.481  25.071  -8.261  0.00  0.00    -0.572 OA
ATOM     24  N   ASG d 610      33.202  26.859  -2.737  0.00  0.00    -0.349 N 
ATOM     25  C5  ASG d 610      33.085  25.887  -6.797  0.00  0.00     0.090 C 
ATOM     26  C3  ASG d 610      34.191  27.104  -4.948  0.00  0.00     0.094 C 
ATOM     27  C7  ASG d 610      33.725  26.464  -1.580  0.00  0.00     0.214 C 
ATOM     28  O6  ASG d 610      31.845  24.949  -8.660  0.00  0.00    -0.398 OA
ATOM     29  O5  ASG d 610      32.522  24.965  -5.843  0.00  0.00    -0.349 OA
ATOM     30  C4  ASG d 610      34.443  26.374  -6.281  0.00  0.00     0.114 C 
ATOM     31  S   ASG d 610      36.745  25.269  -6.827  0.00  0.00     0.252 S 
ATOM     32  C2  ASG d 610      33.529  26.154  -3.960  0.00  0.00     0.087 C 
ATOM     33  C1  ASG d 610      32.254  25.582  -4.569  0.00  0.00     0.154 C 
ATOM     34  C6  ASG d 610      33.147  25.173  -8.134  0.00  0.00     0.043 C 
ATOM     35  OSC ASG d 610      37.585  24.160  -6.335  0.00  0.00    -0.572 OA
ATOM     36  O4  ASG d 610      35.321  25.244  -6.082  0.00  0.00    -0.246 OA
ATOM     37  C8  ASG d 610      33.224  27.164  -0.321  0.00  0.00    -0.003 C 
ATOM     38  H   ASG d 610      32.592  27.632  -2.762  0.00  0.00     0.163 HD
ATOM     39  H   ASG d 610      32.490  26.767  -6.926  0.00  0.00     0.090 H 
ATOM     40  H   ASG d 610      33.544  27.933  -5.142  0.00  0.00     0.091 H 
ATOM     41  H   ASG d 610      31.916  24.493  -9.513  0.00  0.00     0.209 HD
ATOM     42  H   ASG d 610      34.909  27.033  -6.982  0.00  0.00     0.093 H 
ATOM     43  H   ASG d 610      34.208  25.356  -3.739  0.00  0.00     0.084 H 
ATOM     44  H   ASG d 610      31.556  26.381  -4.709  0.00  0.00     0.132 H 
ATOM     45  H   ASG d 610      33.637  24.231  -8.004  0.00  0.00     0.078 H 
ATOM     46  H   ASG d 610      33.687  25.790  -8.821  0.00  0.00     0.078 H 
ATOM     47  H   ASG d 610      33.720  26.757   0.535  0.00  0.00     0.040 H 
ATOM     48  H   ASG d 610      32.169  27.015  -0.227  0.00  0.00     0.040 H 
ATOM     49  H   ASG d 610      33.431  28.211  -0.389  0.00  0.00     0.040 H 
ATOM     50  C8  ASG d 608      26.955  17.904  -3.041  0.00  0.00    -0.003 C 
ATOM     51  C6  ASG d 608      23.081  24.804  -1.408  0.00  0.00     0.043 C 
ATOM     52  O7  ASG d 608      25.625  19.277  -4.462  0.00  0.00    -0.274 OA
ATOM     53  S   ASG d 608      24.639  24.608  -4.906  0.00  0.00     0.252 S 
ATOM     54  OSC ASG d 608      25.457  23.963  -5.953  0.00  0.00    -0.572 OA
ATOM     55  N   ASG d 608      25.752  19.889  -2.291  0.00  0.00    -0.349 N 
ATOM     56  O6  ASG d 608      23.758  26.010  -1.067  0.00  0.00    -0.398 OA
ATOM     57  O5  ASG d 608      23.161  22.422  -1.439  0.00  0.00    -0.349 OA
ATOM     58  C1  ASG d 608      23.883  21.176  -1.373  0.00  0.00     0.151 C 
ATOM     59  C4  ASG d 608      25.014  23.567  -2.510  0.00  0.00     0.114 C 
ATOM     60  OSB ASG d 608      25.470  25.667  -4.307  0.00  0.00    -0.572 OA
ATOM     61  C3  ASG d 608      25.857  22.312  -2.427  0.00  0.00     0.094 C 
ATOM     62  O4  ASG d 608      24.239  23.622  -3.720  0.00  0.00    -0.246 OA
ATOM     63  C5  ASG d 608      24.013  23.588  -1.354  0.00  0.00     0.090 C 
ATOM     64  O1  ASG d 608      22.971  20.148  -1.543  0.00  0.00    -0.369 OA
ATOM     65  C7  ASG d 608      26.051  19.098  -3.321  0.00  0.00     0.214 C 
ATOM     66  C2  ASG d 608      24.950  21.088  -2.482  0.00  0.00     0.087 C 
ATOM     67  O3  ASG d 608      26.804  22.278  -3.511  0.00  0.00    -0.348 OA
ATOM     68  OSA ASG d 608      23.366  25.185  -5.383  0.00  0.00    -0.572 OA
ATOM     69  H   ASG d 608      27.114  17.357  -3.947  0.00  0.00     0.040 H 
ATOM     70  H   ASG d 608      26.491  17.268  -2.316  0.00  0.00     0.040 H 
ATOM     71  H   ASG d 608      27.894  18.249  -2.664  0.00  0.00     0.040 H 
ATOM     72  H   ASG d 608      22.275  24.653  -0.720  0.00  0.00     0.078 H 
ATOM     73  H   ASG d 608      22.720  24.900  -2.411  0.00  0.00     0.078 H 
ATOM     74  H   ASG d 608      26.077  19.659  -1.391  0.00  0.00     0.163 HD
ATOM     75  H   ASG d 608      24.094  25.946  -0.160  0.00  0.00     0.209 HD
ATOM     76  H   ASG d 608      24.379  21.107  -0.428  0.00  0.00     0.132 H 
ATOM     77  H   ASG d 608      25.693  24.394  -2.477  0.00  0.00     0.093 H 
ATOM     78  H   ASG d 608      26.396  22.310  -1.503  0.00  0.00     0.091 H 
ATOM     79  H   ASG d 608      24.588  23.615  -0.452  0.00  0.00     0.090 H 
ATOM     80  H   ASG d 608      22.540  20.238  -2.407  0.00  0.00     0.212 HD
ATOM     81  H   ASG d 608      24.463  21.049  -3.434  0.00  0.00     0.084 H 
ATOM     82  O6B GCD d 611      35.206  31.386  -8.148  0.00  0.00    -0.642 OA
ATOM     83  C6  GCD d 611      36.312  30.908  -7.677  0.00  0.00     0.233 C 
ATOM     84  C5  GCD d 611      36.383  30.671  -6.190  0.00  0.00     0.147 C 
ATOM     85  C2  GCD d 611      36.506  29.506  -3.450  0.00  0.00     0.111 C 
ATOM     86  O6A GCD d 611      37.383  30.511  -8.279  0.00  0.00    -0.642 OA
ATOM     87  C4  GCD d 611      36.569  31.587  -5.205  0.00  0.00    -0.034 C 
ATOM     88  C1  GCD d 611      35.532  28.998  -4.465  0.00  0.00     0.165 C 
ATOM     89  O3  GCD d 611      37.622  31.493  -2.816  0.00  0.00    -0.389 OA
ATOM     90  O5  GCD d 611      36.201  29.258  -5.796  0.00  0.00    -0.311 OA
ATOM     91  O2  GCD d 611      35.980  29.305  -2.105  0.00  0.00    -0.388 OA
ATOM     92  C3  GCD d 611      36.601  31.055  -3.724  0.00  0.00     0.084 C 
ATOM     93  H   GCD d 611      37.449  29.004  -3.519  0.00  0.00     0.095 H 
ATOM     94  H   GCD d 611      36.685  32.590  -5.419  0.00  0.00     0.085 H 
ATOM     95  H   GCD d 611      34.575  29.457  -4.326  0.00  0.00     0.134 H 
ATOM     96  H   GCD d 611      37.492  31.070  -1.953  0.00  0.00     0.210 HD
ATOM     97  H   GCD d 611      35.124  29.753  -2.022  0.00  0.00     0.210 HD
ATOM     98  H   GCD d 611      35.675  31.553  -3.527  0.00  0.00     0.093 H 
ENDROOT
TORSDOF 25
ENDMDL
MODEL 31
REMARK VINA RESULT:      -7.3      2.906      5.872
REMARK  0 active torsions:
REMARK  status: ('A' for Active; 'I' for Inactive)
REMARK       I    between atoms: O3_1  and  C3_6 
REMARK       I    between atoms: O3_3  and  C3_16 
REMARK       I    between atoms: O3_3  and  C1_32 
REMARK       I    between atoms: C8_5  and  C7_53 
REMARK       I    between atoms: C6_7  and  C5_47 
REMARK       I    between atoms: C6_7  and  O6_29 
REMARK       I    between atoms: O4_8  and  C4_45 
REMARK       I    between atoms: O4_8  and  C1_39 
REMARK       I    between atoms: N_10  and  C2_35 
REMARK       I    between atoms: N_10  and  C7_17 
REMARK       I    between atoms: C5_12  and  C6_42 
REMARK       I    between atoms: C1_14  and  O3_57 
REMARK       I    between atoms: C6_15  and  C5_20 
REMARK       I    between atoms: C7_17  and  C8_54 
REMARK       I    between atoms: O6_18  and  C6_42 
REMARK       I    between atoms: S_19  and  O4_46 
REMARK       I    between atoms: C4_22  and  O4_50 
REMARK       I    between atoms: C2_23  and  O2_51 
REMARK       I    between atoms: S_26  and  O4_50 
REMARK       I    between atoms: N_27  and  C2_56 
REMARK       I    between atoms: N_27  and  C7_53 
REMARK       I    between atoms: C5_31  and  C6_55 
REMARK       I    between atoms: C1_33  and  O1_48 
REMARK       I    between atoms: C4_34  and  O4_46 
REMARK       I    between atoms: C3_40  and  O3_57 
REMARK       I    between atoms: C2_41  and  O2_60 
REMARK       I    between atoms: O3_43  and  C3_52 
ROOT
ATOM      1  O3  BDP d 609      32.329  26.375  -1.243  0.00  0.00    -0.390 OA
ATOM      2  C3  BDP d 609      30.946  26.287  -1.562  0.00  0.00     0.092 C 
ATOM      3  O4  BDP d 609      31.255  27.555  -3.561  0.00  0.00    -0.348 OA
ATOM      4  C1  BDP d 609      28.928  24.801  -1.482  0.00  0.00     0.160 C 
ATOM      5  C5  BDP d 609      29.340  26.080  -3.467  0.00  0.00     0.152 C 
ATOM      6  O5  BDP d 609      28.877  24.830  -2.924  0.00  0.00    -0.340 OA
ATOM      7  O6B BDP d 609      29.730  25.115  -5.603  0.00  0.00    -0.646 OA
ATOM      8  C2  BDP d 609      30.366  25.003  -0.986  0.00  0.00     0.110 C 
ATOM      9  C4  BDP d 609      30.797  26.294  -3.072  0.00  0.00     0.103 C 
ATOM     10  C6  BDP d 609      29.142  26.016  -4.971  0.00  0.00     0.206 C 
ATOM     11  O6A BDP d 609      28.418  26.899  -5.479  0.00  0.00    -0.646 OA
ATOM     12  O2  BDP d 609      30.365  25.080   0.432  0.00  0.00    -0.388 OA
ATOM     13  H   BDP d 609      32.439  26.372  -0.279  0.00  0.00     0.210 HD
ATOM     14  H   BDP d 609      30.419  27.118  -1.143  0.00  0.00     0.091 H 
ATOM     15  H   BDP d 609      28.320  25.591  -1.092  0.00  0.00     0.133 H 
ATOM     16  H   BDP d 609      28.794  26.916  -3.083  0.00  0.00     0.104 H 
ATOM     17  H   BDP d 609      30.966  24.178  -1.307  0.00  0.00     0.094 H 
ATOM     18  H   BDP d 609      31.374  25.499  -3.495  0.00  0.00     0.092 H 
ATOM     19  H   BDP d 609      29.820  25.831   0.714  0.00  0.00     0.210 HD
ATOM     20  O7  ASG d 610      30.991  31.182  -4.390  0.00  0.00    -0.274 OA
ATOM     21  O3  ASG d 610      33.615  30.255  -6.733  0.00  0.00    -0.348 OA
ATOM     22  OSB ASG d 610      36.689  30.572  -5.965  0.00  0.00    -0.572 OA
ATOM     23  OSA ASG d 610      37.625  28.815  -4.607  0.00  0.00    -0.572 OA
ATOM     24  N   ASG d 610      31.077  29.379  -5.740  0.00  0.00    -0.349 N 
ATOM     25  C5  ASG d 610      34.398  26.912  -5.166  0.00  0.00     0.090 C 
ATOM     26  C3  ASG d 610      33.417  28.918  -6.231  0.00  0.00     0.094 C 
ATOM     27  C7  ASG d 610      30.480  30.461  -5.251  0.00  0.00     0.214 C 
ATOM     28  O6  ASG d 610      35.287  24.797  -4.376  0.00  0.00    -0.398 OA
ATOM     29  O5  ASG d 610      33.391  26.975  -4.137  0.00  0.00    -0.349 OA
ATOM     30  C4  ASG d 610      34.715  28.333  -5.644  0.00  0.00     0.114 C 
ATOM     31  S   ASG d 610      36.594  29.863  -4.672  0.00  0.00     0.252 S 
ATOM     32  C2  ASG d 610      32.328  28.919  -5.168  0.00  0.00     0.087 C 
ATOM     33  C1  ASG d 610      32.143  27.509  -4.618  0.00  0.00     0.154 C 
ATOM     34  C6  ASG d 610      35.589  26.170  -4.589  0.00  0.00     0.043 C 
ATOM     35  OSC ASG d 610      36.790  30.800  -3.548  0.00  0.00    -0.572 OA
ATOM     36  O4  ASG d 610      35.171  29.130  -4.529  0.00  0.00    -0.246 OA
ATOM     37  C8  ASG d 610      29.101  30.799  -5.808  0.00  0.00    -0.003 C 
ATOM     38  H   ASG d 610      30.670  28.889  -6.491  0.00  0.00     0.163 HD
ATOM     39  H   ASG d 610      34.073  26.378  -6.035  0.00  0.00     0.090 H 
ATOM     40  H   ASG d 610      33.120  28.303  -7.054  0.00  0.00     0.091 H 
ATOM     41  H   ASG d 610      36.064  24.349  -4.007  0.00  0.00     0.209 HD
ATOM     42  H   ASG d 610      35.488  28.329  -6.383  0.00  0.00     0.093 H 
ATOM     43  H   ASG d 610      32.618  29.576  -4.376  0.00  0.00     0.084 H 
ATOM     44  H   ASG d 610      31.775  26.883  -5.404  0.00  0.00     0.132 H 
ATOM     45  H   ASG d 610      35.859  26.616  -3.655  0.00  0.00     0.078 H 
ATOM     46  H   ASG d 610      36.397  26.233  -5.287  0.00  0.00     0.078 H 
ATOM     47  H   ASG d 610      28.733  31.685  -5.335  0.00  0.00     0.040 H 
ATOM     48  H   ASG d 610      28.431  29.988  -5.616  0.00  0.00     0.040 H 
ATOM     49  H   ASG d 610      29.172  30.961  -6.862  0.00  0.00     0.040 H 
ATOM     50  C8  ASG d 608      28.603  23.833   3.339  0.00  0.00    -0.003 C 
ATOM     51  C6  ASG d 608      24.365  21.820  -3.240  0.00  0.00     0.043 C 
ATOM     52  O7  ASG d 608      28.853  21.969   1.878  0.00  0.00    -0.274 OA
ATOM     53  S   ASG d 608      28.121  21.069  -3.437  0.00  0.00     0.252 S 
ATOM     54  OSC ASG d 608      29.505  21.113  -2.924  0.00  0.00    -0.572 OA
ATOM     55  N   ASG d 608      27.106  23.343   1.476  0.00  0.00    -0.349 N 
ATOM     56  O6  ASG d 608      24.361  22.607  -4.428  0.00  0.00    -0.398 OA
ATOM     57  O5  ASG d 608      24.671  21.796  -0.876  0.00  0.00    -0.349 OA
ATOM     58  C1  ASG d 608      25.156  22.385   0.347  0.00  0.00     0.151 C 
ATOM     59  C4  ASG d 608      26.496  22.726  -2.179  0.00  0.00     0.114 C 
ATOM     60  OSB ASG d 608      28.010  22.125  -4.458  0.00  0.00    -0.572 OA
ATOM     61  C3  ASG d 608      27.038  23.423  -0.950  0.00  0.00     0.094 C 
ATOM     62  O4  ASG d 608      27.024  21.396  -2.327  0.00  0.00    -0.246 OA
ATOM     63  C5  ASG d 608      24.979  22.576  -2.054  0.00  0.00     0.090 C 
ATOM     64  O1  ASG d 608      24.870  21.512   1.382  0.00  0.00    -0.369 OA
ATOM     65  C7  ASG d 608      28.191  22.969   2.153  0.00  0.00     0.214 C 
ATOM     66  C2  ASG d 608      26.680  22.615   0.291  0.00  0.00     0.087 C 
ATOM     67  O3  ASG d 608      28.467  23.571  -1.053  0.00  0.00    -0.348 OA
ATOM     68  OSA ASG d 608      27.716  19.772  -4.017  0.00  0.00    -0.572 OA
ATOM     69  H   ASG d 608      29.483  23.424   3.790  0.00  0.00     0.040 H 
ATOM     70  H   ASG d 608      27.810  23.853   4.058  0.00  0.00     0.040 H 
ATOM     71  H   ASG d 608      28.805  24.827   3.002  0.00  0.00     0.040 H 
ATOM     72  H   ASG d 608      23.358  21.555  -2.996  0.00  0.00     0.078 H 
ATOM     73  H   ASG d 608      24.961  20.950  -3.422  0.00  0.00     0.078 H 
ATOM     74  H   ASG d 608      26.586  24.121   1.783  0.00  0.00     0.163 HD
ATOM     75  H   ASG d 608      23.825  23.402  -4.287  0.00  0.00     0.209 HD
ATOM     76  H   ASG d 608      24.683  23.334   0.492  0.00  0.00     0.132 H 
ATOM     77  H   ASG d 608      26.779  23.324  -3.020  0.00  0.00     0.093 H 
ATOM     78  H   ASG d 608      26.600  24.397  -0.875  0.00  0.00     0.091 H 
ATOM     79  H   ASG d 608      24.576  23.566  -2.012  0.00  0.00     0.090 H 
ATOM     80  H   ASG d 608      25.313  20.665   1.222  0.00  0.00     0.212 HD
ATOM     81  H   ASG d 608      27.175  21.667   0.252  0.00  0.00     0.084 H 
ATOM     82  O6B GCD d 611      36.176  28.030 -10.837  0.00  0.00    -0.642 OA
ATOM     83  C6  GCD d 611      36.479  29.190 -10.351  0.00  0.00     0.233 C 
ATOM     84  C5  GCD d 611      35.337  30.099  -9.971  0.00  0.00     0.147 C 
ATOM     85  C2  GCD d 611      33.301  31.744  -8.549  0.00  0.00     0.111 C 
ATOM     86  O6A GCD d 611      37.624  29.706 -10.049  0.00  0.00    -0.642 OA
ATOM     87  C4  GCD d 611      34.556  30.847 -10.793  0.00  0.00    -0.034 C 
ATOM     88  C1  GCD d 611      33.612  30.349  -8.112  0.00  0.00     0.165 C 
ATOM     89  O3  GCD d 611      33.235  33.082 -10.500  0.00  0.00    -0.389 OA
ATOM     90  O5  GCD d 611      35.052  30.135  -8.522  0.00  0.00    -0.311 OA
ATOM     91  O2  GCD d 611      31.926  32.085  -8.200  0.00  0.00    -0.388 OA
ATOM     92  C3  GCD d 611      33.425  31.711 -10.120  0.00  0.00     0.084 C 
ATOM     93  H   GCD d 611      33.950  32.459  -8.087  0.00  0.00     0.095 H 
ATOM     94  H   GCD d 611      34.697  30.848 -11.815  0.00  0.00     0.085 H 
ATOM     95  H   GCD d 611      32.903  29.661  -8.524  0.00  0.00     0.134 H 
ATOM     96  H   GCD d 611      32.501  33.460  -9.990  0.00  0.00     0.210 HD
ATOM     97  H   GCD d 611      31.322  31.447  -8.610  0.00  0.00     0.210 HD
ATOM     98  H   GCD d 611      32.683  31.084 -10.566  0.00  0.00     0.093 H 
ENDROOT
TORSDOF 25
ENDMDL
MODEL 32
REMARK VINA RESULT:      -7.2      2.819      5.805
REMARK  0 active torsions:
REMARK  status: ('A' for Active; 'I' for Inactive)
REMARK       I    between atoms: O3_1  and  C3_6 
REMARK       I    between atoms: O3_3  and  C3_16 
REMARK       I    between atoms: O3_3  and  C1_32 
REMARK       I    between atoms: C8_5  and  C7_53 
REMARK       I    between atoms: C6_7  and  C5_47 
REMARK       I    between atoms: C6_7  and  O6_29 
REMARK       I    between atoms: O4_8  and  C4_45 
REMARK       I    between atoms: O4_8  and  C1_39 
REMARK       I    between atoms: N_10  and  C2_35 
REMARK       I    between atoms: N_10  and  C7_17 
REMARK       I    between atoms: C5_12  and  C6_42 
REMARK       I    between atoms: C1_14  and  O3_57 
REMARK       I    between atoms: C6_15  and  C5_20 
REMARK       I    between atoms: C7_17  and  C8_54 
REMARK       I    between atoms: O6_18  and  C6_42 
REMARK       I    between atoms: S_19  and  O4_46 
REMARK       I    between atoms: C4_22  and  O4_50 
REMARK       I    between atoms: C2_23  and  O2_51 
REMARK       I    between atoms: S_26  and  O4_50 
REMARK       I    between atoms: N_27  and  C2_56 
REMARK       I    between atoms: N_27  and  C7_53 
REMARK       I    between atoms: C5_31  and  C6_55 
REMARK       I    between atoms: C1_33  and  O1_48 
REMARK       I    between atoms: C4_34  and  O4_46 
REMARK       I    between atoms: C3_40  and  O3_57 
REMARK       I    between atoms: C2_41  and  O2_60 
REMARK       I    between atoms: O3_43  and  C3_52 
ROOT
ATOM      1  O3  BDP d 609      32.672  26.610  -1.815  0.00  0.00    -0.390 OA
ATOM      2  C3  BDP d 609      31.255  26.530  -1.909  0.00  0.00     0.092 C 
ATOM      3  O4  BDP d 609      31.276  27.494  -4.093  0.00  0.00    -0.348 OA
ATOM      4  C1  BDP d 609      29.249  25.147  -1.316  0.00  0.00     0.160 C 
ATOM      5  C5  BDP d 609      29.375  26.119  -3.504  0.00  0.00     0.152 C 
ATOM      6  O5  BDP d 609      28.980  24.976  -2.723  0.00  0.00    -0.340 OA
ATOM      7  O6B BDP d 609      29.419  24.851  -5.513  0.00  0.00    -0.646 OA
ATOM      8  C2  BDP d 609      30.750  25.362  -1.074  0.00  0.00     0.110 C 
ATOM      9  C4  BDP d 609      30.878  26.331  -3.364  0.00  0.00     0.103 C 
ATOM     10  C6  BDP d 609      28.949  25.853  -4.936  0.00  0.00     0.206 C 
ATOM     11  O6A BDP d 609      28.170  26.683  -5.453  0.00  0.00    -0.646 OA
ATOM     12  O2  BDP d 609      30.966  25.636   0.302  0.00  0.00    -0.388 OA
ATOM     13  H   BDP d 609      32.928  26.738  -0.887  0.00  0.00     0.210 HD
ATOM     14  H   BDP d 609      30.812  27.431  -1.540  0.00  0.00     0.091 H 
ATOM     15  H   BDP d 609      28.721  26.005  -0.958  0.00  0.00     0.133 H 
ATOM     16  H   BDP d 609      28.907  27.020  -3.167  0.00  0.00     0.104 H 
ATOM     17  H   BDP d 609      31.281  24.478  -1.358  0.00  0.00     0.094 H 
ATOM     18  H   BDP d 609      31.371  25.464  -3.749  0.00  0.00     0.092 H 
ATOM     19  H   BDP d 609      30.482  26.439   0.552  0.00  0.00     0.210 HD
ATOM     20  O7  ASG d 610      30.946  30.977  -5.386  0.00  0.00    -0.274 OA
ATOM     21  O3  ASG d 610      33.167  29.633  -7.936  0.00  0.00    -0.348 OA
ATOM     22  OSB ASG d 610      36.327  29.940  -7.686  0.00  0.00    -0.572 OA
ATOM     23  OSA ASG d 610      37.431  28.356  -6.245  0.00  0.00    -0.572 OA
ATOM     24  N   ASG d 610      30.797  29.000  -6.461  0.00  0.00    -0.349 N 
ATOM     25  C5  ASG d 610      34.127  26.516  -6.038  0.00  0.00     0.090 C 
ATOM     26  C3  ASG d 610      33.027  28.388  -7.223  0.00  0.00     0.094 C 
ATOM     27  C7  ASG d 610      30.298  30.162  -6.049  0.00  0.00     0.214 C 
ATOM     28  O6  ASG d 610      35.093  24.500  -5.092  0.00  0.00    -0.398 OA
ATOM     29  O5  ASG d 610      33.289  26.759  -4.890  0.00  0.00    -0.349 OA
ATOM     30  C4  ASG d 610      34.390  27.843  -6.757  0.00  0.00     0.114 C 
ATOM     31  S   ASG d 610      36.419  29.423  -6.306  0.00  0.00     0.252 S 
ATOM     32  C2  ASG d 610      32.113  28.578  -6.021  0.00  0.00     0.087 C 
ATOM     33  C1  ASG d 610      31.991  27.267  -5.252  0.00  0.00     0.154 C 
ATOM     34  C6  ASG d 610      35.380  25.817  -5.543  0.00  0.00     0.043 C 
ATOM     35  OSC ASG d 610      36.798  30.499  -5.370  0.00  0.00    -0.572 OA
ATOM     36  O4  ASG d 610      35.023  28.770  -5.848  0.00  0.00    -0.246 OA
ATOM     37  C8  ASG d 610      28.856  30.470  -6.437  0.00  0.00    -0.003 C 
ATOM     38  H   ASG d 610      30.272  28.426  -7.065  0.00  0.00     0.163 HD
ATOM     39  H   ASG d 610      33.665  25.878  -6.762  0.00  0.00     0.090 H 
ATOM     40  H   ASG d 610      32.598  27.675  -7.895  0.00  0.00     0.091 H 
ATOM     41  H   ASG d 610      35.910  24.079  -4.783  0.00  0.00     0.209 HD
ATOM     42  H   ASG d 610      35.041  27.706  -7.594  0.00  0.00     0.093 H 
ATOM     43  H   ASG d 610      32.531  29.329  -5.383  0.00  0.00     0.084 H 
ATOM     44  H   ASG d 610      31.498  26.552  -5.877  0.00  0.00     0.132 H 
ATOM     45  H   ASG d 610      35.796  26.380  -4.734  0.00  0.00     0.078 H 
ATOM     46  H   ASG d 610      36.073  25.752  -6.355  0.00  0.00     0.078 H 
ATOM     47  H   ASG d 610      28.578  31.427  -6.048  0.00  0.00     0.040 H 
ATOM     48  H   ASG d 610      28.210  29.719  -6.034  0.00  0.00     0.040 H 
ATOM     49  H   ASG d 610      28.768  30.480  -7.503  0.00  0.00     0.040 H 
ATOM     50  C8  ASG d 608      29.648  24.875   3.588  0.00  0.00    -0.003 C 
ATOM     51  C6  ASG d 608      24.426  22.122  -1.929  0.00  0.00     0.043 C 
ATOM     52  O7  ASG d 608      29.643  22.817   2.389  0.00  0.00    -0.274 OA
ATOM     53  S   ASG d 608      28.095  21.211  -2.571  0.00  0.00     0.252 S 
ATOM     54  OSC ASG d 608      29.542  21.274  -2.282  0.00  0.00    -0.572 OA
ATOM     55  N   ASG d 608      27.877  24.186   2.059  0.00  0.00    -0.349 N 
ATOM     56  O6  ASG d 608      24.253  22.734  -3.204  0.00  0.00    -0.398 OA
ATOM     57  O5  ASG d 608      25.088  22.417   0.342  0.00  0.00    -0.349 OA
ATOM     58  C1  ASG d 608      25.764  23.153   1.381  0.00  0.00     0.151 C 
ATOM     59  C4  ASG d 608      26.707  23.087  -1.338  0.00  0.00     0.114 C 
ATOM     60  OSB ASG d 608      27.846  22.117  -3.707  0.00  0.00    -0.572 OA
ATOM     61  C3  ASG d 608      27.441  23.929  -0.317  0.00  0.00     0.094 C 
ATOM     62  O4  ASG d 608      27.186  21.731  -1.370  0.00  0.00    -0.246 OA
ATOM     63  C5  ASG d 608      25.225  23.013  -0.969  0.00  0.00     0.090 C 
ATOM     64  O1  ASG d 608      25.625  22.445   2.562  0.00  0.00    -0.369 OA
ATOM     65  C7  ASG d 608      29.047  23.870   2.614  0.00  0.00     0.214 C 
ATOM     66  C2  ASG d 608      27.264  23.316   1.067  0.00  0.00     0.087 C 
ATOM     67  O3  ASG d 608      28.840  24.007  -0.651  0.00  0.00    -0.348 OA
ATOM     68  OSA ASG d 608      27.587  19.861  -2.893  0.00  0.00    -0.572 OA
ATOM     69  H   ASG d 608      30.580  24.501   3.957  0.00  0.00     0.040 H 
ATOM     70  H   ASG d 608      28.975  25.025   4.406  0.00  0.00     0.040 H 
ATOM     71  H   ASG d 608      29.812  25.805   3.086  0.00  0.00     0.040 H 
ATOM     72  H   ASG d 608      23.464  21.931  -1.503  0.00  0.00     0.078 H 
ATOM     73  H   ASG d 608      24.974  21.213  -2.070  0.00  0.00     0.078 H 
ATOM     74  H   ASG d 608      27.423  25.018   2.324  0.00  0.00     0.163 HD
ATOM     75  H   ASG d 608      23.758  23.561  -3.100  0.00  0.00     0.209 HD
ATOM     76  H   ASG d 608      25.333  24.130   1.457  0.00  0.00     0.132 H 
ATOM     77  H   ASG d 608      26.868  23.550  -2.289  0.00  0.00     0.093 H 
ATOM     78  H   ASG d 608      27.036  24.919  -0.318  0.00  0.00     0.091 H 
ATOM     79  H   ASG d 608      24.849  24.014  -1.011  0.00  0.00     0.090 H 
ATOM     80  H   ASG d 608      26.025  21.567   2.462  0.00  0.00     0.212 HD
ATOM     81  H   ASG d 608      27.732  22.354   1.092  0.00  0.00     0.084 H 
ATOM     82  O6B GCD d 611      35.037  26.762 -12.011  0.00  0.00    -0.642 OA
ATOM     83  C6  GCD d 611      35.429  27.966 -11.747  0.00  0.00     0.233 C 
ATOM     84  C5  GCD d 611      34.373  28.961 -11.337  0.00  0.00     0.147 C 
ATOM     85  C2  GCD d 611      32.603  30.865  -9.879  0.00  0.00     0.111 C 
ATOM     86  O6A GCD d 611      36.615  28.476 -11.697  0.00  0.00    -0.642 OA
ATOM     87  C4  GCD d 611      33.487  29.616 -12.132  0.00  0.00    -0.034 C 
ATOM     88  C1  GCD d 611      32.955  29.533  -9.297  0.00  0.00     0.165 C 
ATOM     89  O3  GCD d 611      32.262  31.917 -11.971  0.00  0.00    -0.389 OA
ATOM     90  O5  GCD d 611      34.313  29.210  -9.882  0.00  0.00    -0.311 OA
ATOM     91  O2  GCD d 611      31.304  31.302  -9.384  0.00  0.00    -0.388 OA
ATOM     92  C3  GCD d 611      32.486  30.607 -11.430  0.00  0.00     0.084 C 
ATOM     93  H   GCD d 611      33.327  31.612  -9.628  0.00  0.00     0.095 H 
ATOM     94  H   GCD d 611      33.471  29.469 -13.153  0.00  0.00     0.085 H 
ATOM     95  H   GCD d 611      32.181  28.822  -9.496  0.00  0.00     0.134 H 
ATOM     96  H   GCD d 611      31.621  32.390 -11.418  0.00  0.00     0.210 HD
ATOM     97  H   GCD d 611      30.634  30.636  -9.603  0.00  0.00     0.210 HD
ATOM     98  H   GCD d 611      31.675  29.952 -11.666  0.00  0.00     0.093 H 
ENDROOT
TORSDOF 25
ENDMDL
MODEL 33
REMARK VINA RESULT:      -7.2      2.772      5.784
REMARK  0 active torsions:
REMARK  status: ('A' for Active; 'I' for Inactive)
REMARK       I    between atoms: O3_1  and  C3_6 
REMARK       I    between atoms: O3_3  and  C3_16 
REMARK       I    between atoms: O3_3  and  C1_32 
REMARK       I    between atoms: C8_5  and  C7_53 
REMARK       I    between atoms: C6_7  and  C5_47 
REMARK       I    between atoms: C6_7  and  O6_29 
REMARK       I    between atoms: O4_8  and  C4_45 
REMARK       I    between atoms: O4_8  and  C1_39 
REMARK       I    between atoms: N_10  and  C2_35 
REMARK       I    between atoms: N_10  and  C7_17 
REMARK       I    between atoms: C5_12  and  C6_42 
REMARK       I    between atoms: C1_14  and  O3_57 
REMARK       I    between atoms: C6_15  and  C5_20 
REMARK       I    between atoms: C7_17  and  C8_54 
REMARK       I    between atoms: O6_18  and  C6_42 
REMARK       I    between atoms: S_19  and  O4_46 
REMARK       I    between atoms: C4_22  and  O4_50 
REMARK       I    between atoms: C2_23  and  O2_51 
REMARK       I    between atoms: S_26  and  O4_50 
REMARK       I    between atoms: N_27  and  C2_56 
REMARK       I    between atoms: N_27  and  C7_53 
REMARK       I    between atoms: C5_31  and  C6_55 
REMARK       I    between atoms: C1_33  and  O1_48 
REMARK       I    between atoms: C4_34  and  O4_46 
REMARK       I    between atoms: C3_40  and  O3_57 
REMARK       I    between atoms: C2_41  and  O2_60 
REMARK       I    between atoms: O3_43  and  C3_52 
ROOT
ATOM      1  O3  BDP d 609      30.383  26.516  -2.800  0.00  0.00    -0.390 OA
ATOM      2  C3  BDP d 609      29.080  25.982  -2.603  0.00  0.00     0.092 C 
ATOM      3  O4  BDP d 609      28.370  26.734  -4.755  0.00  0.00    -0.348 OA
ATOM      4  C1  BDP d 609      27.789  24.080  -1.602  0.00  0.00     0.160 C 
ATOM      5  C5  BDP d 609      27.173  24.873  -3.778  0.00  0.00     0.152 C 
ATOM      6  O5  BDP d 609      27.330  23.726  -2.923  0.00  0.00    -0.340 OA
ATOM      7  O6B BDP d 609      27.249  23.537  -5.742  0.00  0.00    -0.646 OA
ATOM      8  C2  BDP d 609      29.153  24.780  -1.672  0.00  0.00     0.110 C 
ATOM      9  C4  BDP d 609      28.521  25.563  -3.949  0.00  0.00     0.103 C 
ATOM     10  C6  BDP d 609      26.595  24.378  -5.091  0.00  0.00     0.206 C 
ATOM     11  O6A BDP d 609      25.504  24.873  -5.447  0.00  0.00    -0.646 OA
ATOM     12  O2  BDP d 609      29.524  25.212  -0.371  0.00  0.00    -0.388 OA
ATOM     13  H   BDP d 609      30.754  26.789  -1.946  0.00  0.00     0.210 HD
ATOM     14  H   BDP d 609      28.445  26.719  -2.160  0.00  0.00     0.091 H 
ATOM     15  H   BDP d 609      27.087  24.749  -1.151  0.00  0.00     0.133 H 
ATOM     16  H   BDP d 609      26.508  25.600  -3.362  0.00  0.00     0.104 H 
ATOM     17  H   BDP d 609      29.881  24.093  -2.050  0.00  0.00     0.094 H 
ATOM     18  H   BDP d 609      29.189  24.872  -4.419  0.00  0.00     0.092 H 
ATOM     19  H   BDP d 609      28.860  25.835  -0.036  0.00  0.00     0.210 HD
ATOM     20  O7  ASG d 610      26.678  29.821  -5.987  0.00  0.00    -0.274 OA
ATOM     21  O3  ASG d 610      28.692  29.068  -8.922  0.00  0.00    -0.348 OA
ATOM     22  OSB ASG d 610      31.564  30.384  -9.324  0.00  0.00    -0.572 OA
ATOM     23  OSA ASG d 610      33.378  29.350  -8.123  0.00  0.00    -0.572 OA
ATOM     24  N   ASG d 610      26.985  27.825  -6.990  0.00  0.00    -0.349 N 
ATOM     25  C5  ASG d 610      30.962  26.572  -7.230  0.00  0.00     0.090 C 
ATOM     26  C3  ASG d 610      29.106  27.901  -8.184  0.00  0.00     0.094 C 
ATOM     27  C7  ASG d 610      26.221  28.795  -6.497  0.00  0.00     0.214 C 
ATOM     28  O6  ASG d 610      32.695  25.048  -6.482  0.00  0.00    -0.398 OA
ATOM     29  O5  ASG d 610      30.324  26.622  -5.939  0.00  0.00    -0.349 OA
ATOM     30  C4  ASG d 610      30.634  27.855  -8.000  0.00  0.00     0.114 C 
ATOM     31  S   ASG d 610      32.080  30.030  -7.987  0.00  0.00     0.252 S 
ATOM     32  C2  ASG d 610      28.424  27.879  -6.823  0.00  0.00     0.087 C 
ATOM     33  C1  ASG d 610      28.887  26.660  -6.033  0.00  0.00     0.154 C 
ATOM     34  C6  ASG d 610      32.444  26.349  -6.994  0.00  0.00     0.043 C 
ATOM     35  OSC ASG d 610      32.255  31.238  -7.158  0.00  0.00    -0.572 OA
ATOM     36  O4  ASG d 610      31.089  29.002  -7.248  0.00  0.00    -0.246 OA
ATOM     37  C8  ASG d 610      24.711  28.596  -6.586  0.00  0.00    -0.003 C 
ATOM     38  H   ASG d 610      26.573  27.070  -7.469  0.00  0.00     0.163 HD
ATOM     39  H   ASG d 610      30.606  25.767  -7.839  0.00  0.00     0.090 H 
ATOM     40  H   ASG d 610      28.815  27.040  -8.748  0.00  0.00     0.091 H 
ATOM     41  H   ASG d 610      33.648  24.934  -6.341  0.00  0.00     0.209 HD
ATOM     42  H   ASG d 610      31.123  27.871  -8.951  0.00  0.00     0.093 H 
ATOM     43  H   ASG d 610      28.686  28.770  -6.291  0.00  0.00     0.084 H 
ATOM     44  H   ASG d 610      28.547  25.780  -6.538  0.00  0.00     0.132 H 
ATOM     45  H   ASG d 610      32.798  27.075  -6.292  0.00  0.00     0.078 H 
ATOM     46  H   ASG d 610      32.953  26.448  -7.930  0.00  0.00     0.078 H 
ATOM     47  H   ASG d 610      24.214  29.441  -6.157  0.00  0.00     0.040 H 
ATOM     48  H   ASG d 610      24.436  27.711  -6.052  0.00  0.00     0.040 H 
ATOM     49  H   ASG d 610      24.425  28.497  -7.612  0.00  0.00     0.040 H 
ATOM     50  C8  ASG d 608      29.176  24.320   3.121  0.00  0.00    -0.003 C 
ATOM     51  C6  ASG d 608      24.200  19.637  -1.191  0.00  0.00     0.043 C 
ATOM     52  O7  ASG d 608      29.619  22.284   1.968  0.00  0.00    -0.274 OA
ATOM     53  S   ASG d 608      27.773  19.898  -2.558  0.00  0.00     0.252 S 
ATOM     54  OSC ASG d 608      29.146  20.441  -2.570  0.00  0.00    -0.572 OA
ATOM     55  N   ASG d 608      27.473  22.988   1.991  0.00  0.00    -0.349 N 
ATOM     56  O6  ASG d 608      23.598  20.063  -2.410  0.00  0.00    -0.398 OA
ATOM     57  O5  ASG d 608      25.146  20.298   0.895  0.00  0.00    -0.349 OA
ATOM     58  C1  ASG d 608      25.726  21.288   1.768  0.00  0.00     0.151 C 
ATOM     59  C4  ASG d 608      26.107  21.321  -1.086  0.00  0.00     0.114 C 
ATOM     60  OSB ASG d 608      27.031  20.589  -3.627  0.00  0.00    -0.572 OA
ATOM     61  C3  ASG d 608      26.704  22.427  -0.244  0.00  0.00     0.094 C 
ATOM     62  O4  ASG d 608      26.989  20.190  -1.202  0.00  0.00    -0.246 OA
ATOM     63  C5  ASG d 608      24.829  20.805  -0.422  0.00  0.00     0.090 C 
ATOM     64  O1  ASG d 608      26.054  20.664   2.959  0.00  0.00    -0.369 OA
ATOM     65  C7  ASG d 608      28.764  23.105   2.299  0.00  0.00     0.214 C 
ATOM     66  C2  ASG d 608      27.003  21.896   1.153  0.00  0.00     0.087 C 
ATOM     67  O3  ASG d 608      27.910  22.922  -0.856  0.00  0.00    -0.348 OA
ATOM     68  OSA ASG d 608      27.684  18.437  -2.756  0.00  0.00    -0.572 OA
ATOM     69  H   ASG d 608      30.231  24.292   3.296  0.00  0.00     0.040 H 
ATOM     70  H   ASG d 608      28.658  24.309   4.058  0.00  0.00     0.040 H 
ATOM     71  H   ASG d 608      28.928  25.213   2.587  0.00  0.00     0.040 H 
ATOM     72  H   ASG d 608      23.452  19.182  -0.576  0.00  0.00     0.078 H 
ATOM     73  H   ASG d 608      24.978  18.942  -1.432  0.00  0.00     0.078 H 
ATOM     74  H   ASG d 608      26.830  23.650   2.335  0.00  0.00     0.163 HD
ATOM     75  H   ASG d 608      22.888  20.695  -2.216  0.00  0.00     0.209 HD
ATOM     76  H   ASG d 608      25.022  22.079   1.920  0.00  0.00     0.132 H 
ATOM     77  H   ASG d 608      25.925  21.738  -2.054  0.00  0.00     0.093 H 
ATOM     78  H   ASG d 608      26.004  23.233  -0.172  0.00  0.00     0.091 H 
ATOM     79  H   ASG d 608      24.146  21.628  -0.396  0.00  0.00     0.090 H 
ATOM     80  H   ASG d 608      26.692  19.954   2.787  0.00  0.00     0.212 HD
ATOM     81  H   ASG d 608      27.756  21.139   1.092  0.00  0.00     0.084 H 
ATOM     82  O6B GCD d 611      30.593  26.644 -13.265  0.00  0.00    -0.642 OA
ATOM     83  C6  GCD d 611      30.611  27.927 -13.098  0.00  0.00     0.233 C 
ATOM     84  C5  GCD d 611      29.385  28.561 -12.492  0.00  0.00     0.147 C 
ATOM     85  C2  GCD d 611      27.399  29.905 -10.722  0.00  0.00     0.111 C 
ATOM     86  O6A GCD d 611      31.551  28.791 -13.295  0.00  0.00    -0.642 OA
ATOM     87  C4  GCD d 611      28.200  28.837 -13.096  0.00  0.00    -0.034 C 
ATOM     88  C1  GCD d 611      28.271  28.803 -10.212  0.00  0.00     0.165 C 
ATOM     89  O3  GCD d 611      26.342  30.632 -12.711  0.00  0.00    -0.389 OA
ATOM     90  O5  GCD d 611      29.523  28.887 -11.057  0.00  0.00    -0.311 OA
ATOM     91  O2  GCD d 611      26.147  29.941  -9.976  0.00  0.00    -0.388 OA
ATOM     92  C3  GCD d 611      27.082  29.507 -12.214  0.00  0.00     0.084 C 
ATOM     93  H   GCD d 611      27.871  30.861 -10.630  0.00  0.00     0.095 H 
ATOM     94  H   GCD d 611      28.040  28.616 -14.091  0.00  0.00     0.085 H 
ATOM     95  H   GCD d 611      27.750  27.869 -10.242  0.00  0.00     0.134 H 
ATOM     96  H   GCD d 611      25.698  30.916 -12.043  0.00  0.00     0.210 HD
ATOM     97  H   GCD d 611      25.703  29.081 -10.048  0.00  0.00     0.210 HD
ATOM     98  H   GCD d 611      26.500  28.611 -12.274  0.00  0.00     0.093 H 
ENDROOT
TORSDOF 25
ENDMDL
MODEL 34
REMARK VINA RESULT:      -7.2      4.716     11.992
REMARK  0 active torsions:
REMARK  status: ('A' for Active; 'I' for Inactive)
REMARK       I    between atoms: O3_1  and  C3_6 
REMARK       I    between atoms: O3_3  and  C3_16 
REMARK       I    between atoms: O3_3  and  C1_32 
REMARK       I    between atoms: C8_5  and  C7_53 
REMARK       I    between atoms: C6_7  and  C5_47 
REMARK       I    between atoms: C6_7  and  O6_29 
REMARK       I    between atoms: O4_8  and  C4_45 
REMARK       I    between atoms: O4_8  and  C1_39 
REMARK       I    between atoms: N_10  and  C2_35 
REMARK       I    between atoms: N_10  and  C7_17 
REMARK       I    between atoms: C5_12  and  C6_42 
REMARK       I    between atoms: C1_14  and  O3_57 
REMARK       I    between atoms: C6_15  and  C5_20 
REMARK       I    between atoms: C7_17  and  C8_54 
REMARK       I    between atoms: O6_18  and  C6_42 
REMARK       I    between atoms: S_19  and  O4_46 
REMARK       I    between atoms: C4_22  and  O4_50 
REMARK       I    between atoms: C2_23  and  O2_51 
REMARK       I    between atoms: S_26  and  O4_50 
REMARK       I    between atoms: N_27  and  C2_56 
REMARK       I    between atoms: N_27  and  C7_53 
REMARK       I    between atoms: C5_31  and  C6_55 
REMARK       I    between atoms: C1_33  and  O1_48 
REMARK       I    between atoms: C4_34  and  O4_46 
REMARK       I    between atoms: C3_40  and  O3_57 
REMARK       I    between atoms: C2_41  and  O2_60 
REMARK       I    between atoms: O3_43  and  C3_52 
ROOT
ATOM      1  O3  BDP d 609      29.284  24.386  -8.221  0.00  0.00    -0.390 OA
ATOM      2  C3  BDP d 609      30.442  23.655  -7.841  0.00  0.00     0.092 C 
ATOM      3  O4  BDP d 609      29.435  22.994  -5.780  0.00  0.00    -0.348 OA
ATOM      4  C1  BDP d 609      32.306  22.206  -8.689  0.00  0.00     0.160 C 
ATOM      5  C5  BDP d 609      31.208  21.596  -6.648  0.00  0.00     0.152 C 
ATOM      6  O5  BDP d 609      31.811  21.128  -7.869  0.00  0.00    -0.340 OA
ATOM      7  O6B BDP d 609      30.019  19.560  -6.345  0.00  0.00    -0.646 OA
ATOM      8  C2  BDP d 609      31.165  23.154  -9.084  0.00  0.00     0.110 C 
ATOM      9  C4  BDP d 609      30.013  22.481  -6.982  0.00  0.00     0.103 C 
ATOM     10  C6  BDP d 609      30.824  20.370  -5.840  0.00  0.00     0.206 C 
ATOM     11  O6A BDP d 609      31.325  20.270  -4.699  0.00  0.00    -0.646 OA
ATOM     12  O2  BDP d 609      31.701  24.260  -9.796  0.00  0.00    -0.388 OA
ATOM     13  H   BDP d 609      29.545  25.142  -8.772  0.00  0.00     0.210 HD
ATOM     14  H   BDP d 609      31.109  24.283  -7.288  0.00  0.00     0.091 H 
ATOM     15  H   BDP d 609      33.034  22.763  -8.139  0.00  0.00     0.133 H 
ATOM     16  H   BDP d 609      31.879  22.194  -6.068  0.00  0.00     0.104 H 
ATOM     17  H   BDP d 609      30.468  22.627  -9.701  0.00  0.00     0.094 H 
ATOM     18  H   BDP d 609      29.300  21.887  -7.513  0.00  0.00     0.092 H 
ATOM     19  H   BDP d 609      32.331  24.734  -9.230  0.00  0.00     0.210 HD
ATOM     20  O7  ASG d 610      29.457  24.396  -2.324  0.00  0.00    -0.274 OA
ATOM     21  O3  ASG d 610      26.122  22.942  -2.324  0.00  0.00    -0.348 OA
ATOM     22  OSB ASG d 610      23.572  24.684  -3.102  0.00  0.00    -0.572 OA
ATOM     23  OSA ASG d 610      23.173  24.979  -5.459  0.00  0.00    -0.572 OA
ATOM     24  N   ASG d 610      28.825  22.366  -3.071  0.00  0.00    -0.349 N 
ATOM     25  C5  ASG d 610      25.904  22.424  -6.057  0.00  0.00     0.090 C 
ATOM     26  C3  ASG d 610      26.462  22.478  -3.646  0.00  0.00     0.094 C 
ATOM     27  C7  ASG d 610      29.589  23.170  -2.338  0.00  0.00     0.214 C 
ATOM     28  O6  ASG d 610      25.326  22.070  -8.387  0.00  0.00    -0.398 OA
ATOM     29  O5  ASG d 610      27.226  22.908  -6.365  0.00  0.00    -0.349 OA
ATOM     30  C4  ASG d 610      25.466  22.993  -4.703  0.00  0.00     0.114 C 
ATOM     31  S   ASG d 610      24.129  25.210  -4.365  0.00  0.00     0.252 S 
ATOM     32  C2  ASG d 610      27.870  22.926  -4.008  0.00  0.00     0.087 C 
ATOM     33  C1  ASG d 610      28.214  22.460  -5.419  0.00  0.00     0.154 C 
ATOM     34  C6  ASG d 610      25.001  22.805  -7.214  0.00  0.00     0.043 C 
ATOM     35  OSC ASG d 610      24.394  26.658  -4.256  0.00  0.00    -0.572 OA
ATOM     36  O4  ASG d 610      25.483  24.436  -4.755  0.00  0.00    -0.246 OA
ATOM     37  C8  ASG d 610      30.665  22.509  -1.483  0.00  0.00    -0.003 C 
ATOM     38  H   ASG d 610      28.907  21.389  -2.978  0.00  0.00     0.163 HD
ATOM     39  H   ASG d 610      25.865  21.359  -5.952  0.00  0.00     0.090 H 
ATOM     40  H   ASG d 610      26.412  21.410  -3.638  0.00  0.00     0.091 H 
ATOM     41  H   ASG d 610      24.734  22.334  -9.108  0.00  0.00     0.209 HD
ATOM     42  H   ASG d 610      24.472  22.684  -4.458  0.00  0.00     0.093 H 
ATOM     43  H   ASG d 610      27.916  23.994  -3.964  0.00  0.00     0.084 H 
ATOM     44  H   ASG d 610      28.244  21.390  -5.424  0.00  0.00     0.132 H 
ATOM     45  H   ASG d 610      25.113  23.850  -7.414  0.00  0.00     0.078 H 
ATOM     46  H   ASG d 610      23.991  22.577  -6.943  0.00  0.00     0.078 H 
ATOM     47  H   ASG d 610      31.205  23.259  -0.946  0.00  0.00     0.040 H 
ATOM     48  H   ASG d 610      31.337  21.966  -2.114  0.00  0.00     0.040 H 
ATOM     49  H   ASG d 610      30.206  21.836  -0.790  0.00  0.00     0.040 H 
ATOM     50  C8  ASG d 608      34.397  25.149 -12.045  0.00  0.00    -0.003 C 
ATOM     51  C6  ASG d 608      35.796  17.701  -9.242  0.00  0.00     0.043 C 
ATOM     52  O7  ASG d 608      33.569  23.052 -12.813  0.00  0.00    -0.274 OA
ATOM     53  S   ASG d 608      32.225  18.317 -10.497  0.00  0.00     0.252 S 
ATOM     54  OSC ASG d 608      31.138  19.169 -11.018  0.00  0.00    -0.572 OA
ATOM     55  N   ASG d 608      35.070  22.991 -11.127  0.00  0.00    -0.349 N 
ATOM     56  O6  ASG d 608      35.373  17.266  -7.952  0.00  0.00    -0.398 OA
ATOM     57  O5  ASG d 608      36.402  19.554 -10.613  0.00  0.00    -0.349 OA
ATOM     58  C1  ASG d 608      36.427  20.967 -10.898  0.00  0.00     0.151 C 
ATOM     59  C4  ASG d 608      34.245  19.702  -9.511  0.00  0.00     0.114 C 
ATOM     60  OSB ASG d 608      31.970  18.130  -9.058  0.00  0.00    -0.572 OA
ATOM     61  C3  ASG d 608      34.222  21.200  -9.723  0.00  0.00     0.094 C 
ATOM     62  O4  ASG d 608      33.666  18.987 -10.617  0.00  0.00    -0.246 OA
ATOM     63  C5  ASG d 608      35.693  19.223  -9.397  0.00  0.00     0.090 C 
ATOM     64  O1  ASG d 608      37.060  21.143 -12.117  0.00  0.00    -0.369 OA
ATOM     65  C7  ASG d 608      34.310  23.628 -12.018  0.00  0.00     0.214 C 
ATOM     66  C2  ASG d 608      35.001  21.545 -10.986  0.00  0.00     0.087 C 
ATOM     67  O3  ASG d 608      32.864  21.666  -9.832  0.00  0.00    -0.348 OA
ATOM     68  OSA ASG d 608      32.349  17.000 -11.155  0.00  0.00    -0.572 OA
ATOM     69  H   ASG d 608      33.741  25.530 -12.800  0.00  0.00     0.040 H 
ATOM     70  H   ASG d 608      35.402  25.445 -12.262  0.00  0.00     0.040 H 
ATOM     71  H   ASG d 608      34.108  25.539 -11.092  0.00  0.00     0.040 H 
ATOM     72  H   ASG d 608      36.814  17.407  -9.388  0.00  0.00     0.078 H 
ATOM     73  H   ASG d 608      35.154  17.250  -9.970  0.00  0.00     0.078 H 
ATOM     74  H   ASG d 608      35.686  23.506 -10.557  0.00  0.00     0.163 HD
ATOM     75  H   ASG d 608      35.941  17.664  -7.275  0.00  0.00     0.209 HD
ATOM     76  H   ASG d 608      36.943  21.475 -10.111  0.00  0.00     0.132 H 
ATOM     77  H   ASG d 608      33.680  19.510  -8.622  0.00  0.00     0.093 H 
ATOM     78  H   ASG d 608      34.679  21.682  -8.884  0.00  0.00     0.091 H 
ATOM     79  H   ASG d 608      36.106  19.701  -8.533  0.00  0.00     0.090 H 
ATOM     80  H   ASG d 608      36.569  20.672 -12.807  0.00  0.00     0.212 HD
ATOM     81  H   ASG d 608      34.504  21.124 -11.835  0.00  0.00     0.084 H 
ATOM     82  O6B GCD d 611      22.151  19.397  -2.407  0.00  0.00    -0.642 OA
ATOM     83  C6  GCD d 611      22.082  20.531  -1.789  0.00  0.00     0.233 C 
ATOM     84  C5  GCD d 611      23.305  20.978  -1.028  0.00  0.00     0.147 C 
ATOM     85  C2  GCD d 611      25.767  22.348  -0.059  0.00  0.00     0.111 C 
ATOM     86  O6A GCD d 611      21.148  21.423  -1.763  0.00  0.00    -0.642 OA
ATOM     87  C4  GCD d 611      23.737  20.548   0.185  0.00  0.00    -0.034 C 
ATOM     88  C1  GCD d 611      25.609  21.964  -1.495  0.00  0.00     0.165 C 
ATOM     89  O3  GCD d 611      25.126  21.644   2.108  0.00  0.00    -0.389 OA
ATOM     90  O5  GCD d 611      24.115  21.993  -1.733  0.00  0.00    -0.311 OA
ATOM     91  O2  GCD d 611      27.179  22.368   0.304  0.00  0.00    -0.388 OA
ATOM     92  C3  GCD d 611      25.059  21.193   0.747  0.00  0.00     0.084 C 
ATOM     93  H   GCD d 611      25.356  23.316   0.141  0.00  0.00     0.095 H 
ATOM     94  H   GCD d 611      23.222  19.829   0.716  0.00  0.00     0.085 H 
ATOM     95  H   GCD d 611      26.093  21.029  -1.687  0.00  0.00     0.134 H 
ATOM     96  H   GCD d 611      26.007  22.010   2.284  0.00  0.00     0.210 HD
ATOM     97  H   GCD d 611      27.569  21.497   0.129  0.00  0.00     0.210 HD
ATOM     98  H   GCD d 611      25.563  20.257   0.629  0.00  0.00     0.093 H 
ENDROOT
TORSDOF 25
ENDMDL
MODEL 35
REMARK VINA RESULT:      -7.1      2.700      5.601
REMARK  0 active torsions:
REMARK  status: ('A' for Active; 'I' for Inactive)
REMARK       I    between atoms: O3_1  and  C3_6 
REMARK       I    between atoms: O3_3  and  C3_16 
REMARK       I    between atoms: O3_3  and  C1_32 
REMARK       I    between atoms: C8_5  and  C7_53 
REMARK       I    between atoms: C6_7  and  C5_47 
REMARK       I    between atoms: C6_7  and  O6_29 
REMARK       I    between atoms: O4_8  and  C4_45 
REMARK       I    between atoms: O4_8  and  C1_39 
REMARK       I    between atoms: N_10  and  C2_35 
REMARK       I    between atoms: N_10  and  C7_17 
REMARK       I    between atoms: C5_12  and  C6_42 
REMARK       I    between atoms: C1_14  and  O3_57 
REMARK       I    between atoms: C6_15  and  C5_20 
REMARK       I    between atoms: C7_17  and  C8_54 
REMARK       I    between atoms: O6_18  and  C6_42 
REMARK       I    between atoms: S_19  and  O4_46 
REMARK       I    between atoms: C4_22  and  O4_50 
REMARK       I    between atoms: C2_23  and  O2_51 
REMARK       I    between atoms: S_26  and  O4_50 
REMARK       I    between atoms: N_27  and  C2_56 
REMARK       I    between atoms: N_27  and  C7_53 
REMARK       I    between atoms: C5_31  and  C6_55 
REMARK       I    between atoms: C1_33  and  O1_48 
REMARK       I    between atoms: C4_34  and  O4_46 
REMARK       I    between atoms: C3_40  and  O3_57 
REMARK       I    between atoms: C2_41  and  O2_60 
REMARK       I    between atoms: O3_43  and  C3_52 
ROOT
ATOM      1  O3  BDP d 609      31.052  26.745  -2.757  0.00  0.00    -0.390 OA
ATOM      2  C3  BDP d 609      29.697  26.327  -2.651  0.00  0.00     0.092 C 
ATOM      3  O4  BDP d 609      29.197  27.157  -4.833  0.00  0.00    -0.348 OA
ATOM      4  C1  BDP d 609      28.181  24.539  -1.761  0.00  0.00     0.160 C 
ATOM      5  C5  BDP d 609      27.779  25.402  -3.961  0.00  0.00     0.152 C 
ATOM      6  O5  BDP d 609      27.778  24.239  -3.113  0.00  0.00    -0.340 OA
ATOM      7  O6B BDP d 609      27.864  24.081  -5.934  0.00  0.00    -0.646 OA
ATOM      8  C2  BDP d 609      29.603  25.116  -1.734  0.00  0.00     0.110 C 
ATOM      9  C4  BDP d 609      29.191  25.971  -4.036  0.00  0.00     0.103 C 
ATOM     10  C6  BDP d 609      27.246  24.971  -5.315  0.00  0.00     0.206 C 
ATOM     11  O6A BDP d 609      26.228  25.565  -5.732  0.00  0.00    -0.646 OA
ATOM     12  O2  BDP d 609      29.926  25.502  -0.406  0.00  0.00    -0.388 OA
ATOM     13  H   BDP d 609      31.389  26.976  -1.877  0.00  0.00     0.210 HD
ATOM     14  H   BDP d 609      29.102  27.114  -2.239  0.00  0.00     0.091 H 
ATOM     15  H   BDP d 609      27.513  25.265  -1.347  0.00  0.00     0.133 H 
ATOM     16  H   BDP d 609      27.156  26.183  -3.577  0.00  0.00     0.104 H 
ATOM     17  H   BDP d 609      30.290  24.369  -2.075  0.00  0.00     0.094 H 
ATOM     18  H   BDP d 609      29.824  25.227  -4.471  0.00  0.00     0.092 H 
ATOM     19  H   BDP d 609      29.299  26.179  -0.105  0.00  0.00     0.210 HD
ATOM     20  O7  ASG d 610      27.868  30.393  -6.127  0.00  0.00    -0.274 OA
ATOM     21  O3  ASG d 610      29.993  29.488  -8.938  0.00  0.00    -0.348 OA
ATOM     22  OSB ASG d 610      32.990  30.547  -9.137  0.00  0.00    -0.572 OA
ATOM     23  OSA ASG d 610      34.624  29.345  -7.837  0.00  0.00    -0.572 OA
ATOM     24  N   ASG d 610      28.061  28.386  -7.136  0.00  0.00    -0.349 N 
ATOM     25  C5  ASG d 610      31.919  26.786  -7.140  0.00  0.00     0.090 C 
ATOM     26  C3  ASG d 610      30.253  28.283  -8.191  0.00  0.00     0.094 C 
ATOM     27  C7  ASG d 610      27.355  29.416  -6.679  0.00  0.00     0.214 C 
ATOM     28  O6  ASG d 610      33.459  25.107  -6.304  0.00  0.00    -0.398 OA
ATOM     29  O5  ASG d 610      31.206  26.882  -5.891  0.00  0.00    -0.349 OA
ATOM     30  C4  ASG d 610      31.757  28.100  -7.911  0.00  0.00     0.114 C 
ATOM     31  S   ASG d 610      33.385  30.137  -7.775  0.00  0.00     0.252 S 
ATOM     32  C2  ASG d 610      29.486  28.311  -6.877  0.00  0.00     0.087 C 
ATOM     33  C1  ASG d 610      29.787  27.048  -6.076  0.00  0.00     0.154 C 
ATOM     34  C6  ASG d 610      33.357  26.430  -6.813  0.00  0.00     0.043 C 
ATOM     35  OSC ASG d 610      33.612  31.318  -6.919  0.00  0.00    -0.572 OA
ATOM     36  O4  ASG d 610      32.261  29.196  -7.116  0.00  0.00    -0.246 OA
ATOM     37  C8  ASG d 610      25.843  29.353  -6.867  0.00  0.00    -0.003 C 
ATOM     38  H   ASG d 610      27.617  27.675  -7.651  0.00  0.00     0.163 HD
ATOM     39  H   ASG d 610      31.534  26.021  -7.782  0.00  0.00     0.090 H 
ATOM     40  H   ASG d 610      29.925  27.456  -8.785  0.00  0.00     0.091 H 
ATOM     41  H   ASG d 610      34.387  24.908  -6.104  0.00  0.00     0.209 HD
ATOM     42  H   ASG d 610      32.306  28.080  -8.829  0.00  0.00     0.093 H 
ATOM     43  H   ASG d 610      29.790  29.170  -6.317  0.00  0.00     0.084 H 
ATOM     44  H   ASG d 610      29.404  26.206  -6.614  0.00  0.00     0.132 H 
ATOM     45  H   ASG d 610      33.728  27.115  -6.080  0.00  0.00     0.078 H 
ATOM     46  H   ASG d 610      33.933  26.491  -7.713  0.00  0.00     0.078 H 
ATOM     47  H   ASG d 610      25.396  30.235  -6.459  0.00  0.00     0.040 H 
ATOM     48  H   ASG d 610      25.457  28.492  -6.364  0.00  0.00     0.040 H 
ATOM     49  H   ASG d 610      25.616  29.289  -7.910  0.00  0.00     0.040 H 
ATOM     50  C8  ASG d 608      29.275  24.616   3.044  0.00  0.00    -0.003 C 
ATOM     51  C6  ASG d 608      24.194  20.430  -1.642  0.00  0.00     0.043 C 
ATOM     52  O7  ASG d 608      29.610  22.558   1.893  0.00  0.00    -0.274 OA
ATOM     53  S   ASG d 608      27.858  20.384  -2.775  0.00  0.00     0.252 S 
ATOM     54  OSC ASG d 608      29.271  20.803  -2.692  0.00  0.00    -0.572 OA
ATOM     55  N   ASG d 608      27.537  23.451   1.789  0.00  0.00    -0.349 N 
ATOM     56  O6  ASG d 608      23.712  20.919  -2.891  0.00  0.00    -0.398 OA
ATOM     57  O5  ASG d 608      25.058  20.988   0.509  0.00  0.00    -0.349 OA
ATOM     58  C1  ASG d 608      25.666  21.914   1.431  0.00  0.00     0.151 C 
ATOM     59  C4  ASG d 608      26.232  21.937  -1.392  0.00  0.00     0.114 C 
ATOM     60  OSB ASG d 608      27.250  21.147  -3.880  0.00  0.00    -0.572 OA
ATOM     61  C3  ASG d 608      26.868  22.979  -0.498  0.00  0.00     0.094 C 
ATOM     62  O4  ASG d 608      27.016  20.733  -1.468  0.00  0.00    -0.246 OA
ATOM     63  C5  ASG d 608      24.873  21.532  -0.819  0.00  0.00     0.090 C 
ATOM     64  O1  ASG d 608      25.859  21.253   2.632  0.00  0.00    -0.369 OA
ATOM     65  C7  ASG d 608      28.812  23.449   2.180  0.00  0.00     0.214 C 
ATOM     66  C2  ASG d 608      27.028  22.412   0.908  0.00  0.00     0.087 C 
ATOM     67  O3  ASG d 608      28.150  23.369  -1.025  0.00  0.00    -0.348 OA
ATOM     68  OSA ASG d 608      27.653  18.938  -2.999  0.00  0.00    -0.572 OA
ATOM     69  H   ASG d 608      30.310  24.492   3.286  0.00  0.00     0.040 H 
ATOM     70  H   ASG d 608      28.698  24.643   3.945  0.00  0.00     0.040 H 
ATOM     71  H   ASG d 608      29.141  25.531   2.508  0.00  0.00     0.040 H 
ATOM     72  H   ASG d 608      23.371  20.039  -1.083  0.00  0.00     0.078 H 
ATOM     73  H   ASG d 608      24.922  19.671  -1.843  0.00  0.00     0.078 H 
ATOM     74  H   ASG d 608      26.934  24.163   2.100  0.00  0.00     0.163 HD
ATOM     75  H   ASG d 608      23.050  21.609  -2.733  0.00  0.00     0.209 HD
ATOM     76  H   ASG d 608      25.026  22.763   1.549  0.00  0.00     0.132 H 
ATOM     77  H   ASG d 608      26.150  22.377  -2.364  0.00  0.00     0.093 H 
ATOM     78  H   ASG d 608      26.239  23.843  -0.460  0.00  0.00     0.091 H 
ATOM     79  H   ASG d 608      24.265  22.412  -0.824  0.00  0.00     0.090 H 
ATOM     80  H   ASG d 608      26.442  20.491   2.491  0.00  0.00     0.212 HD
ATOM     81  H   ASG d 608      27.714  21.590   0.883  0.00  0.00     0.084 H 
ATOM     82  O6B GCD d 611      31.950  26.941 -13.185  0.00  0.00    -0.642 OA
ATOM     83  C6  GCD d 611      32.070  28.216 -12.999  0.00  0.00     0.233 C 
ATOM     84  C5  GCD d 611      30.868  28.951 -12.463  0.00  0.00     0.147 C 
ATOM     85  C2  GCD d 611      28.898  30.452 -10.805  0.00  0.00     0.111 C 
ATOM     86  O6A GCD d 611      33.093  28.994 -13.123  0.00  0.00    -0.642 OA
ATOM     87  C4  GCD d 611      29.754  29.337 -13.137  0.00  0.00    -0.034 C 
ATOM     88  C1  GCD d 611      29.635  29.273 -10.255  0.00  0.00     0.165 C 
ATOM     89  O3  GCD d 611      28.041  31.287 -12.846  0.00  0.00    -0.389 OA
ATOM     90  O5  GCD d 611      30.941  29.252 -11.018  0.00  0.00    -0.311 OA
ATOM     91  O2  GCD d 611      27.608  30.593 -10.140  0.00  0.00    -0.388 OA
ATOM     92  C3  GCD d 611      28.644  30.097 -12.319  0.00  0.00     0.084 C 
ATOM     93  H   GCD d 611      29.446  31.361 -10.669  0.00  0.00     0.095 H 
ATOM     94  H   GCD d 611      29.640  29.139 -14.143  0.00  0.00     0.085 H 
ATOM     95  H   GCD d 611      29.036  28.389 -10.332  0.00  0.00     0.134 H 
ATOM     96  H   GCD d 611      27.383  31.622 -12.217  0.00  0.00     0.210 HD
ATOM     97  H   GCD d 611      27.096  29.777 -10.252  0.00  0.00     0.210 HD
ATOM     98  H   GCD d 611      27.991  29.257 -12.429  0.00  0.00     0.093 H 
ENDROOT
TORSDOF 25
ENDMDL
MODEL 36
REMARK VINA RESULT:      -7.1      2.795     11.597
REMARK  0 active torsions:
REMARK  status: ('A' for Active; 'I' for Inactive)
REMARK       I    between atoms: O3_1  and  C3_6 
REMARK       I    between atoms: O3_3  and  C3_16 
REMARK       I    between atoms: O3_3  and  C1_32 
REMARK       I    between atoms: C8_5  and  C7_53 
REMARK       I    between atoms: C6_7  and  C5_47 
REMARK       I    between atoms: C6_7  and  O6_29 
REMARK       I    between atoms: O4_8  and  C4_45 
REMARK       I    between atoms: O4_8  and  C1_39 
REMARK       I    between atoms: N_10  and  C2_35 
REMARK       I    between atoms: N_10  and  C7_17 
REMARK       I    between atoms: C5_12  and  C6_42 
REMARK       I    between atoms: C1_14  and  O3_57 
REMARK       I    between atoms: C6_15  and  C5_20 
REMARK       I    between atoms: C7_17  and  C8_54 
REMARK       I    between atoms: O6_18  and  C6_42 
REMARK       I    between atoms: S_19  and  O4_46 
REMARK       I    between atoms: C4_22  and  O4_50 
REMARK       I    between atoms: C2_23  and  O2_51 
REMARK       I    between atoms: S_26  and  O4_50 
REMARK       I    between atoms: N_27  and  C2_56 
REMARK       I    between atoms: N_27  and  C7_53 
REMARK       I    between atoms: C5_31  and  C6_55 
REMARK       I    between atoms: C1_33  and  O1_48 
REMARK       I    between atoms: C4_34  and  O4_46 
REMARK       I    between atoms: C3_40  and  O3_57 
REMARK       I    between atoms: C2_41  and  O2_60 
REMARK       I    between atoms: O3_43  and  C3_52 
ROOT
ATOM      1  O3  BDP d 609      30.797  24.300  -2.099  0.00  0.00    -0.390 OA
ATOM      2  C3  BDP d 609      30.946  24.799  -3.422  0.00  0.00     0.092 C 
ATOM      3  O4  BDP d 609      28.857  23.855  -4.088  0.00  0.00    -0.348 OA
ATOM      4  C1  BDP d 609      31.790  26.724  -4.790  0.00  0.00     0.160 C 
ATOM      5  C5  BDP d 609      29.680  25.740  -5.361  0.00  0.00     0.152 C 
ATOM      6  O5  BDP d 609      30.443  26.956  -5.253  0.00  0.00    -0.340 OA
ATOM      7  O6B BDP d 609      27.618  26.921  -5.320  0.00  0.00    -0.646 OA
ATOM      8  C2  BDP d 609      31.780  26.072  -3.400  0.00  0.00     0.110 C 
ATOM      9  C4  BDP d 609      29.569  25.090  -3.987  0.00  0.00     0.103 C 
ATOM     10  C6  BDP d 609      28.329  26.110  -5.947  0.00  0.00     0.206 C 
ATOM     11  O6A BDP d 609      28.009  25.547  -7.017  0.00  0.00    -0.646 OA
ATOM     12  O2  BDP d 609      33.113  25.757  -3.023  0.00  0.00    -0.388 OA
ATOM     13  H   BDP d 609      31.672  24.109  -1.725  0.00  0.00     0.210 HD
ATOM     14  H   BDP d 609      31.443  24.075  -4.033  0.00  0.00     0.091 H 
ATOM     15  H   BDP d 609      32.288  26.066  -5.470  0.00  0.00     0.133 H 
ATOM     16  H   BDP d 609      30.149  25.023  -6.001  0.00  0.00     0.104 H 
ATOM     17  H   BDP d 609      31.353  26.754  -2.696  0.00  0.00     0.094 H 
ATOM     18  H   BDP d 609      29.050  25.767  -3.342  0.00  0.00     0.092 H 
ATOM     19  H   BDP d 609      33.493  25.138  -3.666  0.00  0.00     0.210 HD
ATOM     20  O7  ASG d 610      27.863  20.620  -5.656  0.00  0.00    -0.274 OA
ATOM     21  O3  ASG d 610      24.886  21.216  -3.650  0.00  0.00    -0.348 OA
ATOM     22  OSB ASG d 610      24.601  19.981  -0.729  0.00  0.00    -0.572 OA
ATOM     23  OSA ASG d 610      25.726  21.173   1.037  0.00  0.00    -0.572 OA
ATOM     24  N   ASG d 610      26.708  22.541  -5.416  0.00  0.00    -0.349 N 
ATOM     25  C5  ASG d 610      26.388  23.920  -1.486  0.00  0.00     0.090 C 
ATOM     26  C3  ASG d 610      25.533  22.452  -3.286  0.00  0.00     0.094 C 
ATOM     27  C7  ASG d 610      27.273  21.585  -6.148  0.00  0.00     0.214 C 
ATOM     28  O6  ASG d 610      27.022  25.562   0.184  0.00  0.00    -0.398 OA
ATOM     29  O5  ASG d 610      27.677  23.947  -2.132  0.00  0.00    -0.349 OA
ATOM     30  C4  ASG d 610      25.720  22.569  -1.761  0.00  0.00     0.114 C 
ATOM     31  S   ASG d 610      25.909  20.458  -0.236  0.00  0.00     0.252 S 
ATOM     32  C2  ASG d 610      26.885  22.554  -3.977  0.00  0.00     0.087 C 
ATOM     33  C1  ASG d 610      27.579  23.848  -3.565  0.00  0.00     0.154 C 
ATOM     34  C6  ASG d 610      26.612  24.215  -0.016  0.00  0.00     0.043 C 
ATOM     35  OSC ASG d 610      26.831  19.325  -0.022  0.00  0.00    -0.572 OA
ATOM     36  O4  ASG d 610      26.561  21.502  -1.270  0.00  0.00    -0.246 OA
ATOM     37  C8  ASG d 610      27.161  21.720  -7.662  0.00  0.00    -0.003 C 
ATOM     38  H   ASG d 610      26.170  23.241  -5.852  0.00  0.00     0.163 HD
ATOM     39  H   ASG d 610      25.716  24.660  -1.867  0.00  0.00     0.090 H 
ATOM     40  H   ASG d 610      24.902  23.255  -3.604  0.00  0.00     0.091 H 
ATOM     41  H   ASG d 610      27.158  25.722   1.131  0.00  0.00     0.209 HD
ATOM     42  H   ASG d 610      24.774  22.497  -1.265  0.00  0.00     0.093 H 
ATOM     43  H   ASG d 610      27.486  21.718  -3.686  0.00  0.00     0.084 H 
ATOM     44  H   ASG d 610      27.006  24.673  -3.934  0.00  0.00     0.132 H 
ATOM     45  H   ASG d 610      27.370  23.561   0.360  0.00  0.00     0.078 H 
ATOM     46  H   ASG d 610      25.689  24.063   0.504  0.00  0.00     0.078 H 
ATOM     47  H   ASG d 610      27.653  20.893  -8.131  0.00  0.00     0.040 H 
ATOM     48  H   ASG d 610      27.623  22.633  -7.974  0.00  0.00     0.040 H 
ATOM     49  H   ASG d 610      26.130  21.728  -7.945  0.00  0.00     0.040 H 
ATOM     50  C8  ASG d 608      36.523  26.905  -3.429  0.00  0.00    -0.003 C 
ATOM     51  C6  ASG d 608      31.836  31.048  -8.544  0.00  0.00     0.043 C 
ATOM     52  O7  ASG d 608      35.216  28.860  -3.054  0.00  0.00    -0.274 OA
ATOM     53  S   ASG d 608      30.509  30.814  -4.953  0.00  0.00     0.252 S 
ATOM     54  OSC ASG d 608      30.545  30.324  -3.562  0.00  0.00    -0.572 OA
ATOM     55  N   ASG d 608      35.285  28.080  -5.172  0.00  0.00    -0.349 N 
ATOM     56  O6  ASG d 608      30.652  30.505  -9.121  0.00  0.00    -0.398 OA
ATOM     57  O5  ASG d 608      33.971  30.587  -7.589  0.00  0.00    -0.349 OA
ATOM     58  C1  ASG d 608      34.921  29.691  -6.979  0.00  0.00     0.151 C 
ATOM     59  C4  ASG d 608      32.081  29.450  -6.576  0.00  0.00     0.114 C 
ATOM     60  OSB ASG d 608      29.494  30.015  -5.662  0.00  0.00    -0.572 OA
ATOM     61  C3  ASG d 608      33.010  28.435  -5.945  0.00  0.00     0.094 C 
ATOM     62  O4  ASG d 608      31.880  30.600  -5.736  0.00  0.00    -0.246 OA
ATOM     63  C5  ASG d 608      32.697  29.967  -7.878  0.00  0.00     0.090 C 
ATOM     64  O1  ASG d 608      36.062  30.418  -6.683  0.00  0.00    -0.369 OA
ATOM     65  C7  ASG d 608      35.607  28.035  -3.879  0.00  0.00     0.214 C 
ATOM     66  C2  ASG d 608      34.362  29.085  -5.676  0.00  0.00     0.087 C 
ATOM     67  O3  ASG d 608      32.443  27.939  -4.718  0.00  0.00    -0.348 OA
ATOM     68  OSA ASG d 608      30.197  32.251  -5.095  0.00  0.00    -0.572 OA
ATOM     69  H   ASG d 608      36.700  26.986  -2.377  0.00  0.00     0.040 H 
ATOM     70  H   ASG d 608      37.454  26.970  -3.954  0.00  0.00     0.040 H 
ATOM     71  H   ASG d 608      36.060  25.964  -3.641  0.00  0.00     0.040 H 
ATOM     72  H   ASG d 608      32.410  31.521  -9.312  0.00  0.00     0.078 H 
ATOM     73  H   ASG d 608      31.545  31.750  -7.790  0.00  0.00     0.078 H 
ATOM     74  H   ASG d 608      35.677  27.424  -5.793  0.00  0.00     0.163 HD
ATOM     75  H   ASG d 608      30.892  29.865  -9.808  0.00  0.00     0.209 HD
ATOM     76  H   ASG d 608      35.132  28.889  -7.654  0.00  0.00     0.132 H 
ATOM     77  H   ASG d 608      31.147  28.951  -6.736  0.00  0.00     0.093 H 
ATOM     78  H   ASG d 608      33.141  27.612  -6.615  0.00  0.00     0.091 H 
ATOM     79  H   ASG d 608      32.784  29.124  -8.530  0.00  0.00     0.090 H 
ATOM     80  H   ASG d 608      35.838  31.135  -6.070  0.00  0.00     0.212 HD
ATOM     81  H   ASG d 608      34.245  29.863  -4.951  0.00  0.00     0.084 H 
ATOM     82  O6B GCD d 611      20.375  23.363  -1.808  0.00  0.00    -0.642 OA
ATOM     83  C6  GCD d 611      20.642  22.098  -1.745  0.00  0.00     0.233 C 
ATOM     84  C5  GCD d 611      21.292  21.468  -2.951  0.00  0.00     0.147 C 
ATOM     85  C2  GCD d 611      23.152  20.194  -4.899  0.00  0.00     0.111 C 
ATOM     86  O6A GCD d 611      20.517  21.258  -0.772  0.00  0.00    -0.642 OA
ATOM     87  C4  GCD d 611      20.706  21.102  -4.120  0.00  0.00    -0.034 C 
ATOM     88  C1  GCD d 611      23.579  21.364  -4.071  0.00  0.00     0.165 C 
ATOM     89  O3  GCD d 611      21.222  19.274  -5.913  0.00  0.00    -0.389 OA
ATOM     90  O5  GCD d 611      22.747  21.261  -2.811  0.00  0.00    -0.311 OA
ATOM     91  O2  GCD d 611      23.893  20.169  -6.154  0.00  0.00    -0.388 OA
ATOM     92  C3  GCD d 611      21.632  20.461  -5.219  0.00  0.00     0.084 C 
ATOM     93  H   GCD d 611      23.321  19.266  -4.392  0.00  0.00     0.095 H 
ATOM     94  H   GCD d 611      19.696  21.238  -4.281  0.00  0.00     0.085 H 
ATOM     95  H   GCD d 611      23.473  22.273  -4.627  0.00  0.00     0.134 H 
ATOM     96  H   GCD d 611      21.907  19.019  -6.551  0.00  0.00     0.210 HD
ATOM     97  H   GCD d 611      23.752  21.003  -6.628  0.00  0.00     0.210 HD
ATOM     98  H   GCD d 611      21.500  21.327  -5.833  0.00  0.00     0.093 H 
ENDROOT
TORSDOF 25
ENDMDL
MODEL 37
REMARK VINA RESULT:      -7.1      4.018      7.533
REMARK  0 active torsions:
REMARK  status: ('A' for Active; 'I' for Inactive)
REMARK       I    between atoms: O3_1  and  C3_6 
REMARK       I    between atoms: O3_3  and  C3_16 
REMARK       I    between atoms: O3_3  and  C1_32 
REMARK       I    between atoms: C8_5  and  C7_53 
REMARK       I    between atoms: C6_7  and  C5_47 
REMARK       I    between atoms: C6_7  and  O6_29 
REMARK       I    between atoms: O4_8  and  C4_45 
REMARK       I    between atoms: O4_8  and  C1_39 
REMARK       I    between atoms: N_10  and  C2_35 
REMARK       I    between atoms: N_10  and  C7_17 
REMARK       I    between atoms: C5_12  and  C6_42 
REMARK       I    between atoms: C1_14  and  O3_57 
REMARK       I    between atoms: C6_15  and  C5_20 
REMARK       I    between atoms: C7_17  and  C8_54 
REMARK       I    between atoms: O6_18  and  C6_42 
REMARK       I    between atoms: S_19  and  O4_46 
REMARK       I    between atoms: C4_22  and  O4_50 
REMARK       I    between atoms: C2_23  and  O2_51 
REMARK       I    between atoms: S_26  and  O4_50 
REMARK       I    between atoms: N_27  and  C2_56 
REMARK       I    between atoms: N_27  and  C7_53 
REMARK       I    between atoms: C5_31  and  C6_55 
REMARK       I    between atoms: C1_33  and  O1_48 
REMARK       I    between atoms: C4_34  and  O4_46 
REMARK       I    between atoms: C3_40  and  O3_57 
REMARK       I    between atoms: C2_41  and  O2_60 
REMARK       I    between atoms: O3_43  and  C3_52 
ROOT
ATOM      1  O3  BDP d 609      27.784  25.458  -2.976  0.00  0.00    -0.390 OA
ATOM      2  C3  BDP d 609      26.729  24.637  -2.490  0.00  0.00     0.092 C 
ATOM      3  O4  BDP d 609      25.447  24.990  -4.472  0.00  0.00    -0.348 OA
ATOM      4  C1  BDP d 609      26.198  22.574  -1.168  0.00  0.00     0.160 C 
ATOM      5  C5  BDP d 609      24.988  22.988  -3.195  0.00  0.00     0.152 C 
ATOM      6  O5  BDP d 609      25.601  21.998  -2.348  0.00  0.00    -0.340 OA
ATOM      7  O6B BDP d 609      25.032  21.539  -5.079  0.00  0.00    -0.646 OA
ATOM      8  C2  BDP d 609      27.291  23.581  -1.549  0.00  0.00     0.110 C 
ATOM      9  C4  BDP d 609      26.050  23.972  -3.672  0.00  0.00     0.103 C 
ATOM     10  C6  BDP d 609      24.318  22.247  -4.338  0.00  0.00     0.206 C 
ATOM     11  O6A BDP d 609      23.088  22.422  -4.476  0.00  0.00    -0.646 OA
ATOM     12  O2  BDP d 609      27.780  24.208  -0.373  0.00  0.00    -0.388 OA
ATOM     13  H   BDP d 609      28.228  25.890  -2.229  0.00  0.00     0.210 HD
ATOM     14  H   BDP d 609      26.020  25.231  -1.952  0.00  0.00     0.091 H 
ATOM     15  H   BDP d 609      25.445  23.086  -0.606  0.00  0.00     0.133 H 
ATOM     16  H   BDP d 609      24.250  23.562  -2.678  0.00  0.00     0.104 H 
ATOM     17  H   BDP d 609      28.087  23.064  -2.045  0.00  0.00     0.094 H 
ATOM     18  H   BDP d 609      26.772  23.428  -4.244  0.00  0.00     0.092 H 
ATOM     19  H   BDP d 609      27.054  24.675   0.070  0.00  0.00     0.210 HD
ATOM     20  O7  ASG d 610      22.802  27.436  -5.441  0.00  0.00    -0.274 OA
ATOM     21  O3  ASG d 610      24.339  26.942  -8.702  0.00  0.00    -0.348 OA
ATOM     22  OSB ASG d 610      26.634  28.886  -9.747  0.00  0.00    -0.572 OA
ATOM     23  OSA ASG d 610      28.851  28.448  -8.913  0.00  0.00    -0.572 OA
ATOM     24  N   ASG d 610      23.421  25.496  -6.408  0.00  0.00    -0.349 N 
ATOM     25  C5  ASG d 610      27.464  25.251  -7.427  0.00  0.00     0.090 C 
ATOM     26  C3  ASG d 610      25.177  25.986  -8.022  0.00  0.00     0.094 C 
ATOM     27  C7  ASG d 610      22.540  26.286  -5.803  0.00  0.00     0.214 C 
ATOM     28  O6  ASG d 610      29.646  24.279  -7.001  0.00  0.00    -0.398 OA
ATOM     29  O5  ASG d 610      27.096  25.259  -6.034  0.00  0.00    -0.349 OA
ATOM     30  C4  ASG d 610      26.670  26.338  -8.160  0.00  0.00     0.114 C 
ATOM     31  S   ASG d 610      27.472  28.795  -8.534  0.00  0.00     0.252 S 
ATOM     32  C2  ASG d 610      24.800  25.920  -6.549  0.00  0.00     0.087 C 
ATOM     33  C1  ASG d 610      25.709  24.931  -5.827  0.00  0.00     0.154 C 
ATOM     34  C6  ASG d 610      28.969  25.425  -7.499  0.00  0.00     0.043 C 
ATOM     35  OSC ASG d 610      27.482  30.079  -7.807  0.00  0.00    -0.572 OA
ATOM     36  O4  ASG d 610      26.945  27.625  -7.565  0.00  0.00    -0.246 OA
ATOM     37  C8  ASG d 610      21.147  25.712  -5.567  0.00  0.00    -0.003 C 
ATOM     38  H   ASG d 610      23.137  24.621  -6.761  0.00  0.00     0.163 HD
ATOM     39  H   ASG d 610      27.220  24.332  -7.917  0.00  0.00     0.090 H 
ATOM     40  H   ASG d 610      25.018  25.032  -8.479  0.00  0.00     0.091 H 
ATOM     41  H   ASG d 610      30.604  24.418  -7.058  0.00  0.00     0.209 HD
ATOM     42  H   ASG d 610      26.945  26.387  -9.193  0.00  0.00     0.093 H 
ATOM     43  H   ASG d 610      24.917  26.893  -6.118  0.00  0.00     0.084 H 
ATOM     44  H   ASG d 610      25.520  23.952  -6.214  0.00  0.00     0.132 H 
ATOM     45  H   ASG d 610      29.250  26.277  -6.915  0.00  0.00     0.078 H 
ATOM     46  H   ASG d 610      29.245  25.562  -8.524  0.00  0.00     0.078 H 
ATOM     47  H   ASG d 610      20.538  26.443  -5.076  0.00  0.00     0.040 H 
ATOM     48  H   ASG d 610      21.220  24.839  -4.953  0.00  0.00     0.040 H 
ATOM     49  H   ASG d 610      20.704  25.452  -6.505  0.00  0.00     0.040 H 
ATOM     50  C8  ASG d 608      28.356  23.580   3.147  0.00  0.00    -0.003 C 
ATOM     51  C6  ASG d 608      24.043  17.436   0.157  0.00  0.00     0.043 C 
ATOM     52  O7  ASG d 608      29.085  21.621   2.006  0.00  0.00    -0.274 OA
ATOM     53  S   ASG d 608      27.091  18.450  -1.938  0.00  0.00     0.252 S 
ATOM     54  OSC ASG d 608      28.245  19.313  -2.258  0.00  0.00    -0.572 OA
ATOM     55  N   ASG d 608      26.875  21.770   2.451  0.00  0.00    -0.349 N 
ATOM     56  O6  ASG d 608      23.127  17.587  -0.924  0.00  0.00    -0.398 OA
ATOM     57  O5  ASG d 608      25.167  18.499   1.971  0.00  0.00    -0.349 OA
ATOM     58  C1  ASG d 608      25.625  19.677   2.664  0.00  0.00     0.151 C 
ATOM     59  C4  ASG d 608      25.427  19.543  -0.205  0.00  0.00     0.114 C 
ATOM     60  OSB ASG d 608      26.003  18.835  -2.854  0.00  0.00    -0.572 OA
ATOM     61  C3  ASG d 608      25.865  20.835   0.450  0.00  0.00     0.094 C 
ATOM     62  O4  ASG d 608      26.534  18.660  -0.460  0.00  0.00    -0.246 OA
ATOM     63  C5  ASG d 608      24.481  18.790   0.731  0.00  0.00     0.090 C 
ATOM     64  O1  ASG d 608      26.327  19.265   3.784  0.00  0.00    -0.369 OA
ATOM     65  C7  ASG d 608      28.126  22.232   2.477  0.00  0.00     0.214 C 
ATOM     66  C2  ASG d 608      26.555  20.524   1.773  0.00  0.00     0.087 C 
ATOM     67  O3  ASG d 608      26.758  21.555  -0.420  0.00  0.00    -0.348 OA
ATOM     68  OSA ASG d 608      27.351  17.000  -2.056  0.00  0.00    -0.572 OA
ATOM     69  H   ASG d 608      29.395  23.830   3.098  0.00  0.00     0.040 H 
ATOM     70  H   ASG d 608      28.049  23.526   4.171  0.00  0.00     0.040 H 
ATOM     71  H   ASG d 608      27.785  24.331   2.643  0.00  0.00     0.040 H 
ATOM     72  H   ASG d 608      23.573  16.868   0.931  0.00  0.00     0.078 H 
ATOM     73  H   ASG d 608      24.914  16.937  -0.215  0.00  0.00     0.078 H 
ATOM     74  H   ASG d 608      26.160  22.280   2.896  0.00  0.00     0.163 HD
ATOM     75  H   ASG d 608      22.328  18.038  -0.610  0.00  0.00     0.209 HD
ATOM     76  H   ASG d 608      24.782  20.279   2.930  0.00  0.00     0.132 H 
ATOM     77  H   ASG d 608      24.959  19.812  -1.129  0.00  0.00     0.093 H 
ATOM     78  H   ASG d 608      25.006  21.445   0.636  0.00  0.00     0.091 H 
ATOM     79  H   ASG d 608      23.624  19.416   0.868  0.00  0.00     0.090 H 
ATOM     80  H   ASG d 608      27.083  18.723   3.509  0.00  0.00     0.212 HD
ATOM     81  H   ASG d 608      27.454  19.975   1.584  0.00  0.00     0.084 H 
ATOM     82  O6B GCD d 611      25.934  24.679 -13.250  0.00  0.00    -0.642 OA
ATOM     83  C6  GCD d 611      25.648  25.936 -13.140  0.00  0.00     0.233 C 
ATOM     84  C5  GCD d 611      24.439  26.299 -12.314  0.00  0.00     0.147 C 
ATOM     85  C2  GCD d 611      22.550  27.264 -10.221  0.00  0.00     0.111 C 
ATOM     86  O6A GCD d 611      26.273  26.984 -13.562  0.00  0.00    -0.642 OA
ATOM     87  C4  GCD d 611      23.131  26.216 -12.667  0.00  0.00    -0.034 C 
ATOM     88  C1  GCD d 611      23.762  26.464  -9.863  0.00  0.00     0.165 C 
ATOM     89  O3  GCD d 611      20.978  27.522 -11.971  0.00  0.00    -0.389 OA
ATOM     90  O5  GCD d 611      24.761  26.778 -10.955  0.00  0.00    -0.311 OA
ATOM     91  O2  GCD d 611      21.500  27.056  -9.232  0.00  0.00    -0.388 OA
ATOM     92  C3  GCD d 611      22.067  26.666 -11.597  0.00  0.00     0.084 C 
ATOM     93  H   GCD d 611      22.765  28.312 -10.267  0.00  0.00     0.095 H 
ATOM     94  H   GCD d 611      22.845  25.873 -13.597  0.00  0.00     0.085 H 
ATOM     95  H   GCD d 611      23.507  25.431  -9.747  0.00  0.00     0.134 H 
ATOM     96  H   GCD d 611      20.423  27.697 -11.194  0.00  0.00     0.210 HD
ATOM     97  H   GCD d 611      21.291  26.111  -9.176  0.00  0.00     0.210 HD
ATOM     98  H   GCD d 611      21.740  25.652 -11.499  0.00  0.00     0.093 H 
ENDROOT
TORSDOF 25
ENDMDL
MODEL 38
REMARK VINA RESULT:      -7.1      5.617     12.521
REMARK  0 active torsions:
REMARK  status: ('A' for Active; 'I' for Inactive)
REMARK       I    between atoms: O3_1  and  C3_6 
REMARK       I    between atoms: O3_3  and  C3_16 
REMARK       I    between atoms: O3_3  and  C1_32 
REMARK       I    between atoms: C8_5  and  C7_53 
REMARK       I    between atoms: C6_7  and  C5_47 
REMARK       I    between atoms: C6_7  and  O6_29 
REMARK       I    between atoms: O4_8  and  C4_45 
REMARK       I    between atoms: O4_8  and  C1_39 
REMARK       I    between atoms: N_10  and  C2_35 
REMARK       I    between atoms: N_10  and  C7_17 
REMARK       I    between atoms: C5_12  and  C6_42 
REMARK       I    between atoms: C1_14  and  O3_57 
REMARK       I    between atoms: C6_15  and  C5_20 
REMARK       I    between atoms: C7_17  and  C8_54 
REMARK       I    between atoms: O6_18  and  C6_42 
REMARK       I    between atoms: S_19  and  O4_46 
REMARK       I    between atoms: C4_22  and  O4_50 
REMARK       I    between atoms: C2_23  and  O2_51 
REMARK       I    between atoms: S_26  and  O4_50 
REMARK       I    between atoms: N_27  and  C2_56 
REMARK       I    between atoms: N_27  and  C7_53 
REMARK       I    between atoms: C5_31  and  C6_55 
REMARK       I    between atoms: C1_33  and  O1_48 
REMARK       I    between atoms: C4_34  and  O4_46 
REMARK       I    between atoms: C3_40  and  O3_57 
REMARK       I    between atoms: C2_41  and  O2_60 
REMARK       I    between atoms: O3_43  and  C3_52 
ROOT
ATOM      1  O3  BDP d 609      30.976  21.313  -5.125  0.00  0.00    -0.390 OA
ATOM      2  C3  BDP d 609      30.633  20.239  -5.992  0.00  0.00     0.092 C 
ATOM      3  O4  BDP d 609      28.397  20.187  -5.159  0.00  0.00    -0.348 OA
ATOM      4  C1  BDP d 609      30.999  19.270  -8.275  0.00  0.00     0.160 C 
ATOM      5  C5  BDP d 609      28.777  19.298  -7.376  0.00  0.00     0.152 C 
ATOM      6  O5  BDP d 609      29.594  19.449  -8.552  0.00  0.00    -0.340 OA
ATOM      7  O6B BDP d 609      26.964  20.468  -8.371  0.00  0.00    -0.646 OA
ATOM      8  C2  BDP d 609      31.486  20.304  -7.251  0.00  0.00     0.110 C 
ATOM      9  C4  BDP d 609      29.165  20.358  -6.352  0.00  0.00     0.103 C 
ATOM     10  C6  BDP d 609      27.329  19.410  -7.819  0.00  0.00     0.206 C 
ATOM     11  O6A BDP d 609      26.589  18.434  -7.571  0.00  0.00    -0.646 OA
ATOM     12  O2  BDP d 609      32.840  20.031  -6.919  0.00  0.00    -0.388 OA
ATOM     13  H   BDP d 609      31.914  21.249  -4.886  0.00  0.00     0.210 HD
ATOM     14  H   BDP d 609      30.813  19.303  -5.505  0.00  0.00     0.091 H 
ATOM     15  H   BDP d 609      31.157  18.292  -7.872  0.00  0.00     0.133 H 
ATOM     16  H   BDP d 609      28.920  18.349  -6.903  0.00  0.00     0.104 H 
ATOM     17  H   BDP d 609      31.404  21.283  -7.675  0.00  0.00     0.094 H 
ATOM     18  H   BDP d 609      28.975  21.318  -6.782  0.00  0.00     0.092 H 
ATOM     19  H   BDP d 609      32.905  19.142  -6.536  0.00  0.00     0.210 HD
ATOM     20  O7  ASG d 610      26.685  18.263  -2.461  0.00  0.00    -0.274 OA
ATOM     21  O3  ASG d 610      24.752  21.340  -2.277  0.00  0.00    -0.348 OA
ATOM     22  OSB ASG d 610      25.540  23.655  -0.238  0.00  0.00    -0.572 OA
ATOM     23  OSA ASG d 610      27.326  25.113  -0.934  0.00  0.00    -0.572 OA
ATOM     24  N   ASG d 610      25.828  19.472  -4.160  0.00  0.00    -0.349 N 
ATOM     25  C5  ASG d 610      27.128  23.438  -4.325  0.00  0.00     0.090 C 
ATOM     26  C3  ASG d 610      25.561  21.766  -3.391  0.00  0.00     0.094 C 
ATOM     27  C7  ASG d 610      26.010  18.338  -3.491  0.00  0.00     0.214 C 
ATOM     28  O6  ASG d 610      28.452  25.131  -5.451  0.00  0.00    -0.398 OA
ATOM     29  O5  ASG d 610      28.068  22.384  -4.614  0.00  0.00    -0.349 OA
ATOM     30  C4  ASG d 610      26.326  23.065  -3.074  0.00  0.00     0.114 C 
ATOM     31  S   ASG d 610      26.963  23.721  -0.628  0.00  0.00     0.252 S 
ATOM     32  C2  ASG d 610      26.546  20.669  -3.768  0.00  0.00     0.087 C 
ATOM     33  C1  ASG d 610      27.421  21.136  -4.926  0.00  0.00     0.154 C 
ATOM     34  C6  ASG d 610      27.918  24.726  -4.197  0.00  0.00     0.043 C 
ATOM     35  OSC ASG d 610      27.827  23.227   0.462  0.00  0.00    -0.572 OA
ATOM     36  O4  ASG d 610      27.226  22.864  -1.962  0.00  0.00    -0.246 OA
ATOM     37  C8  ASG d 610      25.333  17.091  -4.049  0.00  0.00    -0.003 C 
ATOM     38  H   ASG d 610      25.206  19.499  -4.923  0.00  0.00     0.163 HD
ATOM     39  H   ASG d 610      26.407  23.576  -5.104  0.00  0.00     0.090 H 
ATOM     40  H   ASG d 610      24.905  21.962  -4.213  0.00  0.00     0.091 H 
ATOM     41  H   ASG d 610      28.951  25.955  -5.339  0.00  0.00     0.209 HD
ATOM     42  H   ASG d 610      25.642  23.843  -2.808  0.00  0.00     0.093 H 
ATOM     43  H   ASG d 610      27.162  20.452  -2.920  0.00  0.00     0.084 H 
ATOM     44  H   ASG d 610      26.800  21.271  -5.787  0.00  0.00     0.132 H 
ATOM     45  H   ASG d 610      28.722  24.576  -3.508  0.00  0.00     0.078 H 
ATOM     46  H   ASG d 610      27.259  25.493  -3.848  0.00  0.00     0.078 H 
ATOM     47  H   ASG d 610      25.556  16.253  -3.423  0.00  0.00     0.040 H 
ATOM     48  H   ASG d 610      25.692  16.903  -5.039  0.00  0.00     0.040 H 
ATOM     49  H   ASG d 610      24.274  17.243  -4.078  0.00  0.00     0.040 H 
ATOM     50  C8  ASG d 608      35.893  18.693  -8.334  0.00  0.00    -0.003 C 
ATOM     51  C6  ASG d 608      29.854  17.207 -13.493  0.00  0.00     0.043 C 
ATOM     52  O7  ASG d 608      34.950  20.089 -10.018  0.00  0.00    -0.274 OA
ATOM     53  S   ASG d 608      29.999  20.798 -12.157  0.00  0.00     0.252 S 
ATOM     54  OSC ASG d 608      30.539  21.863 -11.289  0.00  0.00    -0.572 OA
ATOM     55  N   ASG d 608      34.151  17.980  -9.887  0.00  0.00    -0.349 N 
ATOM     56  O6  ASG d 608      28.508  17.000 -13.071  0.00  0.00    -0.398 OA
ATOM     57  O5  ASG d 608      32.160  17.089 -12.903  0.00  0.00    -0.349 OA
ATOM     58  C1  ASG d 608      33.217  17.000 -11.927  0.00  0.00     0.151 C 
ATOM     59  C4  ASG d 608      30.741  18.377 -11.413  0.00  0.00     0.114 C 
ATOM     60  OSB ASG d 608      28.744  20.338 -11.537  0.00  0.00    -0.572 OA
ATOM     61  C3  ASG d 608      31.780  18.281 -10.316  0.00  0.00     0.094 C 
ATOM     62  O4  ASG d 608      30.948  19.522 -12.258  0.00  0.00    -0.246 OA
ATOM     63  C5  ASG d 608      30.838  17.148 -12.319  0.00  0.00     0.090 C 
ATOM     64  O1  ASG d 608      34.424  17.030 -12.603  0.00  0.00    -0.369 OA
ATOM     65  C7  ASG d 608      34.943  18.977  -9.491  0.00  0.00     0.214 C 
ATOM     66  C2  ASG d 608      33.167  18.183 -10.939  0.00  0.00     0.087 C 
ATOM     67  O3  ASG d 608      31.701  19.432  -9.455  0.00  0.00    -0.348 OA
ATOM     68  OSA ASG d 608      29.742  21.208 -13.553  0.00  0.00    -0.572 OA
ATOM     69  H   ASG d 608      36.465  19.570  -8.119  0.00  0.00     0.040 H 
ATOM     70  H   ASG d 608      36.552  17.893  -8.602  0.00  0.00     0.040 H 
ATOM     71  H   ASG d 608      35.328  18.415  -7.469  0.00  0.00     0.040 H 
ATOM     72  H   ASG d 608      30.115  16.448 -14.201  0.00  0.00     0.078 H 
ATOM     73  H   ASG d 608      29.917  18.182 -13.930  0.00  0.00     0.078 H 
ATOM     74  H   ASG d 608      34.234  17.096  -9.462  0.00  0.00     0.163 HD
ATOM     75  H   ASG d 608      28.427  16.121 -12.671  0.00  0.00     0.209 HD
ATOM     76  H   ASG d 608      33.103  16.096 -11.367  0.00  0.00     0.132 H 
ATOM     77  H   ASG d 608      29.790  18.452 -10.928  0.00  0.00     0.093 H 
ATOM     78  H   ASG d 608      31.594  17.405  -9.730  0.00  0.00     0.091 H 
ATOM     79  H   ASG d 608      30.618  16.299 -11.706  0.00  0.00     0.090 H 
ATOM     80  H   ASG d 608      34.497  17.860 -13.099  0.00  0.00     0.212 HD
ATOM     81  H   ASG d 608      33.384  19.088 -11.466  0.00  0.00     0.084 H 
ATOM     82  O6B GCD d 611      21.433  25.310  -3.533  0.00  0.00    -0.642 OA
ATOM     83  C6  GCD d 611      21.628  24.898  -2.322  0.00  0.00     0.233 C 
ATOM     84  C5  GCD d 611      21.724  23.409  -2.106  0.00  0.00     0.147 C 
ATOM     85  C2  GCD d 611      22.613  20.618  -1.558  0.00  0.00     0.111 C 
ATOM     86  O6A GCD d 611      21.837  25.557  -1.230  0.00  0.00    -0.642 OA
ATOM     87  C4  GCD d 611      20.713  22.504  -2.058  0.00  0.00    -0.034 C 
ATOM     88  C1  GCD d 611      23.394  21.516  -2.463  0.00  0.00     0.165 C 
ATOM     89  O3  GCD d 611      20.390  20.206  -0.858  0.00  0.00    -0.389 OA
ATOM     90  O5  GCD d 611      23.107  22.911  -1.952  0.00  0.00    -0.311 OA
ATOM     91  O2  GCD d 611      22.811  19.225  -1.940  0.00  0.00    -0.388 OA
ATOM     92  C3  GCD d 611      21.105  20.999  -1.817  0.00  0.00     0.084 C 
ATOM     93  H   GCD d 611      22.908  20.730  -0.535  0.00  0.00     0.095 H 
ATOM     94  H   GCD d 611      19.729  22.791  -2.175  0.00  0.00     0.085 H 
ATOM     95  H   GCD d 611      23.137  21.332  -3.485  0.00  0.00     0.134 H 
ATOM     96  H   GCD d 611      20.760  19.310  -0.839  0.00  0.00     0.210 HD
ATOM     97  H   GCD d 611      22.548  19.104  -2.866  0.00  0.00     0.210 HD
ATOM     98  H   GCD d 611      20.799  20.761  -2.814  0.00  0.00     0.093 H 
ENDROOT
TORSDOF 25
ENDMDL
MODEL 39
REMARK VINA RESULT:      -7.1      3.371      5.159
REMARK  0 active torsions:
REMARK  status: ('A' for Active; 'I' for Inactive)
REMARK       I    between atoms: O3_1  and  C3_6 
REMARK       I    between atoms: O3_3  and  C3_16 
REMARK       I    between atoms: O3_3  and  C1_32 
REMARK       I    between atoms: C8_5  and  C7_53 
REMARK       I    between atoms: C6_7  and  C5_47 
REMARK       I    between atoms: C6_7  and  O6_29 
REMARK       I    between atoms: O4_8  and  C4_45 
REMARK       I    between atoms: O4_8  and  C1_39 
REMARK       I    between atoms: N_10  and  C2_35 
REMARK       I    between atoms: N_10  and  C7_17 
REMARK       I    between atoms: C5_12  and  C6_42 
REMARK       I    between atoms: C1_14  and  O3_57 
REMARK       I    between atoms: C6_15  and  C5_20 
REMARK       I    between atoms: C7_17  and  C8_54 
REMARK       I    between atoms: O6_18  and  C6_42 
REMARK       I    between atoms: S_19  and  O4_46 
REMARK       I    between atoms: C4_22  and  O4_50 
REMARK       I    between atoms: C2_23  and  O2_51 
REMARK       I    between atoms: S_26  and  O4_50 
REMARK       I    between atoms: N_27  and  C2_56 
REMARK       I    between atoms: N_27  and  C7_53 
REMARK       I    between atoms: C5_31  and  C6_55 
REMARK       I    between atoms: C1_33  and  O1_48 
REMARK       I    between atoms: C4_34  and  O4_46 
REMARK       I    between atoms: C3_40  and  O3_57 
REMARK       I    between atoms: C2_41  and  O2_60 
REMARK       I    between atoms: O3_43  and  C3_52 
ROOT
ATOM      1  O3  BDP d 609      27.177  24.823  -6.038  0.00  0.00    -0.390 OA
ATOM      2  C3  BDP d 609      26.985  23.530  -5.479  0.00  0.00     0.092 C 
ATOM      3  O4  BDP d 609      29.086  22.777  -6.326  0.00  0.00    -0.348 OA
ATOM      4  C1  BDP d 609      26.058  22.277  -3.515  0.00  0.00     0.160 C 
ATOM      5  C5  BDP d 609      28.183  21.617  -4.406  0.00  0.00     0.152 C 
ATOM      6  O5  BDP d 609      27.387  21.800  -3.220  0.00  0.00    -0.340 OA
ATOM      7  O6B BDP d 609      30.210  21.676  -3.168  0.00  0.00    -0.646 OA
ATOM      8  C2  BDP d 609      26.115  23.632  -4.234  0.00  0.00     0.110 C 
ATOM      9  C4  BDP d 609      28.341  22.954  -5.120  0.00  0.00     0.103 C 
ATOM     10  C6  BDP d 609      29.509  21.023  -3.968  0.00  0.00     0.206 C 
ATOM     11  O6A BDP d 609      29.823  19.920  -4.467  0.00  0.00    -0.646 OA
ATOM     12  O2  BDP d 609      24.801  24.019  -4.608  0.00  0.00    -0.388 OA
ATOM     13  H   BDP d 609      26.315  25.205  -6.274  0.00  0.00     0.210 HD
ATOM     14  H   BDP d 609      26.497  22.893  -6.187  0.00  0.00     0.091 H 
ATOM     15  H   BDP d 609      25.564  21.575  -4.154  0.00  0.00     0.133 H 
ATOM     16  H   BDP d 609      27.721  20.950  -5.104  0.00  0.00     0.104 H 
ATOM     17  H   BDP d 609      26.537  24.361  -3.575  0.00  0.00     0.094 H 
ATOM     18  H   BDP d 609      28.854  23.622  -4.460  0.00  0.00     0.092 H 
ATOM     19  H   BDP d 609      24.425  23.354  -5.205  0.00  0.00     0.210 HD
ATOM     20  O7  ASG d 610      30.140  21.030  -9.449  0.00  0.00    -0.274 OA
ATOM     21  O3  ASG d 610      33.140  23.005  -8.864  0.00  0.00    -0.348 OA
ATOM     22  OSB ASG d 610      33.522  25.854 -10.233  0.00  0.00    -0.572 OA
ATOM     23  OSA ASG d 610      32.401  27.699  -9.163  0.00  0.00    -0.572 OA
ATOM     24  N   ASG d 610      31.244  21.343  -7.508  0.00  0.00    -0.349 N 
ATOM     25  C5  ASG d 610      31.607  25.330  -6.316  0.00  0.00     0.090 C 
ATOM     26  C3  ASG d 610      32.466  23.443  -7.667  0.00  0.00     0.094 C 
ATOM     27  C7  ASG d 610      30.691  20.576  -8.443  0.00  0.00     0.214 C 
ATOM     28  O6  ASG d 610      30.961  27.092  -4.778  0.00  0.00    -0.398 OA
ATOM     29  O5  ASG d 610      30.304  24.712  -6.295  0.00  0.00    -0.349 OA
ATOM     30  C4  ASG d 610      32.308  24.975  -7.631  0.00  0.00     0.114 C 
ATOM     31  S   ASG d 610      32.211  26.396  -9.820  0.00  0.00     0.252 S 
ATOM     32  C2  ASG d 610      31.097  22.784  -7.571  0.00  0.00     0.087 C 
ATOM     33  C1  ASG d 610      30.375  23.274  -6.321  0.00  0.00     0.154 C 
ATOM     34  C6  ASG d 610      31.405  26.818  -6.100  0.00  0.00     0.043 C 
ATOM     35  OSC ASG d 610      31.327  26.571 -10.989  0.00  0.00    -0.572 OA
ATOM     36  O4  ASG d 610      31.508  25.428  -8.746  0.00  0.00    -0.246 OA
ATOM     37  C8  ASG d 610      30.767  19.068  -8.231  0.00  0.00    -0.003 C 
ATOM     38  H   ASG d 610      31.752  20.932  -6.772  0.00  0.00     0.163 HD
ATOM     39  H   ASG d 610      32.249  24.973  -5.538  0.00  0.00     0.090 H 
ATOM     40  H   ASG d 610      33.066  23.153  -6.831  0.00  0.00     0.091 H 
ATOM     41  H   ASG d 610      30.841  28.048  -4.669  0.00  0.00     0.209 HD
ATOM     42  H   ASG d 610      33.265  25.448  -7.699  0.00  0.00     0.093 H 
ATOM     43  H   ASG d 610      30.526  23.045  -8.438  0.00  0.00     0.084 H 
ATOM     44  H   ASG d 610      30.916  22.935  -5.462  0.00  0.00     0.132 H 
ATOM     45  H   ASG d 610      30.675  27.175  -6.795  0.00  0.00     0.078 H 
ATOM     46  H   ASG d 610      32.343  27.310  -6.250  0.00  0.00     0.078 H 
ATOM     47  H   ASG d 610      30.290  18.568  -9.048  0.00  0.00     0.040 H 
ATOM     48  H   ASG d 610      30.272  18.811  -7.318  0.00  0.00     0.040 H 
ATOM     49  H   ASG d 610      31.791  18.766  -8.178  0.00  0.00     0.040 H 
ATOM     50  C8  ASG d 608      21.351  23.738  -3.543  0.00  0.00    -0.003 C 
ATOM     51  C6  ASG d 608      25.807  18.746   0.985  0.00  0.00     0.043 C 
ATOM     52  O7  ASG d 608      22.608  24.185  -1.571  0.00  0.00    -0.274 OA
ATOM     53  S   ASG d 608      27.216  22.293   0.615  0.00  0.00     0.252 S 
ATOM     54  OSC ASG d 608      27.223  23.659   0.055  0.00  0.00    -0.572 OA
ATOM     55  N   ASG d 608      22.518  22.032  -2.247  0.00  0.00    -0.349 N 
ATOM     56  O6  ASG d 608      26.994  18.119   0.508  0.00  0.00    -0.398 OA
ATOM     57  O5  ASG d 608      23.707  19.718   0.414  0.00  0.00    -0.349 OA
ATOM     58  C1  ASG d 608      22.796  20.301  -0.538  0.00  0.00     0.151 C 
ATOM     59  C4  ASG d 608      25.650  20.635  -0.714  0.00  0.00     0.114 C 
ATOM     60  OSB ASG d 608      28.239  21.526  -0.118  0.00  0.00    -0.572 OA
ATOM     61  C3  ASG d 608      24.764  21.233  -1.786  0.00  0.00     0.094 C 
ATOM     62  O4  ASG d 608      25.835  21.527   0.399  0.00  0.00    -0.246 OA
ATOM     63  C5  ASG d 608      24.992  19.374  -0.152  0.00  0.00     0.090 C 
ATOM     64  O1  ASG d 608      21.642  20.655   0.139  0.00  0.00    -0.369 OA
ATOM     65  C7  ASG d 608      22.224  23.327  -2.365  0.00  0.00     0.214 C 
ATOM     66  C2  ASG d 608      23.400  21.561  -1.191  0.00  0.00     0.087 C 
ATOM     67  O3  ASG d 608      25.371  22.423  -2.325  0.00  0.00    -0.348 OA
ATOM     68  OSA ASG d 608      27.484  22.217   2.066  0.00  0.00    -0.572 OA
ATOM     69  H   ASG d 608      21.194  24.796  -3.519  0.00  0.00     0.040 H 
ATOM     70  H   ASG d 608      20.408  23.236  -3.480  0.00  0.00     0.040 H 
ATOM     71  H   ASG d 608      21.837  23.471  -4.458  0.00  0.00     0.040 H 
ATOM     72  H   ASG d 608      25.204  18.013   1.479  0.00  0.00     0.078 H 
ATOM     73  H   ASG d 608      26.094  19.527   1.658  0.00  0.00     0.078 H 
ATOM     74  H   ASG d 608      22.132  21.387  -2.883  0.00  0.00     0.163 HD
ATOM     75  H   ASG d 608      26.758  17.405  -0.105  0.00  0.00     0.209 HD
ATOM     76  H   ASG d 608      22.594  19.591  -1.312  0.00  0.00     0.132 H 
ATOM     77  H   ASG d 608      26.594  20.432  -1.176  0.00  0.00     0.093 H 
ATOM     78  H   ASG d 608      24.643  20.525  -2.579  0.00  0.00     0.091 H 
ATOM     79  H   ASG d 608      24.915  18.682  -0.964  0.00  0.00     0.090 H 
ATOM     80  H   ASG d 608      21.858  21.299   0.831  0.00  0.00     0.212 HD
ATOM     81  H   ASG d 608      23.510  22.321  -0.447  0.00  0.00     0.084 H 
ATOM     82  O6B GCD d 611      37.625  24.862  -6.677  0.00  0.00    -0.642 OA
ATOM     83  C6  GCD d 611      37.396  24.868  -7.950  0.00  0.00     0.233 C 
ATOM     84  C5  GCD d 611      36.740  23.644  -8.539  0.00  0.00     0.147 C 
ATOM     85  C2  GCD d 611      34.876  21.673  -9.771  0.00  0.00     0.111 C 
ATOM     86  O6A GCD d 611      37.565  25.794  -8.834  0.00  0.00    -0.642 OA
ATOM     87  C4  GCD d 611      37.311  22.448  -8.829  0.00  0.00    -0.034 C 
ATOM     88  C1  GCD d 611      34.433  22.566  -8.656  0.00  0.00     0.165 C 
ATOM     89  O3  GCD d 611      36.810  20.575 -10.581  0.00  0.00    -0.389 OA
ATOM     90  O5  GCD d 611      35.294  23.802  -8.796  0.00  0.00    -0.311 OA
ATOM     91  O2  GCD d 611      34.110  20.432  -9.756  0.00  0.00    -0.388 OA
ATOM     92  C3  GCD d 611      36.380  21.336  -9.443  0.00  0.00     0.084 C 
ATOM     93  H   GCD d 611      34.745  22.136 -10.727  0.00  0.00     0.095 H 
ATOM     94  H   GCD d 611      38.313  22.274  -8.655  0.00  0.00     0.085 H 
ATOM     95  H   GCD d 611      34.501  22.055  -7.719  0.00  0.00     0.134 H 
ATOM     96  H   GCD d 611      36.119  19.940 -10.825  0.00  0.00     0.210 HD
ATOM     97  H   GCD d 611      34.217  19.998  -8.895  0.00  0.00     0.210 HD
ATOM     98  H   GCD d 611      36.475  20.764  -8.544  0.00  0.00     0.093 H 
ENDROOT
TORSDOF 25
ENDMDL
MODEL 40
REMARK VINA RESULT:      -7.1      3.762     11.481
REMARK  0 active torsions:
REMARK  status: ('A' for Active; 'I' for Inactive)
REMARK       I    between atoms: O3_1  and  C3_6 
REMARK       I    between atoms: O3_3  and  C3_16 
REMARK       I    between atoms: O3_3  and  C1_32 
REMARK       I    between atoms: C8_5  and  C7_53 
REMARK       I    between atoms: C6_7  and  C5_47 
REMARK       I    between atoms: C6_7  and  O6_29 
REMARK       I    between atoms: O4_8  and  C4_45 
REMARK       I    between atoms: O4_8  and  C1_39 
REMARK       I    between atoms: N_10  and  C2_35 
REMARK       I    between atoms: N_10  and  C7_17 
REMARK       I    between atoms: C5_12  and  C6_42 
REMARK       I    between atoms: C1_14  and  O3_57 
REMARK       I    between atoms: C6_15  and  C5_20 
REMARK       I    between atoms: C7_17  and  C8_54 
REMARK       I    between atoms: O6_18  and  C6_42 
REMARK       I    between atoms: S_19  and  O4_46 
REMARK       I    between atoms: C4_22  and  O4_50 
REMARK       I    between atoms: C2_23  and  O2_51 
REMARK       I    between atoms: S_26  and  O4_50 
REMARK       I    between atoms: N_27  and  C2_56 
REMARK       I    between atoms: N_27  and  C7_53 
REMARK       I    between atoms: C5_31  and  C6_55 
REMARK       I    between atoms: C1_33  and  O1_48 
REMARK       I    between atoms: C4_34  and  O4_46 
REMARK       I    between atoms: C3_40  and  O3_57 
REMARK       I    between atoms: C2_41  and  O2_60 
REMARK       I    between atoms: O3_43  and  C3_52 
ROOT
ATOM      1  O3  BDP d 609      30.807  23.939  -0.660  0.00  0.00    -0.390 OA
ATOM      2  C3  BDP d 609      31.474  24.230  -1.882  0.00  0.00     0.092 C 
ATOM      3  O4  BDP d 609      29.932  22.892  -3.121  0.00  0.00    -0.348 OA
ATOM      4  C1  BDP d 609      32.695  26.005  -3.164  0.00  0.00     0.160 C 
ATOM      5  C5  BDP d 609      31.096  24.642  -4.319  0.00  0.00     0.152 C 
ATOM      6  O5  BDP d 609      31.662  25.958  -4.170  0.00  0.00    -0.340 OA
ATOM      7  O6B BDP d 609      29.143  25.497  -5.367  0.00  0.00    -0.646 OA
ATOM      8  C2  BDP d 609      32.136  25.597  -1.794  0.00  0.00     0.110 C 
ATOM      9  C4  BDP d 609      30.453  24.218  -3.004  0.00  0.00     0.103 C 
ATOM     10  C6  BDP d 609      30.104  24.707  -5.465  0.00  0.00     0.206 C 
ATOM     11  O6A BDP d 609      30.306  23.935  -6.427  0.00  0.00    -0.646 OA
ATOM     12  O2  BDP d 609      33.198  25.548  -0.852  0.00  0.00    -0.388 OA
ATOM     13  H   BDP d 609      31.450  23.944   0.068  0.00  0.00     0.210 HD
ATOM     14  H   BDP d 609      32.229  23.496  -2.072  0.00  0.00     0.091 H 
ATOM     15  H   BDP d 609      33.476  25.325  -3.428  0.00  0.00     0.133 H 
ATOM     16  H   BDP d 609      31.838  23.906  -4.547  0.00  0.00     0.104 H 
ATOM     17  H   BDP d 609      31.406  26.316  -1.485  0.00  0.00     0.094 H 
ATOM     18  H   BDP d 609      29.666  24.908  -2.783  0.00  0.00     0.092 H 
ATOM     19  H   BDP d 609      33.854  24.894  -1.140  0.00  0.00     0.210 HD
ATOM     20  O7  ASG d 610      29.910  19.332  -4.234  0.00  0.00    -0.274 OA
ATOM     21  O3  ASG d 610      26.331  19.807  -3.781  0.00  0.00    -0.348 OA
ATOM     22  OSB ASG d 610      24.909  19.042  -1.036  0.00  0.00    -0.572 OA
ATOM     23  OSA ASG d 610      25.095  20.662   0.737  0.00  0.00    -0.572 OA
ATOM     24  N   ASG d 610      28.643  21.076  -4.894  0.00  0.00    -0.349 N 
ATOM     25  C5  ASG d 610      26.592  23.021  -1.820  0.00  0.00     0.090 C 
ATOM     26  C3  ASG d 610      26.680  21.168  -3.456  0.00  0.00     0.094 C 
ATOM     27  C7  ASG d 610      29.525  20.106  -5.114  0.00  0.00     0.214 C 
ATOM     28  O6  ASG d 610      26.347  24.992  -0.425  0.00  0.00    -0.398 OA
ATOM     29  O5  ASG d 610      28.028  23.131  -1.878  0.00  0.00    -0.349 OA
ATOM     30  C4  ASG d 610      26.192  21.560  -2.049  0.00  0.00     0.114 C 
ATOM     31  S   ASG d 610      25.849  19.781  -0.169  0.00  0.00     0.252 S 
ATOM     32  C2  ASG d 610      28.189  21.352  -3.545  0.00  0.00     0.087 C 
ATOM     33  C1  ASG d 610      28.557  22.784  -3.172  0.00  0.00     0.154 C 
ATOM     34  C6  ASG d 610      26.148  23.585  -0.484  0.00  0.00     0.043 C 
ATOM     35  OSC ASG d 610      26.662  18.847   0.634  0.00  0.00    -0.572 OA
ATOM     36  O4  ASG d 610      26.810  20.724  -1.046  0.00  0.00    -0.246 OA
ATOM     37  C8  ASG d 610      30.062  19.971  -6.535  0.00  0.00    -0.003 C 
ATOM     38  H   ASG d 610      28.298  21.607  -5.648  0.00  0.00     0.163 HD
ATOM     39  H   ASG d 610      26.100  23.582  -2.587  0.00  0.00     0.090 H 
ATOM     40  H   ASG d 610      26.195  21.805  -4.165  0.00  0.00     0.091 H 
ATOM     41  H   ASG d 610      26.056  25.324   0.438  0.00  0.00     0.209 HD
ATOM     42  H   ASG d 610      25.132  21.434  -1.975  0.00  0.00     0.093 H 
ATOM     43  H   ASG d 610      28.661  20.673  -2.866  0.00  0.00     0.084 H 
ATOM     44  H   ASG d 610      28.144  23.443  -3.907  0.00  0.00     0.132 H 
ATOM     45  H   ASG d 610      26.714  23.121   0.296  0.00  0.00     0.078 H 
ATOM     46  H   ASG d 610      25.104  23.387  -0.363  0.00  0.00     0.078 H 
ATOM     47  H   ASG d 610      30.758  19.159  -6.579  0.00  0.00     0.040 H 
ATOM     48  H   ASG d 610      30.553  20.878  -6.819  0.00  0.00     0.040 H 
ATOM     49  H   ASG d 610      29.251  19.780  -7.206  0.00  0.00     0.040 H 
ATOM     50  C8  ASG d 608      36.375  27.102  -0.076  0.00  0.00    -0.003 C 
ATOM     51  C6  ASG d 608      34.059  29.610  -7.399  0.00  0.00     0.043 C 
ATOM     52  O7  ASG d 608      34.910  28.879  -0.684  0.00  0.00    -0.274 OA
ATOM     53  S   ASG d 608      31.346  29.780  -4.694  0.00  0.00     0.252 S 
ATOM     54  OSC ASG d 608      30.818  29.536  -3.337  0.00  0.00    -0.572 OA
ATOM     55  N   ASG d 608      35.925  27.779  -2.376  0.00  0.00    -0.349 N 
ATOM     56  O6  ASG d 608      33.271  28.811  -8.278  0.00  0.00    -0.398 OA
ATOM     57  O5  ASG d 608      35.608  29.632  -5.588  0.00  0.00    -0.349 OA
ATOM     58  C1  ASG d 608      36.263  28.999  -4.471  0.00  0.00     0.151 C 
ATOM     59  C4  ASG d 608      33.544  28.412  -5.212  0.00  0.00     0.114 C 
ATOM     60  OSB ASG d 608      30.783  28.734  -5.566  0.00  0.00    -0.572 OA
ATOM     61  C3  ASG d 608      34.178  27.664  -4.060  0.00  0.00     0.094 C 
ATOM     62  O4  ASG d 608      32.931  29.643  -4.790  0.00  0.00    -0.246 OA
ATOM     63  C5  ASG d 608      34.621  28.792  -6.230  0.00  0.00     0.090 C 
ATOM     64  O1  ASG d 608      37.120  29.925  -3.900  0.00  0.00    -0.369 OA
ATOM     65  C7  ASG d 608      35.667  27.996  -1.086  0.00  0.00     0.214 C 
ATOM     66  C2  ASG d 608      35.242  28.540  -3.411  0.00  0.00     0.087 C 
ATOM     67  O3  ASG d 608      33.176  27.299  -3.093  0.00  0.00    -0.348 OA
ATOM     68  OSA ASG d 608      31.033  31.112  -5.250  0.00  0.00    -0.572 OA
ATOM     69  H   ASG d 608      36.081  27.382   0.914  0.00  0.00     0.040 H 
ATOM     70  H   ASG d 608      37.434  27.216  -0.179  0.00  0.00     0.040 H 
ATOM     71  H   ASG d 608      36.107  26.082  -0.253  0.00  0.00     0.040 H 
ATOM     72  H   ASG d 608      34.874  30.029  -7.951  0.00  0.00     0.078 H 
ATOM     73  H   ASG d 608      33.430  30.376  -6.996  0.00  0.00     0.078 H 
ATOM     74  H   ASG d 608      36.585  27.094  -2.631  0.00  0.00     0.163 HD
ATOM     75  H   ASG d 608      33.821  28.109  -8.657  0.00  0.00     0.209 HD
ATOM     76  H   ASG d 608      36.792  28.136  -4.817  0.00  0.00     0.132 H 
ATOM     77  H   ASG d 608      32.801  27.763  -5.627  0.00  0.00     0.093 H 
ATOM     78  H   ASG d 608      34.635  26.769  -4.429  0.00  0.00     0.091 H 
ATOM     79  H   ASG d 608      35.032  27.876  -6.597  0.00  0.00     0.090 H 
ATOM     80  H   ASG d 608      36.611  30.692  -3.597  0.00  0.00     0.212 HD
ATOM     81  H   ASG d 608      34.778  29.401  -2.978  0.00  0.00     0.084 H 
ATOM     82  O6B GCD d 611      21.338  21.541  -4.423  0.00  0.00    -0.642 OA
ATOM     83  C6  GCD d 611      21.633  20.358  -3.991  0.00  0.00     0.233 C 
ATOM     84  C5  GCD d 611      22.773  19.640  -4.668  0.00  0.00     0.147 C 
ATOM     85  C2  GCD d 611      25.364  18.349  -5.377  0.00  0.00     0.111 C 
ATOM     86  O6A GCD d 611      21.160  19.680  -2.999  0.00  0.00    -0.642 OA
ATOM     87  C4  GCD d 611      22.766  19.003  -5.868  0.00  0.00    -0.034 C 
ATOM     88  C1  GCD d 611      25.321  19.689  -4.716  0.00  0.00     0.165 C 
ATOM     89  O3  GCD d 611      24.113  17.001  -6.867  0.00  0.00    -0.389 OA
ATOM     90  O5  GCD d 611      24.041  19.674  -3.910  0.00  0.00    -0.311 OA
ATOM     91  O2  GCD d 611      26.569  18.227  -6.189  0.00  0.00    -0.388 OA
ATOM     92  C3  GCD d 611      24.112  18.333  -6.335  0.00  0.00     0.084 C 
ATOM     93  H   GCD d 611      25.360  17.552  -4.662  0.00  0.00     0.095 H 
ATOM     94  H   GCD d 611      21.915  18.961  -6.449  0.00  0.00     0.085 H 
ATOM     95  H   GCD d 611      25.404  20.468  -5.445  0.00  0.00     0.134 H 
ATOM     96  H   GCD d 611      25.019  16.748  -7.103  0.00  0.00     0.210 HD
ATOM     97  H   GCD d 611      26.590  18.941  -6.845  0.00  0.00     0.210 HD
ATOM     98  H   GCD d 611      24.198  19.057  -7.118  0.00  0.00     0.093 H 
ENDROOT
TORSDOF 25
ENDMDL
MODEL 41
REMARK VINA RESULT:      -7.1      4.085      6.024
REMARK  0 active torsions:
REMARK  status: ('A' for Active; 'I' for Inactive)
REMARK       I    between atoms: O3_1  and  C3_6 
REMARK       I    between atoms: O3_3  and  C3_16 
REMARK       I    between atoms: O3_3  and  C1_32 
REMARK       I    between atoms: C8_5  and  C7_53 
REMARK       I    between atoms: C6_7  and  C5_47 
REMARK       I    between atoms: C6_7  and  O6_29 
REMARK       I    between atoms: O4_8  and  C4_45 
REMARK       I    between atoms: O4_8  and  C1_39 
REMARK       I    between atoms: N_10  and  C2_35 
REMARK       I    between atoms: N_10  and  C7_17 
REMARK       I    between atoms: C5_12  and  C6_42 
REMARK       I    between atoms: C1_14  and  O3_57 
REMARK       I    between atoms: C6_15  and  C5_20 
REMARK       I    between atoms: C7_17  and  C8_54 
REMARK       I    between atoms: O6_18  and  C6_42 
REMARK       I    between atoms: S_19  and  O4_46 
REMARK       I    between atoms: C4_22  and  O4_50 
REMARK       I    between atoms: C2_23  and  O2_51 
REMARK       I    between atoms: S_26  and  O4_50 
REMARK       I    between atoms: N_27  and  C2_56 
REMARK       I    between atoms: N_27  and  C7_53 
REMARK       I    between atoms: C5_31  and  C6_55 
REMARK       I    between atoms: C1_33  and  O1_48 
REMARK       I    between atoms: C4_34  and  O4_46 
REMARK       I    between atoms: C3_40  and  O3_57 
REMARK       I    between atoms: C2_41  and  O2_60 
REMARK       I    between atoms: O3_43  and  C3_52 
ROOT
ATOM      1  O3  BDP d 609      31.448  24.309  -7.335  0.00  0.00    -0.390 OA
ATOM      2  C3  BDP d 609      30.659  23.823  -6.257  0.00  0.00     0.092 C 
ATOM      3  O4  BDP d 609      31.896  25.115  -4.677  0.00  0.00    -0.348 OA
ATOM      4  C1  BDP d 609      28.346  23.136  -5.574  0.00  0.00     0.160 C 
ATOM      5  C5  BDP d 609      29.646  24.471  -4.066  0.00  0.00     0.152 C 
ATOM      6  O5  BDP d 609      28.338  24.206  -4.607  0.00  0.00    -0.340 OA
ATOM      7  O6B BDP d 609      29.009  26.643  -3.341  0.00  0.00    -0.646 OA
ATOM      8  C2  BDP d 609      29.263  23.480  -6.756  0.00  0.00     0.110 C 
ATOM      9  C4  BDP d 609      30.581  24.899  -5.191  0.00  0.00     0.103 C 
ATOM     10  C6  BDP d 609      29.482  25.539  -3.000  0.00  0.00     0.206 C 
ATOM     11  O6A BDP d 609      29.863  25.244  -1.846  0.00  0.00    -0.646 OA
ATOM     12  O2  BDP d 609      29.335  22.364  -7.632  0.00  0.00    -0.388 OA
ATOM     13  H   BDP d 609      31.507  23.630  -8.026  0.00  0.00     0.210 HD
ATOM     14  H   BDP d 609      31.102  22.939  -5.848  0.00  0.00     0.091 H 
ATOM     15  H   BDP d 609      28.712  22.244  -5.110  0.00  0.00     0.133 H 
ATOM     16  H   BDP d 609      30.083  23.603  -3.620  0.00  0.00     0.104 H 
ATOM     17  H   BDP d 609      28.863  24.326  -7.275  0.00  0.00     0.094 H 
ATOM     18  H   BDP d 609      30.195  25.801  -5.617  0.00  0.00     0.092 H 
ATOM     19  H   BDP d 609      29.698  21.602  -7.155  0.00  0.00     0.210 HD
ATOM     20  O7  ASG d 610      34.865  24.423  -2.527  0.00  0.00    -0.274 OA
ATOM     21  O3  ASG d 610      35.411  27.971  -3.123  0.00  0.00    -0.348 OA
ATOM     22  OSB ASG d 610      37.270  28.967  -5.509  0.00  0.00    -0.572 OA
ATOM     23  OSA ASG d 610      36.252  29.012  -7.693  0.00  0.00    -0.572 OA
ATOM     24  N   ASG d 610      33.358  26.097  -2.439  0.00  0.00    -0.349 N 
ATOM     25  C5  ASG d 610      32.956  28.288  -5.973  0.00  0.00     0.090 C 
ATOM     26  C3  ASG d 610      34.165  27.912  -3.847  0.00  0.00     0.094 C 
ATOM     27  C7  ASG d 610      33.980  25.039  -1.928  0.00  0.00     0.214 C 
ATOM     28  O6  ASG d 610      31.605  28.860  -7.906  0.00  0.00    -0.398 OA
ATOM     29  O5  ASG d 610      32.496  26.922  -5.944  0.00  0.00    -0.349 OA
ATOM     30  C4  ASG d 610      34.335  28.366  -5.309  0.00  0.00     0.114 C 
ATOM     31  S   ASG d 610      36.620  28.153  -6.556  0.00  0.00     0.252 S 
ATOM     32  C2  ASG d 610      33.610  26.496  -3.810  0.00  0.00     0.087 C 
ATOM     33  C1  ASG d 610      32.309  26.431  -4.603  0.00  0.00     0.154 C 
ATOM     34  C6  ASG d 610      32.936  28.741  -7.420  0.00  0.00     0.043 C 
ATOM     35  OSC ASG d 610      37.528  27.090  -7.030  0.00  0.00    -0.572 OA
ATOM     36  O4  ASG d 610      35.258  27.499  -6.005  0.00  0.00    -0.246 OA
ATOM     37  C8  ASG d 610      33.556  24.599  -0.531  0.00  0.00    -0.003 C 
ATOM     38  H   ASG d 610      32.725  26.611  -1.886  0.00  0.00     0.163 HD
ATOM     39  H   ASG d 610      32.327  28.951  -5.417  0.00  0.00     0.090 H 
ATOM     40  H   ASG d 610      33.481  28.582  -3.371  0.00  0.00     0.091 H 
ATOM     41  H   ASG d 610      31.623  29.150  -8.831  0.00  0.00     0.209 HD
ATOM     42  H   ASG d 610      34.726  29.360  -5.346  0.00  0.00     0.093 H 
ATOM     43  H   ASG d 610      34.327  25.832  -4.246  0.00  0.00     0.084 H 
ATOM     44  H   ASG d 610      31.579  27.037  -4.107  0.00  0.00     0.132 H 
ATOM     45  H   ASG d 610      33.462  28.026  -8.017  0.00  0.00     0.078 H 
ATOM     46  H   ASG d 610      33.404  29.702  -7.480  0.00  0.00     0.078 H 
ATOM     47  H   ASG d 610      34.129  23.744  -0.238  0.00  0.00     0.040 H 
ATOM     48  H   ASG d 610      32.517  24.348  -0.536  0.00  0.00     0.040 H 
ATOM     49  H   ASG d 610      33.727  25.396   0.161  0.00  0.00     0.040 H 
ATOM     50  C8  ASG d 608      27.371  19.567  -8.830  0.00  0.00    -0.003 C 
ATOM     51  C6  ASG d 608      23.433  22.951  -2.639  0.00  0.00     0.043 C 
ATOM     52  O7  ASG d 608      25.896  21.437  -8.803  0.00  0.00    -0.274 OA
ATOM     53  S   ASG d 608      24.723  25.413  -5.281  0.00  0.00     0.252 S 
ATOM     54  OSC ASG d 608      25.476  25.766  -6.501  0.00  0.00    -0.572 OA
ATOM     55  N   ASG d 608      26.171  20.336  -6.850  0.00  0.00    -0.349 N 
ATOM     56  O6  ASG d 608      24.099  23.605  -1.562  0.00  0.00    -0.398 OA
ATOM     57  O5  ASG d 608      23.581  21.309  -4.361  0.00  0.00    -0.349 OA
ATOM     58  C1  ASG d 608      24.342  20.444  -5.227  0.00  0.00     0.151 C 
ATOM     59  C4  ASG d 608      25.312  23.011  -4.357  0.00  0.00     0.114 C 
ATOM     60  OSB ASG d 608      25.566  25.792  -4.133  0.00  0.00    -0.572 OA
ATOM     61  C3  ASG d 608      26.194  22.137  -5.221  0.00  0.00     0.094 C 
ATOM     62  O4  ASG d 608      24.444  23.850  -5.139  0.00  0.00    -0.246 OA
ATOM     63  C5  ASG d 608      24.402  22.130  -3.499  0.00  0.00     0.090 C 
ATOM     64  O1  ASG d 608      23.451  19.776  -6.050  0.00  0.00    -0.369 OA
ATOM     65  C7  ASG d 608      26.413  20.534  -8.145  0.00  0.00     0.214 C 
ATOM     66  C2  ASG d 608      25.323  21.250  -6.102  0.00  0.00     0.087 C 
ATOM     67  O3  ASG d 608      27.057  22.954  -6.036  0.00  0.00    -0.348 OA
ATOM     68  OSA ASG d 608      23.400  26.060  -5.161  0.00  0.00    -0.572 OA
ATOM     69  H   ASG d 608      27.476  19.838  -9.860  0.00  0.00     0.040 H 
ATOM     70  H   ASG d 608      26.984  18.572  -8.761  0.00  0.00     0.040 H 
ATOM     71  H   ASG d 608      28.326  19.612  -8.351  0.00  0.00     0.040 H 
ATOM     72  H   ASG d 608      22.688  22.296  -2.238  0.00  0.00     0.078 H 
ATOM     73  H   ASG d 608      22.993  23.702  -3.261  0.00  0.00     0.078 H 
ATOM     74  H   ASG d 608      26.572  19.561  -6.394  0.00  0.00     0.163 HD
ATOM     75  H   ASG d 608      24.506  22.942  -0.984  0.00  0.00     0.209 HD
ATOM     76  H   ASG d 608      24.911  19.763  -4.631  0.00  0.00     0.132 H 
ATOM     77  H   ASG d 608      25.966  23.619  -3.767  0.00  0.00     0.093 H 
ATOM     78  H   ASG d 608      26.804  21.521  -4.593  0.00  0.00     0.091 H 
ATOM     79  H   ASG d 608      25.044  21.553  -2.867  0.00  0.00     0.090 H 
ATOM     80  H   ASG d 608      22.952  20.419  -6.576  0.00  0.00     0.212 HD
ATOM     81  H   ASG d 608      24.765  21.861  -6.780  0.00  0.00     0.084 H 
ATOM     82  O6B GCD d 611      34.804  33.260  -3.070  0.00  0.00    -0.642 OA
ATOM     83  C6  GCD d 611      35.957  32.674  -3.117  0.00  0.00     0.233 C 
ATOM     84  C5  GCD d 611      36.149  31.458  -2.246  0.00  0.00     0.147 C 
ATOM     85  C2  GCD d 611      36.517  28.707  -1.162  0.00  0.00     0.111 C 
ATOM     86  O6A GCD d 611      36.990  32.904  -3.857  0.00  0.00    -0.642 OA
ATOM     87  C4  GCD d 611      36.384  31.415  -0.910  0.00  0.00    -0.034 C 
ATOM     88  C1  GCD d 611      35.483  28.998  -2.202  0.00  0.00     0.165 C 
ATOM     89  O3  GCD d 611      37.620  29.734   0.662  0.00  0.00    -0.389 OA
ATOM     90  O5  GCD d 611      36.040  30.176  -2.972  0.00  0.00    -0.311 OA
ATOM     91  O2  GCD d 611      36.103  27.572  -0.346  0.00  0.00    -0.388 OA
ATOM     92  C3  GCD d 611      36.546  29.994  -0.253  0.00  0.00     0.084 C 
ATOM     93  H   GCD d 611      37.467  28.476  -1.599  0.00  0.00     0.095 H 
ATOM     94  H   GCD d 611      36.453  32.278  -0.348  0.00  0.00     0.085 H 
ATOM     95  H   GCD d 611      34.527  29.149  -1.746  0.00  0.00     0.134 H 
ATOM     96  H   GCD d 611      37.569  28.816   0.969  0.00  0.00     0.210 HD
ATOM     97  H   GCD d 611      35.243  27.763   0.060  0.00  0.00     0.210 HD
ATOM     98  H   GCD d 611      35.623  30.134   0.271  0.00  0.00     0.093 H 
ENDROOT
TORSDOF 25
ENDMDL
MODEL 42
REMARK VINA RESULT:      -7.0      4.111      4.905
REMARK  0 active torsions:
REMARK  status: ('A' for Active; 'I' for Inactive)
REMARK       I    between atoms: O3_1  and  C3_6 
REMARK       I    between atoms: O3_3  and  C3_16 
REMARK       I    between atoms: O3_3  and  C1_32 
REMARK       I    between atoms: C8_5  and  C7_53 
REMARK       I    between atoms: C6_7  and  C5_47 
REMARK       I    between atoms: C6_7  and  O6_29 
REMARK       I    between atoms: O4_8  and  C4_45 
REMARK       I    between atoms: O4_8  and  C1_39 
REMARK       I    between atoms: N_10  and  C2_35 
REMARK       I    between atoms: N_10  and  C7_17 
REMARK       I    between atoms: C5_12  and  C6_42 
REMARK       I    between atoms: C1_14  and  O3_57 
REMARK       I    between atoms: C6_15  and  C5_20 
REMARK       I    between atoms: C7_17  and  C8_54 
REMARK       I    between atoms: O6_18  and  C6_42 
REMARK       I    between atoms: S_19  and  O4_46 
REMARK       I    between atoms: C4_22  and  O4_50 
REMARK       I    between atoms: C2_23  and  O2_51 
REMARK       I    between atoms: S_26  and  O4_50 
REMARK       I    between atoms: N_27  and  C2_56 
REMARK       I    between atoms: N_27  and  C7_53 
REMARK       I    between atoms: C5_31  and  C6_55 
REMARK       I    between atoms: C1_33  and  O1_48 
REMARK       I    between atoms: C4_34  and  O4_46 
REMARK       I    between atoms: C3_40  and  O3_57 
REMARK       I    between atoms: C2_41  and  O2_60 
REMARK       I    between atoms: O3_43  and  C3_52 
ROOT
ATOM      1  O3  BDP d 609      22.653  23.112  -6.179  0.00  0.00    -0.390 OA
ATOM      2  C3  BDP d 609      23.783  22.701  -5.421  0.00  0.00     0.092 C 
ATOM      3  O4  BDP d 609      25.278  23.802  -6.922  0.00  0.00    -0.348 OA
ATOM      4  C1  BDP d 609      24.636  22.283  -3.100  0.00  0.00     0.160 C 
ATOM      5  C5  BDP d 609      26.054  23.420  -4.663  0.00  0.00     0.152 C 
ATOM      6  O5  BDP d 609      25.614  23.326  -3.296  0.00  0.00    -0.340 OA
ATOM      7  O6B BDP d 609      26.853  25.636  -4.352  0.00  0.00    -0.646 OA
ATOM      8  C2  BDP d 609      23.390  22.540  -3.959  0.00  0.00     0.110 C 
ATOM      9  C4  BDP d 609      24.865  23.756  -5.555  0.00  0.00     0.103 C 
ATOM     10  C6  BDP d 609      27.143  24.477  -4.712  0.00  0.00     0.206 C 
ATOM     11  O6A BDP d 609      28.259  24.113  -5.140  0.00  0.00    -0.646 OA
ATOM     12  O2  BDP d 609      22.498  21.442  -3.829  0.00  0.00    -0.388 OA
ATOM     13  H   BDP d 609      21.952  22.446  -6.103  0.00  0.00     0.210 HD
ATOM     14  H   BDP d 609      24.146  21.762  -5.783  0.00  0.00     0.091 H 
ATOM     15  H   BDP d 609      25.060  21.344  -3.389  0.00  0.00     0.133 H 
ATOM     16  H   BDP d 609      26.455  22.496  -5.024  0.00  0.00     0.104 H 
ATOM     17  H   BDP d 609      22.915  23.439  -3.627  0.00  0.00     0.094 H 
ATOM     18  H   BDP d 609      24.481  24.707  -5.250  0.00  0.00     0.092 H 
ATOM     19  H   BDP d 609      22.936  20.632  -4.132  0.00  0.00     0.210 HD
ATOM     20  O7  ASG d 610      27.181  22.712  -9.939  0.00  0.00    -0.274 OA
ATOM     21  O3  ASG d 610      26.587  26.180 -10.865  0.00  0.00    -0.348 OA
ATOM     22  OSB ASG d 610      24.076  26.997 -12.645  0.00  0.00    -0.572 OA
ATOM     23  OSA ASG d 610      21.979  27.210 -11.478  0.00  0.00    -0.572 OA
ATOM     24  N   ASG d 610      27.406  24.553  -8.657  0.00  0.00    -0.349 N 
ATOM     25  C5  ASG d 610      23.941  26.851  -8.259  0.00  0.00     0.090 C 
ATOM     26  C3  ASG d 610      25.962  26.287  -9.571  0.00  0.00     0.094 C 
ATOM     27  C7  ASG d 610      27.855  23.417  -9.183  0.00  0.00     0.214 C 
ATOM     28  O6  ASG d 610      22.127  27.622  -6.844  0.00  0.00    -0.398 OA
ATOM     29  O5  ASG d 610      23.990  25.550  -7.639  0.00  0.00    -0.349 OA
ATOM     30  C4  ASG d 610      24.497  26.748  -9.683  0.00  0.00     0.114 C 
ATOM     31  S   ASG d 610      23.073  26.289 -11.823  0.00  0.00     0.252 S 
ATOM     32  C2  ASG d 610      26.025  24.948  -8.851  0.00  0.00     0.087 C 
ATOM     33  C1  ASG d 610      25.336  25.057  -7.496  0.00  0.00     0.154 C 
ATOM     34  C6  ASG d 610      22.506  27.334  -8.184  0.00  0.00     0.043 C 
ATOM     35  OSC ASG d 610      22.517  25.135 -12.557  0.00  0.00    -0.572 OA
ATOM     36  O4  ASG d 610      23.721  25.792 -10.439  0.00  0.00    -0.246 OA
ATOM     37  C8  ASG d 610      29.275  23.001  -8.817  0.00  0.00    -0.003 C 
ATOM     38  H   ASG d 610      28.013  25.127  -8.135  0.00  0.00     0.163 HD
ATOM     39  H   ASG d 610      24.553  27.573  -7.759  0.00  0.00     0.090 H 
ATOM     40  H   ASG d 610      26.498  27.024  -9.011  0.00  0.00     0.091 H 
ATOM     41  H   ASG d 610      21.207  27.928  -6.827  0.00  0.00     0.209 HD
ATOM     42  H   ASG d 610      24.441  27.689 -10.188  0.00  0.00     0.093 H 
ATOM     43  H   ASG d 610      25.527  24.211  -9.447  0.00  0.00     0.084 H 
ATOM     44  H   ASG d 610      25.894  25.735  -6.885  0.00  0.00     0.132 H 
ATOM     45  H   ASG d 610      21.861  26.574  -8.573  0.00  0.00     0.078 H 
ATOM     46  H   ASG d 610      22.422  28.232  -8.759  0.00  0.00     0.078 H 
ATOM     47  H   ASG d 610      29.513  22.077  -9.301  0.00  0.00     0.040 H 
ATOM     48  H   ASG d 610      29.348  22.877  -7.757  0.00  0.00     0.040 H 
ATOM     49  H   ASG d 610      29.962  23.757  -9.135  0.00  0.00     0.040 H 
ATOM     50  C8  ASG d 608      21.423  18.928  -1.455  0.00  0.00    -0.003 C 
ATOM     51  C6  ASG d 608      27.942  22.627   1.562  0.00  0.00     0.043 C 
ATOM     52  O7  ASG d 608      21.588  20.960  -0.224  0.00  0.00    -0.274 OA
ATOM     53  S   ASG d 608      25.238  24.972   0.187  0.00  0.00     0.252 S 
ATOM     54  OSC ASG d 608      23.967  25.258  -0.508  0.00  0.00    -0.572 OA
ATOM     55  N   ASG d 608      23.500  19.792  -0.511  0.00  0.00    -0.349 N 
ATOM     56  O6  ASG d 608      28.972  23.173   0.742  0.00  0.00    -0.398 OA
ATOM     57  O5  ASG d 608      26.194  21.017   1.746  0.00  0.00    -0.349 OA
ATOM     58  C1  ASG d 608      25.261  20.085   1.164  0.00  0.00     0.151 C 
ATOM     59  C4  ASG d 608      26.084  22.498  -0.174  0.00  0.00     0.114 C 
ATOM     60  OSB ASG d 608      26.320  25.223  -0.781  0.00  0.00    -0.572 OA
ATOM     61  C3  ASG d 608      25.144  21.543  -0.876  0.00  0.00     0.094 C 
ATOM     62  O4  ASG d 608      25.382  23.451   0.642  0.00  0.00    -0.246 OA
ATOM     63  C5  ASG d 608      27.000  21.714   0.768  0.00  0.00     0.090 C 
ATOM     64  O1  ASG d 608      24.503  19.547   2.189  0.00  0.00    -0.369 OA
ATOM     65  C7  ASG d 608      22.192  19.988  -0.676  0.00  0.00     0.214 C 
ATOM     66  C2  ASG d 608      24.323  20.786   0.161  0.00  0.00     0.087 C 
ATOM     67  O3  ASG d 608      24.274  22.267  -1.767  0.00  0.00    -0.348 OA
ATOM     68  OSA ASG d 608      25.468  25.771   1.408  0.00  0.00    -0.572 OA
ATOM     69  H   ASG d 608      20.392  19.206  -1.514  0.00  0.00     0.040 H 
ATOM     70  H   ASG d 608      21.511  17.985  -0.956  0.00  0.00     0.040 H 
ATOM     71  H   ASG d 608      21.827  18.847  -2.442  0.00  0.00     0.040 H 
ATOM     72  H   ASG d 608      28.392  22.058   2.349  0.00  0.00     0.078 H 
ATOM     73  H   ASG d 608      27.365  23.439   1.953  0.00  0.00     0.078 H 
ATOM     74  H   ASG d 608      23.914  18.965  -0.848  0.00  0.00     0.163 HD
ATOM     75  H   ASG d 608      29.509  22.454   0.376  0.00  0.00     0.209 HD
ATOM     76  H   ASG d 608      25.803  19.328   0.637  0.00  0.00     0.132 H 
ATOM     77  H   ASG d 608      26.629  23.010  -0.940  0.00  0.00     0.093 H 
ATOM     78  H   ASG d 608      25.714  20.845  -1.452  0.00  0.00     0.091 H 
ATOM     79  H   ASG d 608      27.573  21.051   0.155  0.00  0.00     0.090 H 
ATOM     80  H   ASG d 608      24.025  20.257   2.645  0.00  0.00     0.212 HD
ATOM     81  H   ASG d 608      23.697  21.474   0.690  0.00  0.00     0.084 H 
ATOM     82  O6B GCD d 611      26.752  31.502 -10.911  0.00  0.00    -0.642 OA
ATOM     83  C6  GCD d 611      26.608  30.783 -11.977  0.00  0.00     0.233 C 
ATOM     84  C5  GCD d 611      27.446  29.534 -12.086  0.00  0.00     0.147 C 
ATOM     85  C2  GCD d 611      28.465  26.736 -12.198  0.00  0.00     0.111 C 
ATOM     86  O6A GCD d 611      25.792  30.903 -12.972  0.00  0.00    -0.642 OA
ATOM     87  C4  GCD d 611      28.759  29.435 -12.415  0.00  0.00    -0.034 C 
ATOM     88  C1  GCD d 611      27.512  27.172 -11.131  0.00  0.00     0.165 C 
ATOM     89  O3  GCD d 611      30.210  27.584 -13.553  0.00  0.00    -0.389 OA
ATOM     90  O5  GCD d 611      26.716  28.290 -11.767  0.00  0.00    -0.311 OA
ATOM     91  O2  GCD d 611      29.298  25.642 -11.712  0.00  0.00    -0.388 OA
ATOM     92  C3  GCD d 611      29.385  27.991 -12.452  0.00  0.00     0.084 C 
ATOM     93  H   GCD d 611      27.953  26.403 -13.077  0.00  0.00     0.095 H 
ATOM     94  H   GCD d 611      29.324  30.271 -12.631  0.00  0.00     0.085 H 
ATOM     95  H   GCD d 611      28.043  27.427 -10.238  0.00  0.00     0.134 H 
ATOM     96  H   GCD d 611      30.509  26.672 -13.414  0.00  0.00     0.210 HD
ATOM     97  H   GCD d 611      29.771  25.927 -10.915  0.00  0.00     0.210 HD
ATOM     98  H   GCD d 611      29.981  28.229 -11.596  0.00  0.00     0.093 H 
ENDROOT
TORSDOF 25
ENDMDL
MODEL 43
REMARK VINA RESULT:      -6.9      4.462      6.278
REMARK  0 active torsions:
REMARK  status: ('A' for Active; 'I' for Inactive)
REMARK       I    between atoms: O3_1  and  C3_6 
REMARK       I    between atoms: O3_3  and  C3_16 
REMARK       I    between atoms: O3_3  and  C1_32 
REMARK       I    between atoms: C8_5  and  C7_53 
REMARK       I    between atoms: C6_7  and  C5_47 
REMARK       I    between atoms: C6_7  and  O6_29 
REMARK       I    between atoms: O4_8  and  C4_45 
REMARK       I    between atoms: O4_8  and  C1_39 
REMARK       I    between atoms: N_10  and  C2_35 
REMARK       I    between atoms: N_10  and  C7_17 
REMARK       I    between atoms: C5_12  and  C6_42 
REMARK       I    between atoms: C1_14  and  O3_57 
REMARK       I    between atoms: C6_15  and  C5_20 
REMARK       I    between atoms: C7_17  and  C8_54 
REMARK       I    between atoms: O6_18  and  C6_42 
REMARK       I    between atoms: S_19  and  O4_46 
REMARK       I    between atoms: C4_22  and  O4_50 
REMARK       I    between atoms: C2_23  and  O2_51 
REMARK       I    between atoms: S_26  and  O4_50 
REMARK       I    between atoms: N_27  and  C2_56 
REMARK       I    between atoms: N_27  and  C7_53 
REMARK       I    between atoms: C5_31  and  C6_55 
REMARK       I    between atoms: C1_33  and  O1_48 
REMARK       I    between atoms: C4_34  and  O4_46 
REMARK       I    between atoms: C3_40  and  O3_57 
REMARK       I    between atoms: C2_41  and  O2_60 
REMARK       I    between atoms: O3_43  and  C3_52 
ROOT
ATOM      1  O3  BDP d 609      27.066  24.107  -6.594  0.00  0.00    -0.390 OA
ATOM      2  C3  BDP d 609      27.337  23.271  -5.476  0.00  0.00     0.092 C 
ATOM      3  O4  BDP d 609      29.063  22.125  -6.664  0.00  0.00    -0.348 OA
ATOM      4  C1  BDP d 609      27.463  23.193  -2.973  0.00  0.00     0.160 C 
ATOM      5  C5  BDP d 609      29.177  22.106  -4.248  0.00  0.00     0.152 C 
ATOM      6  O5  BDP d 609      28.868  22.882  -3.075  0.00  0.00    -0.340 OA
ATOM      7  O6B BDP d 609      31.474  22.705  -4.154  0.00  0.00    -0.646 OA
ATOM      8  C2  BDP d 609      26.998  24.008  -4.188  0.00  0.00     0.110 C 
ATOM      9  C4  BDP d 609      28.809  22.904  -5.493  0.00  0.00     0.103 C 
ATOM     10  C6  BDP d 609      30.654  21.764  -4.183  0.00  0.00     0.206 C 
ATOM     11  O6A BDP d 609      30.951  20.550  -4.192  0.00  0.00    -0.646 OA
ATOM     12  O2  BDP d 609      25.594  24.202  -4.111  0.00  0.00    -0.388 OA
ATOM     13  H   BDP d 609      26.126  24.349  -6.595  0.00  0.00     0.210 HD
ATOM     14  H   BDP d 609      26.742  22.383  -5.529  0.00  0.00     0.091 H 
ATOM     15  H   BDP d 609      26.901  22.284  -2.939  0.00  0.00     0.133 H 
ATOM     16  H   BDP d 609      28.615  21.196  -4.291  0.00  0.00     0.104 H 
ATOM     17  H   BDP d 609      27.498  24.953  -4.189  0.00  0.00     0.094 H 
ATOM     18  H   BDP d 609      29.402  23.794  -5.503  0.00  0.00     0.092 H 
ATOM     19  H   BDP d 609      25.148  23.340  -4.112  0.00  0.00     0.210 HD
ATOM     20  O7  ASG d 610      29.158  19.022  -8.731  0.00  0.00    -0.274 OA
ATOM     21  O3  ASG d 610      31.745  20.923 -10.443  0.00  0.00    -0.348 OA
ATOM     22  OSB ASG d 610      31.060  22.698 -12.996  0.00  0.00    -0.572 OA
ATOM     23  OSA ASG d 610      30.110  24.867 -12.550  0.00  0.00    -0.572 OA
ATOM     24  N   ASG d 610      30.836  20.222  -7.821  0.00  0.00    -0.349 N 
ATOM     25  C5  ASG d 610      30.893  24.257  -8.894  0.00  0.00     0.090 C 
ATOM     26  C3  ASG d 610      31.505  21.921  -9.431  0.00  0.00     0.094 C 
ATOM     27  C7  ASG d 610      30.121  19.110  -7.964  0.00  0.00     0.214 C 
ATOM     28  O6  ASG d 610      30.567  26.572  -8.243  0.00  0.00    -0.398 OA
ATOM     29  O5  ASG d 610      29.830  23.777  -8.048  0.00  0.00    -0.349 OA
ATOM     30  C4  ASG d 610      31.098  23.272 -10.049  0.00  0.00     0.114 C 
ATOM     31  S   ASG d 610      29.927  23.417 -12.378  0.00  0.00     0.252 S 
ATOM     32  C2  ASG d 610      30.418  21.444  -8.479  0.00  0.00     0.087 C 
ATOM     33  C1  ASG d 610      30.145  22.515  -7.428  0.00  0.00     0.154 C 
ATOM     34  C6  ASG d 610      30.522  25.661  -9.333  0.00  0.00     0.043 C 
ATOM     35  OSC ASG d 610      28.651  23.017 -13.004  0.00  0.00    -0.572 OA
ATOM     36  O4  ASG d 610      29.869  23.137 -10.797  0.00  0.00    -0.246 OA
ATOM     37  C8  ASG d 610      30.543  17.906  -7.129  0.00  0.00    -0.003 C 
ATOM     38  H   ASG d 610      31.650  20.215  -7.267  0.00  0.00     0.163 HD
ATOM     39  H   ASG d 610      31.834  24.314  -8.389  0.00  0.00     0.090 H 
ATOM     40  H   ASG d 610      32.419  22.065  -8.893  0.00  0.00     0.091 H 
ATOM     41  H   ASG d 610      30.326  27.459  -8.552  0.00  0.00     0.209 HD
ATOM     42  H   ASG d 610      31.856  23.616 -10.721  0.00  0.00     0.093 H 
ATOM     43  H   ASG d 610      29.525  21.257  -9.039  0.00  0.00     0.084 H 
ATOM     44  H   ASG d 610      31.021  22.630  -6.826  0.00  0.00     0.132 H 
ATOM     45  H   ASG d 610      29.531  25.650  -9.737  0.00  0.00     0.078 H 
ATOM     46  H   ASG d 610      31.227  25.982 -10.070  0.00  0.00     0.078 H 
ATOM     47  H   ASG d 610      29.892  17.082  -7.335  0.00  0.00     0.040 H 
ATOM     48  H   ASG d 610      30.485  18.155  -6.090  0.00  0.00     0.040 H 
ATOM     49  H   ASG d 610      31.548  17.636  -7.375  0.00  0.00     0.040 H 
ATOM     50  C8  ASG d 608      22.913  24.604  -1.710  0.00  0.00    -0.003 C 
ATOM     51  C6  ASG d 608      29.574  22.381   2.288  0.00  0.00     0.043 C 
ATOM     52  O7  ASG d 608      24.718  25.931  -0.902  0.00  0.00    -0.274 OA
ATOM     53  S   ASG d 608      30.070  25.224  -0.238  0.00  0.00     0.252 S 
ATOM     54  OSC ASG d 608      29.618  26.129  -1.313  0.00  0.00    -0.572 OA
ATOM     55  N   ASG d 608      24.771  23.731  -0.392  0.00  0.00    -0.349 N 
ATOM     56  O6  ASG d 608      30.585  21.560   1.711  0.00  0.00    -0.398 OA
ATOM     57  O5  ASG d 608      27.274  23.011   2.266  0.00  0.00    -0.349 OA
ATOM     58  C1  ASG d 608      25.982  23.073   1.631  0.00  0.00     0.151 C 
ATOM     59  C4  ASG d 608      28.447  23.178   0.148  0.00  0.00     0.114 C 
ATOM     60  OSB ASG d 608      30.862  24.159  -0.881  0.00  0.00    -0.572 OA
ATOM     61  C3  ASG d 608      27.130  23.193  -0.598  0.00  0.00     0.094 C 
ATOM     62  O4  ASG d 608      28.874  24.499   0.525  0.00  0.00    -0.246 OA
ATOM     63  C5  ASG d 608      28.291  22.387   1.447  0.00  0.00     0.090 C 
ATOM     64  O1  ASG d 608      25.125  23.756   2.477  0.00  0.00    -0.369 OA
ATOM     65  C7  ASG d 608      24.226  24.805  -0.963  0.00  0.00     0.214 C 
ATOM     66  C2  ASG d 608      26.056  23.819   0.284  0.00  0.00     0.087 C 
ATOM     67  O3  ASG d 608      27.262  23.936  -1.824  0.00  0.00    -0.348 OA
ATOM     68  OSA ASG d 608      30.875  25.871   0.819  0.00  0.00    -0.572 OA
ATOM     69  H   ASG d 608      22.588  25.539  -2.117  0.00  0.00     0.040 H 
ATOM     70  H   ASG d 608      22.172  24.232  -1.034  0.00  0.00     0.040 H 
ATOM     71  H   ASG d 608      23.058  23.901  -2.503  0.00  0.00     0.040 H 
ATOM     72  H   ASG d 608      29.344  22.012   3.265  0.00  0.00     0.078 H 
ATOM     73  H   ASG d 608      29.946  23.384   2.330  0.00  0.00     0.078 H 
ATOM     74  H   ASG d 608      24.298  22.869  -0.428  0.00  0.00     0.163 HD
ATOM     75  H   ASG d 608      30.269  20.645   1.662  0.00  0.00     0.209 HD
ATOM     76  H   ASG d 608      25.636  22.079   1.441  0.00  0.00     0.132 H 
ATOM     77  H   ASG d 608      29.167  22.740  -0.512  0.00  0.00     0.093 H 
ATOM     78  H   ASG d 608      26.849  22.189  -0.837  0.00  0.00     0.091 H 
ATOM     79  H   ASG d 608      28.040  21.386   1.167  0.00  0.00     0.090 H 
ATOM     80  H   ASG d 608      25.466  24.651   2.628  0.00  0.00     0.212 HD
ATOM     81  H   ASG d 608      26.299  24.845   0.465  0.00  0.00     0.084 H 
ATOM     82  O6B GCD d 611      36.307  23.470 -11.469  0.00  0.00    -0.642 OA
ATOM     83  C6  GCD d 611      35.618  22.848 -12.370  0.00  0.00     0.233 C 
ATOM     84  C5  GCD d 611      35.021  21.517 -11.988  0.00  0.00     0.147 C 
ATOM     85  C2  GCD d 611      33.221  19.258 -11.257  0.00  0.00     0.111 C 
ATOM     86  O6A GCD d 611      35.270  23.206 -13.562  0.00  0.00    -0.642 OA
ATOM     87  C4  GCD d 611      35.648  20.316 -11.897  0.00  0.00    -0.034 C 
ATOM     88  C1  GCD d 611      33.078  20.602 -10.616  0.00  0.00     0.165 C 
ATOM     89  O3  GCD d 611      34.871  17.838 -12.186  0.00  0.00    -0.389 OA
ATOM     90  O5  GCD d 611      33.582  21.575 -11.660  0.00  0.00    -0.311 OA
ATOM     91  O2  GCD d 611      32.756  18.216 -10.348  0.00  0.00    -0.388 OA
ATOM     92  C3  GCD d 611      34.773  19.079 -11.471  0.00  0.00     0.084 C 
ATOM     93  H   GCD d 611      32.658  19.188 -12.164  0.00  0.00     0.095 H 
ATOM     94  H   GCD d 611      36.655  20.218 -12.098  0.00  0.00     0.085 H 
ATOM     95  H   GCD d 611      33.586  20.623  -9.675  0.00  0.00     0.134 H 
ATOM     96  H   GCD d 611      34.267  17.189 -11.793  0.00  0.00     0.210 HD
ATOM     97  H   GCD d 611      33.257  18.264  -9.519  0.00  0.00     0.210 HD
ATOM     98  H   GCD d 611      35.301  19.027 -10.542  0.00  0.00     0.093 H 
ENDROOT
TORSDOF 25
ENDMDL
MODEL 44
REMARK VINA RESULT:      -6.8      3.939     12.189
REMARK  0 active torsions:
REMARK  status: ('A' for Active; 'I' for Inactive)
REMARK       I    between atoms: O3_1  and  C3_6 
REMARK       I    between atoms: O3_3  and  C3_16 
REMARK       I    between atoms: O3_3  and  C1_32 
REMARK       I    between atoms: C8_5  and  C7_53 
REMARK       I    between atoms: C6_7  and  C5_47 
REMARK       I    between atoms: C6_7  and  O6_29 
REMARK       I    between atoms: O4_8  and  C4_45 
REMARK       I    between atoms: O4_8  and  C1_39 
REMARK       I    between atoms: N_10  and  C2_35 
REMARK       I    between atoms: N_10  and  C7_17 
REMARK       I    between atoms: C5_12  and  C6_42 
REMARK       I    between atoms: C1_14  and  O3_57 
REMARK       I    between atoms: C6_15  and  C5_20 
REMARK       I    between atoms: C7_17  and  C8_54 
REMARK       I    between atoms: O6_18  and  C6_42 
REMARK       I    between atoms: S_19  and  O4_46 
REMARK       I    between atoms: C4_22  and  O4_50 
REMARK       I    between atoms: C2_23  and  O2_51 
REMARK       I    between atoms: S_26  and  O4_50 
REMARK       I    between atoms: N_27  and  C2_56 
REMARK       I    between atoms: N_27  and  C7_53 
REMARK       I    between atoms: C5_31  and  C6_55 
REMARK       I    between atoms: C1_33  and  O1_48 
REMARK       I    between atoms: C4_34  and  O4_46 
REMARK       I    between atoms: C3_40  and  O3_57 
REMARK       I    between atoms: C2_41  and  O2_60 
REMARK       I    between atoms: O3_43  and  C3_52 
ROOT
ATOM      1  O3  BDP d 609      27.372  24.852  -6.606  0.00  0.00    -0.390 OA
ATOM      2  C3  BDP d 609      28.732  24.492  -6.406  0.00  0.00     0.092 C 
ATOM      3  O4  BDP d 609      28.187  23.242  -4.447  0.00  0.00    -0.348 OA
ATOM      4  C1  BDP d 609      30.868  23.877  -7.566  0.00  0.00     0.160 C 
ATOM      5  C5  BDP d 609      30.220  22.646  -5.615  0.00  0.00     0.152 C 
ATOM      6  O5  BDP d 609      30.821  22.587  -6.922  0.00  0.00    -0.340 OA
ATOM      7  O6B BDP d 609      29.771  20.312  -5.613  0.00  0.00    -0.646 OA
ATOM      8  C2  BDP d 609      29.454  24.446  -7.745  0.00  0.00     0.110 C 
ATOM      9  C4  BDP d 609      28.780  23.130  -5.742  0.00  0.00     0.103 C 
ATOM     10  C6  BDP d 609      30.322  21.257  -5.011  0.00  0.00     0.206 C 
ATOM     11  O6A BDP d 609      30.935  21.160  -3.926  0.00  0.00    -0.646 OA
ATOM     12  O2  BDP d 609      29.543  25.758  -8.280  0.00  0.00    -0.388 OA
ATOM     13  H   BDP d 609      27.326  25.723  -7.031  0.00  0.00     0.210 HD
ATOM     14  H   BDP d 609      29.215  25.216  -5.783  0.00  0.00     0.091 H 
ATOM     15  H   BDP d 609      31.433  24.554  -6.960  0.00  0.00     0.133 H 
ATOM     16  H   BDP d 609      30.719  23.338  -4.970  0.00  0.00     0.104 H 
ATOM     17  H   BDP d 609      28.905  23.816  -8.413  0.00  0.00     0.094 H 
ATOM     18  H   BDP d 609      28.244  22.420  -6.336  0.00  0.00     0.092 H 
ATOM     19  H   BDP d 609      30.042  26.323  -7.669  0.00  0.00     0.210 HD
ATOM     20  O7  ASG d 610      28.093  24.048  -0.807  0.00  0.00    -0.274 OA
ATOM     21  O3  ASG d 610      25.405  21.599  -0.914  0.00  0.00    -0.348 OA
ATOM     22  OSB ASG d 610      22.373  22.503  -1.275  0.00  0.00    -0.572 OA
ATOM     23  OSA ASG d 610      21.679  22.995  -3.529  0.00  0.00    -0.572 OA
ATOM     24  N   ASG d 610      28.067  22.056  -1.862  0.00  0.00    -0.349 N 
ATOM     25  C5  ASG d 610      25.008  21.593  -4.668  0.00  0.00     0.090 C 
ATOM     26  C3  ASG d 610      25.746  21.471  -2.309  0.00  0.00     0.094 C 
ATOM     27  C7  ASG d 610      28.604  22.949  -1.035  0.00  0.00     0.214 C 
ATOM     28  O6  ASG d 610      24.353  21.418  -6.997  0.00  0.00    -0.398 OA
ATOM     29  O5  ASG d 610      26.073  22.524  -4.945  0.00  0.00    -0.349 OA
ATOM     30  C4  ASG d 610      24.544  21.781  -3.220  0.00  0.00     0.114 C 
ATOM     31  S   ASG d 610      22.612  23.362  -2.453  0.00  0.00     0.252 S 
ATOM     32  C2  ASG d 610      26.900  22.404  -2.648  0.00  0.00     0.087 C 
ATOM     33  C1  ASG d 610      27.238  22.290  -4.131  0.00  0.00     0.154 C 
ATOM     34  C6  ASG d 610      23.925  21.824  -5.704  0.00  0.00     0.043 C 
ATOM     35  OSC ASG d 610      22.415  24.784  -2.110  0.00  0.00    -0.572 OA
ATOM     36  O4  ASG d 610      24.098  23.142  -3.026  0.00  0.00    -0.246 OA
ATOM     37  C8  ASG d 610      29.910  22.558  -0.351  0.00  0.00    -0.003 C 
ATOM     38  H   ASG d 610      28.463  21.158  -1.940  0.00  0.00     0.163 HD
ATOM     39  H   ASG d 610      25.318  20.572  -4.744  0.00  0.00     0.090 H 
ATOM     40  H   ASG d 610      26.039  20.457  -2.481  0.00  0.00     0.091 H 
ATOM     41  H   ASG d 610      23.642  21.577  -7.638  0.00  0.00     0.209 HD
ATOM     42  H   ASG d 610      23.726  21.131  -2.989  0.00  0.00     0.093 H 
ATOM     43  H   ASG d 610      26.609  23.410  -2.425  0.00  0.00     0.084 H 
ATOM     44  H   ASG d 610      27.604  21.302  -4.320  0.00  0.00     0.132 H 
ATOM     45  H   ASG d 610      23.681  22.865  -5.728  0.00  0.00     0.078 H 
ATOM     46  H   ASG d 610      23.070  21.241  -5.433  0.00  0.00     0.078 H 
ATOM     47  H   ASG d 610      30.234  23.357   0.282  0.00  0.00     0.040 H 
ATOM     48  H   ASG d 610      30.656  22.365  -1.093  0.00  0.00     0.040 H 
ATOM     49  H   ASG d 610      29.755  21.678   0.236  0.00  0.00     0.040 H 
ATOM     50  C8  ASG d 608      31.592  27.802 -10.457  0.00  0.00    -0.003 C 
ATOM     51  C6  ASG d 608      35.536  20.897  -9.025  0.00  0.00     0.043 C 
ATOM     52  O7  ASG d 608      31.401  25.688 -11.535  0.00  0.00    -0.274 OA
ATOM     53  S   ASG d 608      31.851  20.487 -10.005  0.00  0.00     0.252 S 
ATOM     54  OSC ASG d 608      30.505  21.002 -10.327  0.00  0.00    -0.572 OA
ATOM     55  N   ASG d 608      32.998  25.874  -9.949  0.00  0.00    -0.349 N 
ATOM     56  O6  ASG d 608      35.396  20.163  -7.812  0.00  0.00    -0.398 OA
ATOM     57  O5  ASG d 608      35.391  23.027 -10.085  0.00  0.00    -0.349 OA
ATOM     58  C1  ASG d 608      34.940  24.396 -10.126  0.00  0.00     0.151 C 
ATOM     59  C4  ASG d 608      33.413  22.296  -8.883  0.00  0.00     0.114 C 
ATOM     60  OSB ASG d 608      31.806  20.017  -8.610  0.00  0.00    -0.572 OA
ATOM     61  C3  ASG d 608      32.897  23.718  -8.836  0.00  0.00     0.094 C 
ATOM     62  O4  ASG d 608      32.988  21.603 -10.070  0.00  0.00    -0.246 OA
ATOM     63  C5  ASG d 608      34.942  22.307  -8.914  0.00  0.00     0.090 C 
ATOM     64  O1  ASG d 608      35.366  24.947 -11.322  0.00  0.00    -0.369 OA
ATOM     65  C7  ASG d 608      31.994  26.351 -10.685  0.00  0.00     0.214 C 
ATOM     66  C2  ASG d 608      33.403  24.481 -10.054  0.00  0.00     0.087 C 
ATOM     67  O3  ASG d 608      31.458  23.723  -8.807  0.00  0.00    -0.348 OA
ATOM     68  OSA ASG d 608      32.322  19.396 -10.882  0.00  0.00    -0.572 OA
ATOM     69  H   ASG d 608      30.781  28.055 -11.107  0.00  0.00     0.040 H 
ATOM     70  H   ASG d 608      32.426  28.440 -10.662  0.00  0.00     0.040 H 
ATOM     71  H   ASG d 608      31.287  27.932  -9.440  0.00  0.00     0.040 H 
ATOM     72  H   ASG d 608      36.576  20.978  -9.262  0.00  0.00     0.078 H 
ATOM     73  H   ASG d 608      35.003  20.373  -9.791  0.00  0.00     0.078 H 
ATOM     74  H   ASG d 608      33.470  26.473  -9.326  0.00  0.00     0.163 HD
ATOM     75  H   ASG d 608      35.872  20.620  -7.101  0.00  0.00     0.209 HD
ATOM     76  H   ASG d 608      35.342  24.923  -9.286  0.00  0.00     0.132 H 
ATOM     77  H   ASG d 608      33.025  21.801  -8.017  0.00  0.00     0.093 H 
ATOM     78  H   ASG d 608      33.256  24.194  -7.947  0.00  0.00     0.091 H 
ATOM     79  H   ASG d 608      35.262  22.761  -8.000  0.00  0.00     0.090 H 
ATOM     80  H   ASG d 608      34.986  24.449 -12.061  0.00  0.00     0.212 HD
ATOM     81  H   ASG d 608      32.987  24.050 -10.941  0.00  0.00     0.084 H 
ATOM     82  O6B GCD d 611      22.771  17.001  -1.433  0.00  0.00    -0.642 OA
ATOM     83  C6  GCD d 611      22.406  17.946  -0.628  0.00  0.00     0.233 C 
ATOM     84  C5  GCD d 611      23.491  18.651   0.146  0.00  0.00     0.147 C 
ATOM     85  C2  GCD d 611      25.473  20.594   1.230  0.00  0.00     0.111 C 
ATOM     86  O6A GCD d 611      21.244  18.467  -0.411  0.00  0.00    -0.642 OA
ATOM     87  C4  GCD d 611      24.150  18.213   1.249  0.00  0.00    -0.034 C 
ATOM     88  C1  GCD d 611      25.309  20.395  -0.243  0.00  0.00     0.165 C 
ATOM     89  O3  GCD d 611      25.298  19.407   3.270  0.00  0.00    -0.389 OA
ATOM     90  O5  GCD d 611      23.867  19.967  -0.409  0.00  0.00    -0.311 OA
ATOM     91  O2  GCD d 611      26.834  21.021   1.531  0.00  0.00    -0.388 OA
ATOM     92  C3  GCD d 611      25.247  19.165   1.856  0.00  0.00     0.084 C 
ATOM     93  H   GCD d 611      24.798  21.333   1.609  0.00  0.00     0.095 H 
ATOM     94  H   GCD d 611      23.942  17.295   1.671  0.00  0.00     0.085 H 
ATOM     95  H   GCD d 611      26.044  19.710  -0.612  0.00  0.00     0.134 H 
ATOM     96  H   GCD d 611      26.029  20.011   3.469  0.00  0.00     0.210 HD
ATOM     97  H   GCD d 611      27.461  20.362   1.194  0.00  0.00     0.210 HD
ATOM     98  H   GCD d 611      26.008  18.474   1.559  0.00  0.00     0.093 H 
ENDROOT
TORSDOF 25
ENDMDL
MODEL 45
REMARK VINA RESULT:      -6.8      4.460      5.604
REMARK  0 active torsions:
REMARK  status: ('A' for Active; 'I' for Inactive)
REMARK       I    between atoms: O3_1  and  C3_6 
REMARK       I    between atoms: O3_3  and  C3_16 
REMARK       I    between atoms: O3_3  and  C1_32 
REMARK       I    between atoms: C8_5  and  C7_53 
REMARK       I    between atoms: C6_7  and  C5_47 
REMARK       I    between atoms: C6_7  and  O6_29 
REMARK       I    between atoms: O4_8  and  C4_45 
REMARK       I    between atoms: O4_8  and  C1_39 
REMARK       I    between atoms: N_10  and  C2_35 
REMARK       I    between atoms: N_10  and  C7_17 
REMARK       I    between atoms: C5_12  and  C6_42 
REMARK       I    between atoms: C1_14  and  O3_57 
REMARK       I    between atoms: C6_15  and  C5_20 
REMARK       I    between atoms: C7_17  and  C8_54 
REMARK       I    between atoms: O6_18  and  C6_42 
REMARK       I    between atoms: S_19  and  O4_46 
REMARK       I    between atoms: C4_22  and  O4_50 
REMARK       I    between atoms: C2_23  and  O2_51 
REMARK       I    between atoms: S_26  and  O4_50 
REMARK       I    between atoms: N_27  and  C2_56 
REMARK       I    between atoms: N_27  and  C7_53 
REMARK       I    between atoms: C5_31  and  C6_55 
REMARK       I    between atoms: C1_33  and  O1_48 
REMARK       I    between atoms: C4_34  and  O4_46 
REMARK       I    between atoms: C3_40  and  O3_57 
REMARK       I    between atoms: C2_41  and  O2_60 
REMARK       I    between atoms: O3_43  and  C3_52 
ROOT
ATOM      1  O3  BDP d 609      25.174  20.032  -5.990  0.00  0.00    -0.390 OA
ATOM      2  C3  BDP d 609      25.949  19.817  -4.817  0.00  0.00     0.092 C 
ATOM      3  O4  BDP d 609      27.955  20.459  -5.941  0.00  0.00    -0.348 OA
ATOM      4  C1  BDP d 609      25.957  20.010  -2.317  0.00  0.00     0.160 C 
ATOM      5  C5  BDP d 609      27.914  20.673  -3.532  0.00  0.00     0.152 C 
ATOM      6  O5  BDP d 609      27.048  20.950  -2.416  0.00  0.00    -0.340 OA
ATOM      7  O6B BDP d 609      28.795  22.880  -3.516  0.00  0.00    -0.646 OA
ATOM      8  C2  BDP d 609      25.090  20.052  -3.583  0.00  0.00     0.110 C 
ATOM      9  C4  BDP d 609      27.119  20.781  -4.828  0.00  0.00     0.103 C 
ATOM     10  C6  BDP d 609      29.064  21.662  -3.463  0.00  0.00     0.206 C 
ATOM     11  O6A BDP d 609      30.215  21.181  -3.386  0.00  0.00    -0.646 OA
ATOM     12  O2  BDP d 609      24.095  19.042  -3.501  0.00  0.00    -0.388 OA
ATOM     13  H   BDP d 609      24.420  19.420  -5.996  0.00  0.00     0.210 HD
ATOM     14  H   BDP d 609      26.310  18.810  -4.796  0.00  0.00     0.091 H 
ATOM     15  H   BDP d 609      26.351  19.022  -2.208  0.00  0.00     0.133 H 
ATOM     16  H   BDP d 609      28.312  19.681  -3.500  0.00  0.00     0.104 H 
ATOM     17  H   BDP d 609      24.629  21.014  -3.660  0.00  0.00     0.094 H 
ATOM     18  H   BDP d 609      26.759  21.785  -4.912  0.00  0.00     0.092 H 
ATOM     19  H   BDP d 609      24.521  18.174  -3.431  0.00  0.00     0.210 HD
ATOM     20  O7  ASG d 610      30.607  18.583  -7.773  0.00  0.00    -0.274 OA
ATOM     21  O3  ASG d 610      30.709  21.694  -9.658  0.00  0.00    -0.348 OA
ATOM     22  OSB ASG d 610      29.007  22.053 -12.325  0.00  0.00    -0.572 OA
ATOM     23  OSA ASG d 610      26.680  22.599 -12.028  0.00  0.00    -0.572 OA
ATOM     24  N   ASG d 610      30.596  20.693  -6.979  0.00  0.00    -0.349 N 
ATOM     25  C5  ASG d 610      27.447  23.069  -8.349  0.00  0.00     0.090 C 
ATOM     26  C3  ASG d 610      29.713  22.148  -8.719  0.00  0.00     0.094 C 
ATOM     27  C7  ASG d 610      31.070  19.451  -7.029  0.00  0.00     0.214 C 
ATOM     28  O6  ASG d 610      25.363  24.215  -7.866  0.00  0.00    -0.398 OA
ATOM     29  O5  ASG d 610      27.157  21.977  -7.454  0.00  0.00    -0.349 OA
ATOM     30  C4  ASG d 610      28.419  22.586  -9.430  0.00  0.00     0.114 C 
ATOM     31  S   ASG d 610      27.725  21.602 -11.747  0.00  0.00     0.252 S 
ATOM     32  C2  ASG d 610      29.400  21.044  -7.719  0.00  0.00     0.087 C 
ATOM     33  C1  ASG d 610      28.325  21.517  -6.747  0.00  0.00     0.154 C 
ATOM     34  C6  ASG d 610      26.123  23.578  -8.885  0.00  0.00     0.043 C 
ATOM     35  OSC ASG d 610      27.319  20.305 -12.323  0.00  0.00    -0.572 OA
ATOM     36  O4  ASG d 610      27.834  21.477 -10.148  0.00  0.00    -0.246 OA
ATOM     37  C8  ASG d 610      32.244  19.123  -6.113  0.00  0.00    -0.003 C 
ATOM     38  H   ASG d 610      31.057  21.374  -6.437  0.00  0.00     0.163 HD
ATOM     39  H   ASG d 610      27.935  23.888  -7.862  0.00  0.00     0.090 H 
ATOM     40  H   ASG d 610      30.113  22.997  -8.207  0.00  0.00     0.091 H 
ATOM     41  H   ASG d 610      24.524  24.529  -8.237  0.00  0.00     0.209 HD
ATOM     42  H   ASG d 610      28.628  23.362 -10.136  0.00  0.00     0.093 H 
ATOM     43  H   ASG d 610      29.048  20.185  -8.252  0.00  0.00     0.084 H 
ATOM     44  H   ASG d 610      28.723  22.324  -6.168  0.00  0.00     0.132 H 
ATOM     45  H   ASG d 610      25.563  22.753  -9.273  0.00  0.00     0.078 H 
ATOM     46  H   ASG d 610      26.323  24.295  -9.654  0.00  0.00     0.078 H 
ATOM     47  H   ASG d 610      32.528  18.101  -6.249  0.00  0.00     0.040 H 
ATOM     48  H   ASG d 610      31.957  19.282  -5.095  0.00  0.00     0.040 H 
ATOM     49  H   ASG d 610      33.071  19.758  -6.352  0.00  0.00     0.040 H 
ATOM     50  C8  ASG d 608      22.054  17.259  -1.098  0.00  0.00    -0.003 C 
ATOM     51  C6  ASG d 608      27.595  21.517   2.959  0.00  0.00     0.043 C 
ATOM     52  O7  ASG d 608      22.023  19.541  -0.417  0.00  0.00    -0.274 OA
ATOM     53  S   ASG d 608      25.739  23.460   0.222  0.00  0.00     0.252 S 
ATOM     54  OSC ASG d 608      24.799  23.573  -0.910  0.00  0.00    -0.572 OA
ATOM     55  N   ASG d 608      23.793  18.308   0.255  0.00  0.00    -0.349 N 
ATOM     56  O6  ASG d 608      28.885  21.812   2.430  0.00  0.00    -0.398 OA
ATOM     57  O5  ASG d 608      25.724  20.041   2.923  0.00  0.00    -0.349 OA
ATOM     58  C1  ASG d 608      24.938  19.004   2.303  0.00  0.00     0.151 C 
ATOM     59  C4  ASG d 608      26.395  20.965   0.782  0.00  0.00     0.114 C 
ATOM     60  OSB ASG d 608      27.097  23.430  -0.350  0.00  0.00    -0.572 OA
ATOM     61  C3  ASG d 608      25.638  19.874   0.056  0.00  0.00     0.094 C 
ATOM     62  O4  ASG d 608      25.570  22.111   1.054  0.00  0.00    -0.246 OA
ATOM     63  C5  ASG d 608      26.870  20.443   2.138  0.00  0.00     0.090 C 
ATOM     64  O1  ASG d 608      23.837  18.766   3.108  0.00  0.00    -0.369 OA
ATOM     65  C7  ASG d 608      22.636  18.474  -0.387  0.00  0.00     0.214 C 
ATOM     66  C2  ASG d 608      24.452  19.430   0.904  0.00  0.00     0.087 C 
ATOM     67  O3  ASG d 608      25.184  20.352  -1.224  0.00  0.00    -0.348 OA
ATOM     68  OSA ASG d 608      25.644  24.549   1.217  0.00  0.00    -0.572 OA
ATOM     69  H   ASG d 608      21.132  17.528  -1.569  0.00  0.00     0.040 H 
ATOM     70  H   ASG d 608      21.878  16.480  -0.386  0.00  0.00     0.040 H 
ATOM     71  H   ASG d 608      22.745  16.915  -1.839  0.00  0.00     0.040 H 
ATOM     72  H   ASG d 608      27.705  21.169   3.964  0.00  0.00     0.078 H 
ATOM     73  H   ASG d 608      27.010  22.413   2.921  0.00  0.00     0.078 H 
ATOM     74  H   ASG d 608      24.205  17.415   0.289  0.00  0.00     0.163 HD
ATOM     75  H   ASG d 608      29.434  21.013   2.454  0.00  0.00     0.209 HD
ATOM     76  H   ASG d 608      25.539  18.126   2.192  0.00  0.00     0.132 H 
ATOM     77  H   ASG d 608      27.209  21.248   0.146  0.00  0.00     0.093 H 
ATOM     78  H   ASG d 608      26.289  19.040  -0.104  0.00  0.00     0.091 H 
ATOM     79  H   ASG d 608      27.539  19.633   1.937  0.00  0.00     0.090 H 
ATOM     80  H   ASG d 608      23.314  19.579   3.188  0.00  0.00     0.212 HD
ATOM     81  H   ASG d 608      23.764  20.244   1.005  0.00  0.00     0.084 H 
ATOM     82  O6B GCD d 611      31.431  26.812 -10.934  0.00  0.00    -0.642 OA
ATOM     83  C6  GCD d 611      31.566  25.840 -11.778  0.00  0.00     0.233 C 
ATOM     84  C5  GCD d 611      32.259  24.593 -11.289  0.00  0.00     0.147 C 
ATOM     85  C2  GCD d 611      32.964  21.849 -10.367  0.00  0.00     0.111 C 
ATOM     86  O6A GCD d 611      31.133  25.706 -12.987  0.00  0.00    -0.642 OA
ATOM     87  C4  GCD d 611      33.591  24.390 -11.118  0.00  0.00    -0.034 C 
ATOM     88  C1  GCD d 611      31.768  22.565  -9.826  0.00  0.00     0.165 C 
ATOM     89  O3  GCD d 611      35.131  22.282 -11.212  0.00  0.00    -0.389 OA
ATOM     90  O5  GCD d 611      31.340  23.489 -10.946  0.00  0.00    -0.311 OA
ATOM     91  O2  GCD d 611      33.476  20.908  -9.378  0.00  0.00    -0.388 OA
ATOM     92  C3  GCD d 611      34.041  22.978 -10.590  0.00  0.00     0.084 C 
ATOM     93  H   GCD d 611      32.731  21.304 -11.258  0.00  0.00     0.095 H 
ATOM     94  H   GCD d 611      34.279  25.131 -11.326  0.00  0.00     0.085 H 
ATOM     95  H   GCD d 611      32.004  23.038  -8.896  0.00  0.00     0.134 H 
ATOM     96  H   GCD d 611      35.273  21.434 -10.763  0.00  0.00     0.210 HD
ATOM     97  H   GCD d 611      33.693  21.385  -8.561  0.00  0.00     0.210 HD
ATOM     98  H   GCD d 611      34.349  23.423  -9.667  0.00  0.00     0.093 H 
ENDROOT
TORSDOF 25
ENDMDL
MODEL 46
REMARK VINA RESULT:      -6.7      2.996      5.771
REMARK  0 active torsions:
REMARK  status: ('A' for Active; 'I' for Inactive)
REMARK       I    between atoms: O3_1  and  C3_6 
REMARK       I    between atoms: O3_3  and  C3_16 
REMARK       I    between atoms: O3_3  and  C1_32 
REMARK       I    between atoms: C8_5  and  C7_53 
REMARK       I    between atoms: C6_7  and  C5_47 
REMARK       I    between atoms: C6_7  and  O6_29 
REMARK       I    between atoms: O4_8  and  C4_45 
REMARK       I    between atoms: O4_8  and  C1_39 
REMARK       I    between atoms: N_10  and  C2_35 
REMARK       I    between atoms: N_10  and  C7_17 
REMARK       I    between atoms: C5_12  and  C6_42 
REMARK       I    between atoms: C1_14  and  O3_57 
REMARK       I    between atoms: C6_15  and  C5_20 
REMARK       I    between atoms: C7_17  and  C8_54 
REMARK       I    between atoms: O6_18  and  C6_42 
REMARK       I    between atoms: S_19  and  O4_46 
REMARK       I    between atoms: C4_22  and  O4_50 
REMARK       I    between atoms: C2_23  and  O2_51 
REMARK       I    between atoms: S_26  and  O4_50 
REMARK       I    between atoms: N_27  and  C2_56 
REMARK       I    between atoms: N_27  and  C7_53 
REMARK       I    between atoms: C5_31  and  C6_55 
REMARK       I    between atoms: C1_33  and  O1_48 
REMARK       I    between atoms: C4_34  and  O4_46 
REMARK       I    between atoms: C3_40  and  O3_57 
REMARK       I    between atoms: C2_41  and  O2_60 
REMARK       I    between atoms: O3_43  and  C3_52 
ROOT
ATOM      1  O3  BDP d 609      31.494  27.337  -2.688  0.00  0.00    -0.390 OA
ATOM      2  C3  BDP d 609      30.207  26.742  -2.778  0.00  0.00     0.092 C 
ATOM      3  O4  BDP d 609      29.750  27.875  -4.829  0.00  0.00    -0.348 OA
ATOM      4  C1  BDP d 609      28.894  24.651  -2.340  0.00  0.00     0.160 C 
ATOM      5  C5  BDP d 609      28.531  25.831  -4.394  0.00  0.00     0.152 C 
ATOM      6  O5  BDP d 609      28.633  24.545  -3.755  0.00  0.00    -0.340 OA
ATOM      7  O6B BDP d 609      28.936  24.899  -6.543  0.00  0.00    -0.646 OA
ATOM      8  C2  BDP d 609      30.218  25.386  -2.087  0.00  0.00     0.110 C 
ATOM      9  C4  BDP d 609      29.852  26.576  -4.243  0.00  0.00     0.103 C 
ATOM     10  C6  BDP d 609      28.159  25.583  -5.845  0.00  0.00     0.206 C 
ATOM     11  O6A BDP d 609      27.100  26.109  -6.251  0.00  0.00    -0.646 OA
ATOM     12  O2  BDP d 609      30.390  25.569  -0.689  0.00  0.00    -0.388 OA
ATOM     13  H   BDP d 609      31.734  27.450  -1.754  0.00  0.00     0.210 HD
ATOM     14  H   BDP d 609      29.480  27.364  -2.298  0.00  0.00     0.091 H 
ATOM     15  H   BDP d 609      28.105  25.203  -1.875  0.00  0.00     0.133 H 
ATOM     16  H   BDP d 609      27.781  26.448  -3.947  0.00  0.00     0.104 H 
ATOM     17  H   BDP d 609      31.023  24.803  -2.481  0.00  0.00     0.094 H 
ATOM     18  H   BDP d 609      30.612  26.005  -4.735  0.00  0.00     0.092 H 
ATOM     19  H   BDP d 609      29.656  26.099  -0.340  0.00  0.00     0.210 HD
ATOM     20  O7  ASG d 610      28.079  31.097  -5.688  0.00  0.00    -0.274 OA
ATOM     21  O3  ASG d 610      30.500  30.974  -8.400  0.00  0.00    -0.348 OA
ATOM     22  OSB ASG d 610      33.328  32.416  -8.144  0.00  0.00    -0.572 OA
ATOM     23  OSA ASG d 610      35.017  31.216  -6.914  0.00  0.00    -0.572 OA
ATOM     24  N   ASG d 610      28.618  29.340  -6.993  0.00  0.00    -0.349 N 
ATOM     25  C5  ASG d 610      32.652  28.258  -6.903  0.00  0.00     0.090 C 
ATOM     26  C3  ASG d 610      30.872  29.697  -7.843  0.00  0.00     0.094 C 
ATOM     27  C7  ASG d 610      27.746  30.176  -6.438  0.00  0.00     0.214 C 
ATOM     28  O6  ASG d 610      34.347  26.663  -6.218  0.00  0.00    -0.398 OA
ATOM     29  O5  ASG d 610      31.846  28.042  -5.727  0.00  0.00    -0.349 OA
ATOM     30  C4  ASG d 610      32.363  29.656  -7.458  0.00  0.00     0.114 C 
ATOM     31  S   ASG d 610      33.680  31.824  -6.837  0.00  0.00     0.252 S 
ATOM     32  C2  ASG d 610      30.018  29.397  -6.619  0.00  0.00     0.087 C 
ATOM     33  C1  ASG d 610      30.435  28.061  -6.013  0.00  0.00     0.154 C 
ATOM     34  C6  ASG d 610      34.099  28.032  -6.508  0.00  0.00     0.043 C 
ATOM     35  OSC ASG d 610      33.681  32.855  -5.780  0.00  0.00    -0.572 OA
ATOM     36  O4  ASG d 610      32.654  30.649  -6.449  0.00  0.00    -0.246 OA
ATOM     37  C8  ASG d 610      26.274  29.960  -6.774  0.00  0.00    -0.003 C 
ATOM     38  H   ASG d 610      28.314  28.680  -7.657  0.00  0.00     0.163 HD
ATOM     39  H   ASG d 610      32.422  27.577  -7.696  0.00  0.00     0.090 H 
ATOM     40  H   ASG d 610      30.703  28.953  -8.592  0.00  0.00     0.091 H 
ATOM     41  H   ASG d 610      35.277  26.549  -5.969  0.00  0.00     0.209 HD
ATOM     42  H   ASG d 610      32.972  29.867  -8.312  0.00  0.00     0.093 H 
ATOM     43  H   ASG d 610      30.161  30.176  -5.898  0.00  0.00     0.084 H 
ATOM     44  H   ASG d 610      30.210  27.286  -6.716  0.00  0.00     0.132 H 
ATOM     45  H   ASG d 610      34.319  28.618  -5.641  0.00  0.00     0.078 H 
ATOM     46  H   ASG d 610      34.722  28.322  -7.328  0.00  0.00     0.078 H 
ATOM     47  H   ASG d 610      25.682  30.694  -6.269  0.00  0.00     0.040 H 
ATOM     48  H   ASG d 610      25.977  28.982  -6.458  0.00  0.00     0.040 H 
ATOM     49  H   ASG d 610      26.132  30.053  -7.830  0.00  0.00     0.040 H 
ATOM     50  C8  ASG d 608      29.629  24.015   2.492  0.00  0.00    -0.003 C 
ATOM     51  C6  ASG d 608      25.517  20.121  -3.272  0.00  0.00     0.043 C 
ATOM     52  O7  ASG d 608      30.325  22.250   1.052  0.00  0.00    -0.274 OA
ATOM     53  S   ASG d 608      29.221  20.732  -4.053  0.00  0.00     0.252 S 
ATOM     54  OSC ASG d 608      30.554  21.302  -3.771  0.00  0.00    -0.572 OA
ATOM     55  N   ASG d 608      28.161  22.882   0.906  0.00  0.00    -0.349 N 
ATOM     56  O6  ASG d 608      25.060  20.758  -4.462  0.00  0.00    -0.398 OA
ATOM     57  O5  ASG d 608      26.143  20.394  -0.988  0.00  0.00    -0.349 OA
ATOM     58  C1  ASG d 608      26.550  21.212   0.126  0.00  0.00     0.151 C 
ATOM     59  C4  ASG d 608      27.304  21.802  -2.589  0.00  0.00     0.114 C 
ATOM     60  OSB ASG d 608      28.593  21.596  -5.068  0.00  0.00    -0.572 OA
ATOM     61  C3  ASG d 608      27.726  22.741  -1.480  0.00  0.00     0.094 C 
ATOM     62  O4  ASG d 608      28.250  20.737  -2.790  0.00  0.00    -0.246 OA
ATOM     63  C5  ASG d 608      25.977  21.136  -2.219  0.00  0.00     0.090 C 
ATOM     64  O1  ASG d 608      26.749  20.379   1.214  0.00  0.00    -0.369 OA
ATOM     65  C7  ASG d 608      29.393  22.970   1.408  0.00  0.00     0.214 C 
ATOM     66  C2  ASG d 608      27.864  21.959  -0.179  0.00  0.00     0.087 C 
ATOM     67  O3  ASG d 608      28.975  23.375  -1.814  0.00  0.00    -0.348 OA
ATOM     68  OSA ASG d 608      29.235  19.334  -4.531  0.00  0.00    -0.572 OA
ATOM     69  H   ASG d 608      30.651  23.980   2.804  0.00  0.00     0.040 H 
ATOM     70  H   ASG d 608      28.993  23.811   3.328  0.00  0.00     0.040 H 
ATOM     71  H   ASG d 608      29.407  24.987   2.104  0.00  0.00     0.040 H 
ATOM     72  H   ASG d 608      24.719  19.538  -2.864  0.00  0.00     0.078 H 
ATOM     73  H   ASG d 608      26.355  19.506  -3.528  0.00  0.00     0.078 H 
ATOM     74  H   ASG d 608      27.445  23.448   1.273  0.00  0.00     0.163 HD
ATOM     75  H   ASG d 608      24.299  21.322  -4.255  0.00  0.00     0.209 HD
ATOM     76  H   ASG d 608      25.792  21.940   0.324  0.00  0.00     0.132 H 
ATOM     77  H   ASG d 608      27.230  22.393  -3.478  0.00  0.00     0.093 H 
ATOM     78  H   ASG d 608      26.981  23.500  -1.358  0.00  0.00     0.091 H 
ATOM     79  H   ASG d 608      25.255  21.921  -2.135  0.00  0.00     0.090 H 
ATOM     80  H   ASG d 608      27.440  19.732   1.004  0.00  0.00     0.212 HD
ATOM     81  H   ASG d 608      28.657  21.247  -0.275  0.00  0.00     0.084 H 
ATOM     82  O6B GCD d 611      33.083  29.479 -12.810  0.00  0.00    -0.642 OA
ATOM     83  C6  GCD d 611      33.011  30.706 -12.406  0.00  0.00     0.233 C 
ATOM     84  C5  GCD d 611      31.684  31.180 -11.869  0.00  0.00     0.147 C 
ATOM     85  C2  GCD d 611      29.415  32.107 -10.175  0.00  0.00     0.111 C 
ATOM     86  O6A GCD d 611      33.923  31.615 -12.304  0.00  0.00    -0.642 OA
ATOM     87  C4  GCD d 611      30.578  31.536 -12.571  0.00  0.00    -0.034 C 
ATOM     88  C1  GCD d 611      30.268  30.951  -9.762  0.00  0.00     0.165 C 
ATOM     89  O3  GCD d 611      28.595  33.176 -12.121  0.00  0.00    -0.389 OA
ATOM     90  O5  GCD d 611      31.615  31.227 -10.394  0.00  0.00    -0.311 OA
ATOM     91  O2  GCD d 611      28.075  31.967  -9.619  0.00  0.00    -0.388 OA
ATOM     92  C3  GCD d 611      29.319  31.996 -11.745  0.00  0.00     0.084 C 
ATOM     93  H   GCD d 611      29.821  33.040  -9.841  0.00  0.00     0.095 H 
ATOM     94  H   GCD d 611      30.563  31.506 -13.602  0.00  0.00     0.085 H 
ATOM     95  H   GCD d 611      29.804  30.027 -10.039  0.00  0.00     0.134 H 
ATOM     96  H   GCD d 611      27.854  33.310 -11.509  0.00  0.00     0.210 HD
ATOM     97  H   GCD d 611      27.690  31.127  -9.911  0.00  0.00     0.210 HD
ATOM     98  H   GCD d 611      28.798  31.113 -12.052  0.00  0.00     0.093 H 
ENDROOT
TORSDOF 25
ENDMDL
MODEL 47
REMARK VINA RESULT:      -6.7      3.706      5.713
REMARK  0 active torsions:
REMARK  status: ('A' for Active; 'I' for Inactive)
REMARK       I    between atoms: O3_1  and  C3_6 
REMARK       I    between atoms: O3_3  and  C3_16 
REMARK       I    between atoms: O3_3  and  C1_32 
REMARK       I    between atoms: C8_5  and  C7_53 
REMARK       I    between atoms: C6_7  and  C5_47 
REMARK       I    between atoms: C6_7  and  O6_29 
REMARK       I    between atoms: O4_8  and  C4_45 
REMARK       I    between atoms: O4_8  and  C1_39 
REMARK       I    between atoms: N_10  and  C2_35 
REMARK       I    between atoms: N_10  and  C7_17 
REMARK       I    between atoms: C5_12  and  C6_42 
REMARK       I    between atoms: C1_14  and  O3_57 
REMARK       I    between atoms: C6_15  and  C5_20 
REMARK       I    between atoms: C7_17  and  C8_54 
REMARK       I    between atoms: O6_18  and  C6_42 
REMARK       I    between atoms: S_19  and  O4_46 
REMARK       I    between atoms: C4_22  and  O4_50 
REMARK       I    between atoms: C2_23  and  O2_51 
REMARK       I    between atoms: S_26  and  O4_50 
REMARK       I    between atoms: N_27  and  C2_56 
REMARK       I    between atoms: N_27  and  C7_53 
REMARK       I    between atoms: C5_31  and  C6_55 
REMARK       I    between atoms: C1_33  and  O1_48 
REMARK       I    between atoms: C4_34  and  O4_46 
REMARK       I    between atoms: C3_40  and  O3_57 
REMARK       I    between atoms: C2_41  and  O2_60 
REMARK       I    between atoms: O3_43  and  C3_52 
ROOT
ATOM      1  O3  BDP d 609      29.054  21.299  -6.171  0.00  0.00    -0.390 OA
ATOM      2  C3  BDP d 609      28.174  21.529  -5.078  0.00  0.00     0.092 C 
ATOM      3  O4  BDP d 609      29.583  23.255  -4.219  0.00  0.00    -0.348 OA
ATOM      4  C1  BDP d 609      25.767  21.601  -4.382  0.00  0.00     0.160 C 
ATOM      5  C5  BDP d 609      27.245  23.318  -3.600  0.00  0.00     0.152 C 
ATOM      6  O5  BDP d 609      25.922  23.001  -4.070  0.00  0.00    -0.340 OA
ATOM      7  O6B BDP d 609      26.971  25.625  -4.099  0.00  0.00    -0.646 OA
ATOM      8  C2  BDP d 609      26.749  21.179  -5.483  0.00  0.00     0.110 C 
ATOM      9  C4  BDP d 609      28.259  22.993  -4.690  0.00  0.00     0.103 C 
ATOM     10  C6  BDP d 609      27.244  24.786  -3.216  0.00  0.00     0.206 C 
ATOM     11  O6A BDP d 609      27.549  25.058  -2.034  0.00  0.00    -0.646 OA
ATOM     12  O2  BDP d 609      26.648  19.777  -5.687  0.00  0.00    -0.388 OA
ATOM     13  H   BDP d 609      29.010  20.364  -6.431  0.00  0.00     0.210 HD
ATOM     14  H   BDP d 609      28.454  20.917  -4.247  0.00  0.00     0.091 H 
ATOM     15  H   BDP d 609      25.967  21.020  -3.506  0.00  0.00     0.133 H 
ATOM     16  H   BDP d 609      27.520  22.738  -2.744  0.00  0.00     0.104 H 
ATOM     17  H   BDP d 609      26.508  21.698  -6.386  0.00  0.00     0.094 H 
ATOM     18  H   BDP d 609      28.039  23.605  -5.539  0.00  0.00     0.092 H 
ATOM     19  H   BDP d 609      26.869  19.313  -4.864  0.00  0.00     0.210 HD
ATOM     20  O7  ASG d 610      32.352  23.329  -1.721  0.00  0.00    -0.274 OA
ATOM     21  O3  ASG d 610      33.500  25.991  -3.921  0.00  0.00    -0.348 OA
ATOM     22  OSB ASG d 610      35.544  25.395  -6.289  0.00  0.00    -0.572 OA
ATOM     23  OSA ASG d 610      34.589  24.482  -8.304  0.00  0.00    -0.572 OA
ATOM     24  N   ASG d 610      31.147  25.012  -2.616  0.00  0.00    -0.349 N 
ATOM     25  C5  ASG d 610      31.187  25.175  -6.790  0.00  0.00     0.090 C 
ATOM     26  C3  ASG d 610      32.276  25.750  -4.643  0.00  0.00     0.094 C 
ATOM     27  C7  ASG d 610      31.572  24.277  -1.593  0.00  0.00     0.214 C 
ATOM     28  O6  ASG d 610      29.987  24.884  -8.879  0.00  0.00    -0.398 OA
ATOM     29  O5  ASG d 610      30.502  24.085  -6.141  0.00  0.00    -0.349 OA
ATOM     30  C4  ASG d 610      32.547  25.384  -6.115  0.00  0.00     0.114 C 
ATOM     31  S   ASG d 610      34.785  24.265  -6.862  0.00  0.00     0.252 S 
ATOM     32  C2  ASG d 610      31.489  24.633  -3.974  0.00  0.00     0.087 C 
ATOM     33  C1  ASG d 610      30.210  24.361  -4.758  0.00  0.00     0.154 C 
ATOM     34  C6  ASG d 610      31.270  24.842  -8.267  0.00  0.00     0.043 C 
ATOM     35  OSC ASG d 610      35.509  22.995  -6.661  0.00  0.00    -0.572 OA
ATOM     36  O4  ASG d 610      33.323  24.168  -6.200  0.00  0.00    -0.246 OA
ATOM     37  C8  ASG d 610      31.055  24.657  -0.210  0.00  0.00    -0.003 C 
ATOM     38  H   ASG d 610      30.600  25.814  -2.452  0.00  0.00     0.163 HD
ATOM     39  H   ASG d 610      30.669  26.107  -6.696  0.00  0.00     0.090 H 
ATOM     40  H   ASG d 610      31.706  26.655  -4.628  0.00  0.00     0.091 H 
ATOM     41  H   ASG d 610      30.071  24.667  -9.820  0.00  0.00     0.209 HD
ATOM     42  H   ASG d 610      33.101  26.162  -6.595  0.00  0.00     0.093 H 
ATOM     43  H   ASG d 610      32.091  23.749  -3.954  0.00  0.00     0.084 H 
ATOM     44  H   ASG d 610      29.585  25.227  -4.699  0.00  0.00     0.132 H 
ATOM     45  H   ASG d 610      31.679  23.860  -8.381  0.00  0.00     0.078 H 
ATOM     46  H   ASG d 610      31.894  25.570  -8.742  0.00  0.00     0.078 H 
ATOM     47  H   ASG d 610      31.469  23.993   0.521  0.00  0.00     0.040 H 
ATOM     48  H   ASG d 610      29.988  24.582  -0.195  0.00  0.00     0.040 H 
ATOM     49  H   ASG d 610      31.345  25.661   0.016  0.00  0.00     0.040 H 
ATOM     50  C8  ASG d 608      24.263  17.055  -5.551  0.00  0.00    -0.003 C 
ATOM     51  C6  ASG d 608      20.839  23.584  -2.241  0.00  0.00     0.043 C 
ATOM     52  O7  ASG d 608      23.124  18.871  -6.591  0.00  0.00    -0.274 OA
ATOM     53  S   ASG d 608      22.575  24.192  -5.606  0.00  0.00     0.252 S 
ATOM     54  OSC ASG d 608      23.399  23.781  -6.760  0.00  0.00    -0.572 OA
ATOM     55  N   ASG d 608      23.174  18.867  -4.332  0.00  0.00    -0.349 N 
ATOM     56  O6  ASG d 608      21.586  24.590  -1.563  0.00  0.00    -0.398 OA
ATOM     57  O5  ASG d 608      20.739  21.299  -2.914  0.00  0.00    -0.349 OA
ATOM     58  C1  ASG d 608      21.359  20.022  -3.164  0.00  0.00     0.151 C 
ATOM     59  C4  ASG d 608      22.732  22.519  -3.570  0.00  0.00     0.114 C 
ATOM     60  OSB ASG d 608      23.449  24.974  -4.714  0.00  0.00    -0.572 OA
ATOM     61  C3  ASG d 608      23.471  21.218  -3.802  0.00  0.00     0.094 C 
ATOM     62  O4  ASG d 608      22.033  22.964  -4.746  0.00  0.00    -0.246 OA
ATOM     63  C5  ASG d 608      21.672  22.319  -2.487  0.00  0.00     0.090 C 
ATOM     64  O1  ASG d 608      20.383  19.161  -3.638  0.00  0.00    -0.369 OA
ATOM     65  C7  ASG d 608      23.469  18.356  -5.528  0.00  0.00     0.214 C 
ATOM     66  C2  ASG d 608      22.478  20.139  -4.218  0.00  0.00     0.087 C 
ATOM     67  O3  ASG d 608      24.473  21.391  -4.822  0.00  0.00    -0.348 OA
ATOM     68  OSA ASG d 608      21.378  24.987  -5.952  0.00  0.00    -0.572 OA
ATOM     69  H   ASG d 608      24.431  16.758  -6.565  0.00  0.00     0.040 H 
ATOM     70  H   ASG d 608      23.711  16.292  -5.042  0.00  0.00     0.040 H 
ATOM     71  H   ASG d 608      25.202  17.202  -5.062  0.00  0.00     0.040 H 
ATOM     72  H   ASG d 608      19.987  23.326  -1.648  0.00  0.00     0.078 H 
ATOM     73  H   ASG d 608      20.545  23.976  -3.192  0.00  0.00     0.078 H 
ATOM     74  H   ASG d 608      23.429  18.377  -3.518  0.00  0.00     0.163 HD
ATOM     75  H   ASG d 608      21.865  24.256  -0.696  0.00  0.00     0.209 HD
ATOM     76  H   ASG d 608      21.794  19.659  -2.257  0.00  0.00     0.132 H 
ATOM     77  H   ASG d 608      23.469  23.243  -3.291  0.00  0.00     0.093 H 
ATOM     78  H   ASG d 608      23.955  20.921  -2.896  0.00  0.00     0.091 H 
ATOM     79  H   ASG d 608      22.195  22.053  -1.592  0.00  0.00     0.090 H 
ATOM     80  H   ASG d 608      20.010  19.517  -4.459  0.00  0.00     0.212 HD
ATOM     81  H   ASG d 608      22.044  20.400  -5.160  0.00  0.00     0.084 H 
ATOM     82  O6B GCD d 611      33.794  30.625  -6.526  0.00  0.00    -0.642 OA
ATOM     83  C6  GCD d 611      34.832  29.942  -6.165  0.00  0.00     0.233 C 
ATOM     84  C5  GCD d 611      34.800  29.310  -4.796  0.00  0.00     0.147 C 
ATOM     85  C2  GCD d 611      34.679  27.449  -2.472  0.00  0.00     0.111 C 
ATOM     86  O6A GCD d 611      35.903  29.627  -6.815  0.00  0.00    -0.642 OA
ATOM     87  C4  GCD d 611      35.000  29.909  -3.594  0.00  0.00    -0.034 C 
ATOM     88  C1  GCD d 611      33.728  27.320  -3.619  0.00  0.00     0.165 C 
ATOM     89  O3  GCD d 611      35.905  29.087  -1.285  0.00  0.00    -0.389 OA
ATOM     90  O5  GCD d 611      34.489  27.866  -4.807  0.00  0.00    -0.311 OA
ATOM     91  O2  GCD d 611      34.064  26.943  -1.251  0.00  0.00    -0.388 OA
ATOM     92  C3  GCD d 611      34.907  29.000  -2.312  0.00  0.00     0.084 C 
ATOM     93  H   GCD d 611      35.583  26.903  -2.643  0.00  0.00     0.095 H 
ATOM     94  H   GCD d 611      35.204  30.918  -3.524  0.00  0.00     0.085 H 
ATOM     95  H   GCD d 611      32.802  27.808  -3.394  0.00  0.00     0.134 H 
ATOM     96  H   GCD d 611      35.694  28.462  -0.575  0.00  0.00     0.210 HD
ATOM     97  H   GCD d 611      33.241  27.427  -1.079  0.00  0.00     0.210 HD
ATOM     98  H   GCD d 611      34.012  29.508  -2.020  0.00  0.00     0.093 H 
ENDROOT
TORSDOF 25
ENDMDL
MODEL 48
REMARK VINA RESULT:      -6.7      5.340      8.675
REMARK  0 active torsions:
REMARK  status: ('A' for Active; 'I' for Inactive)
REMARK       I    between atoms: O3_1  and  C3_6 
REMARK       I    between atoms: O3_3  and  C3_16 
REMARK       I    between atoms: O3_3  and  C1_32 
REMARK       I    between atoms: C8_5  and  C7_53 
REMARK       I    between atoms: C6_7  and  C5_47 
REMARK       I    between atoms: C6_7  and  O6_29 
REMARK       I    between atoms: O4_8  and  C4_45 
REMARK       I    between atoms: O4_8  and  C1_39 
REMARK       I    between atoms: N_10  and  C2_35 
REMARK       I    between atoms: N_10  and  C7_17 
REMARK       I    between atoms: C5_12  and  C6_42 
REMARK       I    between atoms: C1_14  and  O3_57 
REMARK       I    between atoms: C6_15  and  C5_20 
REMARK       I    between atoms: C7_17  and  C8_54 
REMARK       I    between atoms: O6_18  and  C6_42 
REMARK       I    between atoms: S_19  and  O4_46 
REMARK       I    between atoms: C4_22  and  O4_50 
REMARK       I    between atoms: C2_23  and  O2_51 
REMARK       I    between atoms: S_26  and  O4_50 
REMARK       I    between atoms: N_27  and  C2_56 
REMARK       I    between atoms: N_27  and  C7_53 
REMARK       I    between atoms: C5_31  and  C6_55 
REMARK       I    between atoms: C1_33  and  O1_48 
REMARK       I    between atoms: C4_34  and  O4_46 
REMARK       I    between atoms: C3_40  and  O3_57 
REMARK       I    between atoms: C2_41  and  O2_60 
REMARK       I    between atoms: O3_43  and  C3_52 
ROOT
ATOM      1  O3  BDP d 609      29.700  20.893  -3.807  0.00  0.00    -0.390 OA
ATOM      2  C3  BDP d 609      28.989  22.068  -4.176  0.00  0.00     0.092 C 
ATOM      3  O4  BDP d 609      30.164  22.211  -6.250  0.00  0.00    -0.348 OA
ATOM      4  C1  BDP d 609      26.765  23.220  -4.070  0.00  0.00     0.160 C 
ATOM      5  C5  BDP d 609      27.996  23.277  -6.125  0.00  0.00     0.152 C 
ATOM      6  O5  BDP d 609      26.698  23.176  -5.510  0.00  0.00    -0.340 OA
ATOM      7  O6B BDP d 609      27.204  22.350  -8.165  0.00  0.00    -0.646 OA
ATOM      8  C2  BDP d 609      27.611  22.058  -3.531  0.00  0.00     0.110 C 
ATOM      9  C4  BDP d 609      28.856  22.097  -5.687  0.00  0.00     0.103 C 
ATOM     10  C6  BDP d 609      27.778  23.319  -7.627  0.00  0.00     0.206 C 
ATOM     11  O6A BDP d 609      28.219  24.321  -8.230  0.00  0.00    -0.646 OA
ATOM     12  O2  BDP d 609      27.748  22.193  -2.123  0.00  0.00    -0.388 OA
ATOM     13  H   BDP d 609      29.794  20.861  -2.842  0.00  0.00     0.210 HD
ATOM     14  H   BDP d 609      29.517  22.936  -3.842  0.00  0.00     0.091 H 
ATOM     15  H   BDP d 609      27.218  24.140  -3.765  0.00  0.00     0.133 H 
ATOM     16  H   BDP d 609      28.517  24.162  -5.828  0.00  0.00     0.104 H 
ATOM     17  H   BDP d 609      27.126  21.134  -3.763  0.00  0.00     0.094 H 
ATOM     18  H   BDP d 609      28.382  21.200  -6.025  0.00  0.00     0.092 H 
ATOM     19  H   BDP d 609      28.189  23.033  -1.921  0.00  0.00     0.210 HD
ATOM     20  O7  ASG d 610      33.247  23.995  -7.358  0.00  0.00    -0.274 OA
ATOM     21  O3  ASG d 610      33.476  21.073  -9.513  0.00  0.00    -0.348 OA
ATOM     22  OSB ASG d 610      35.169  18.520  -8.643  0.00  0.00    -0.572 OA
ATOM     23  OSA ASG d 610      34.082  17.001  -7.120  0.00  0.00    -0.572 OA
ATOM     24  N   ASG d 610      31.609  23.023  -8.565  0.00  0.00    -0.349 N 
ATOM     25  C5  ASG d 610      30.914  19.003  -7.669  0.00  0.00     0.090 C 
ATOM     26  C3  ASG d 610      32.218  20.693  -8.922  0.00  0.00     0.094 C 
ATOM     27  C7  ASG d 610      32.333  24.071  -8.183  0.00  0.00     0.214 C 
ATOM     28  O6  ASG d 610      29.459  17.329  -6.687  0.00  0.00    -0.398 OA
ATOM     29  O5  ASG d 610      30.570  20.005  -6.691  0.00  0.00    -0.349 OA
ATOM     30  C4  ASG d 610      32.302  19.316  -8.238  0.00  0.00     0.114 C 
ATOM     31  S   ASG d 610      34.556  18.382  -7.306  0.00  0.00     0.252 S 
ATOM     32  C2  ASG d 610      31.783  21.742  -7.908  0.00  0.00     0.087 C 
ATOM     33  C1  ASG d 610      30.467  21.323  -7.262  0.00  0.00     0.154 C 
ATOM     34  C6  ASG d 610      30.810  17.652  -6.989  0.00  0.00     0.043 C 
ATOM     35  OSC ASG d 610      35.534  18.701  -6.248  0.00  0.00    -0.572 OA
ATOM     36  O4  ASG d 610      33.272  19.339  -7.167  0.00  0.00    -0.246 OA
ATOM     37  C8  ASG d 610      31.992  25.414  -8.820  0.00  0.00    -0.003 C 
ATOM     38  H   ASG d 610      30.953  23.118  -9.293  0.00  0.00     0.163 HD
ATOM     39  H   ASG d 610      30.250  18.996  -8.508  0.00  0.00     0.090 H 
ATOM     40  H   ASG d 610      31.495  20.629  -9.708  0.00  0.00     0.091 H 
ATOM     41  H   ASG d 610      29.423  16.462  -6.253  0.00  0.00     0.209 HD
ATOM     42  H   ASG d 610      32.608  18.570  -8.942  0.00  0.00     0.093 H 
ATOM     43  H   ASG d 610      32.539  21.830  -7.155  0.00  0.00     0.084 H 
ATOM     44  H   ASG d 610      29.706  21.319  -8.014  0.00  0.00     0.132 H 
ATOM     45  H   ASG d 610      31.375  17.674  -6.081  0.00  0.00     0.078 H 
ATOM     46  H   ASG d 610      31.194  16.908  -7.656  0.00  0.00     0.078 H 
ATOM     47  H   ASG d 610      32.643  26.169  -8.431  0.00  0.00     0.040 H 
ATOM     48  H   ASG d 610      30.978  25.667  -8.597  0.00  0.00     0.040 H 
ATOM     49  H   ASG d 610      32.118  25.347  -9.880  0.00  0.00     0.040 H 
ATOM     50  C8  ASG d 608      25.987  23.422   0.793  0.00  0.00    -0.003 C 
ATOM     51  C6  ASG d 608      21.980  25.854  -5.789  0.00  0.00     0.043 C 
ATOM     52  O7  ASG d 608      24.363  22.270  -0.514  0.00  0.00    -0.274 OA
ATOM     53  S   ASG d 608      22.975  22.151  -5.772  0.00  0.00     0.252 S 
ATOM     54  OSC ASG d 608      23.657  20.970  -5.207  0.00  0.00    -0.572 OA
ATOM     55  N   ASG d 608      24.791  24.412  -1.089  0.00  0.00    -0.349 N 
ATOM     56  O6  ASG d 608      22.623  26.123  -7.032  0.00  0.00    -0.398 OA
ATOM     57  O5  ASG d 608      22.209  25.737  -3.419  0.00  0.00    -0.349 OA
ATOM     58  C1  ASG d 608      23.011  25.651  -2.224  0.00  0.00     0.151 C 
ATOM     59  C4  ASG d 608      23.791  24.426  -4.710  0.00  0.00     0.114 C 
ATOM     60  OSB ASG d 608      23.820  22.646  -6.873  0.00  0.00    -0.572 OA
ATOM     61  C3  ASG d 608      24.716  24.337  -3.516  0.00  0.00     0.094 C 
ATOM     62  O4  ASG d 608      22.832  23.354  -4.737  0.00  0.00    -0.246 OA
ATOM     63  C5  ASG d 608      22.986  25.725  -4.639  0.00  0.00     0.090 C 
ATOM     64  O1  ASG d 608      22.153  25.593  -1.139  0.00  0.00    -0.369 OA
ATOM     65  C7  ASG d 608      24.974  23.324  -0.341  0.00  0.00     0.214 C 
ATOM     66  C2  ASG d 608      23.894  24.387  -2.233  0.00  0.00     0.087 C 
ATOM     67  O3  ASG d 608      25.480  23.118  -3.569  0.00  0.00    -0.348 OA
ATOM     68  OSA ASG d 608      21.608  21.897  -6.270  0.00  0.00    -0.572 OA
ATOM     69  H   ASG d 608      26.036  22.486   1.309  0.00  0.00     0.040 H 
ATOM     70  H   ASG d 608      25.686  24.191   1.474  0.00  0.00     0.040 H 
ATOM     71  H   ASG d 608      26.950  23.659   0.391  0.00  0.00     0.040 H 
ATOM     72  H   ASG d 608      21.305  26.655  -5.569  0.00  0.00     0.078 H 
ATOM     73  H   ASG d 608      21.459  24.923  -5.880  0.00  0.00     0.078 H 
ATOM     74  H   ASG d 608      25.269  25.242  -0.864  0.00  0.00     0.163 HD
ATOM     75  H   ASG d 608      23.102  26.964  -6.973  0.00  0.00     0.209 HD
ATOM     76  H   ASG d 608      23.654  26.504  -2.171  0.00  0.00     0.132 H 
ATOM     77  H   ASG d 608      24.411  24.378  -5.581  0.00  0.00     0.093 H 
ATOM     78  H   ASG d 608      25.394  25.164  -3.532  0.00  0.00     0.091 H 
ATOM     79  H   ASG d 608      23.693  26.525  -4.687  0.00  0.00     0.090 H 
ATOM     80  H   ASG d 608      21.586  24.811  -1.218  0.00  0.00     0.212 HD
ATOM     81  H   ASG d 608      23.265  23.522  -2.181  0.00  0.00     0.084 H 
ATOM     82  O6B GCD d 611      32.433  17.508 -13.328  0.00  0.00    -0.642 OA
ATOM     83  C6  GCD d 611      33.628  17.785 -12.918  0.00  0.00     0.233 C 
ATOM     84  C5  GCD d 611      33.949  19.235 -12.656  0.00  0.00     0.147 C 
ATOM     85  C2  GCD d 611      34.579  21.884 -11.446  0.00  0.00     0.111 C 
ATOM     86  O6A GCD d 611      34.615  17.011 -12.609  0.00  0.00    -0.642 OA
ATOM     87  C4  GCD d 611      34.229  20.206 -13.562  0.00  0.00    -0.034 C 
ATOM     88  C1  GCD d 611      33.492  21.019 -10.894  0.00  0.00     0.165 C 
ATOM     89  O3  GCD d 611      35.650  22.397 -13.493  0.00  0.00    -0.389 OA
ATOM     90  O5  GCD d 611      33.924  19.608 -11.227  0.00  0.00    -0.311 OA
ATOM     91  O2  GCD d 611      34.287  23.288 -11.182  0.00  0.00    -0.388 OA
ATOM     92  C3  GCD d 611      34.529  21.647 -13.004  0.00  0.00     0.084 C 
ATOM     93  H   GCD d 611      35.530  21.653 -11.013  0.00  0.00     0.095 H 
ATOM     94  H   GCD d 611      34.244  20.009 -14.575  0.00  0.00     0.085 H 
ATOM     95  H   GCD d 611      32.541  21.320 -11.283  0.00  0.00     0.134 H 
ATOM     96  H   GCD d 611      35.685  23.256 -13.044  0.00  0.00     0.210 HD
ATOM     97  H   GCD d 611      33.427  23.518 -11.568  0.00  0.00     0.210 HD
ATOM     98  H   GCD d 611      33.616  22.002 -13.433  0.00  0.00     0.093 H 
ENDROOT
TORSDOF 25
ENDMDL
MODEL 49
REMARK VINA RESULT:      -6.5      3.214      6.343
REMARK  0 active torsions:
REMARK  status: ('A' for Active; 'I' for Inactive)
REMARK       I    between atoms: O3_1  and  C3_6 
REMARK       I    between atoms: O3_3  and  C3_16 
REMARK       I    between atoms: O3_3  and  C1_32 
REMARK       I    between atoms: C8_5  and  C7_53 
REMARK       I    between atoms: C6_7  and  C5_47 
REMARK       I    between atoms: C6_7  and  O6_29 
REMARK       I    between atoms: O4_8  and  C4_45 
REMARK       I    between atoms: O4_8  and  C1_39 
REMARK       I    between atoms: N_10  and  C2_35 
REMARK       I    between atoms: N_10  and  C7_17 
REMARK       I    between atoms: C5_12  and  C6_42 
REMARK       I    between atoms: C1_14  and  O3_57 
REMARK       I    between atoms: C6_15  and  C5_20 
REMARK       I    between atoms: C7_17  and  C8_54 
REMARK       I    between atoms: O6_18  and  C6_42 
REMARK       I    between atoms: S_19  and  O4_46 
REMARK       I    between atoms: C4_22  and  O4_50 
REMARK       I    between atoms: C2_23  and  O2_51 
REMARK       I    between atoms: S_26  and  O4_50 
REMARK       I    between atoms: N_27  and  C2_56 
REMARK       I    between atoms: N_27  and  C7_53 
REMARK       I    between atoms: C5_31  and  C6_55 
REMARK       I    between atoms: C1_33  and  O1_48 
REMARK       I    between atoms: C4_34  and  O4_46 
REMARK       I    between atoms: C3_40  and  O3_57 
REMARK       I    between atoms: C2_41  and  O2_60 
REMARK       I    between atoms: O3_43  and  C3_52 
ROOT
ATOM      1  O3  BDP d 609      28.741  25.561  -2.492  0.00  0.00    -0.390 OA
ATOM      2  C3  BDP d 609      27.501  24.882  -2.342  0.00  0.00     0.092 C 
ATOM      3  O4  BDP d 609      26.776  25.585  -4.506  0.00  0.00    -0.348 OA
ATOM      4  C1  BDP d 609      26.401  22.833  -1.406  0.00  0.00     0.160 C 
ATOM      5  C5  BDP d 609      25.765  23.587  -3.590  0.00  0.00     0.152 C 
ATOM      6  O5  BDP d 609      26.023  22.451  -2.745  0.00  0.00    -0.340 OA
ATOM      7  O6B BDP d 609      26.048  22.299  -5.567  0.00  0.00    -0.646 OA
ATOM      8  C2  BDP d 609      27.680  23.681  -1.425  0.00  0.00     0.110 C 
ATOM      9  C4  BDP d 609      27.032  24.426  -3.710  0.00  0.00     0.103 C 
ATOM     10  C6  BDP d 609      25.285  23.051  -4.927  0.00  0.00     0.206 C 
ATOM     11  O6A BDP d 609      24.156  23.429  -5.311  0.00  0.00    -0.646 OA
ATOM     12  O2  BDP d 609      27.961  24.131  -0.107  0.00  0.00    -0.388 OA
ATOM     13  H   BDP d 609      29.053  25.860  -1.623  0.00  0.00     0.210 HD
ATOM     14  H   BDP d 609      26.774  25.537  -1.910  0.00  0.00     0.091 H 
ATOM     15  H   BDP d 609      25.615  23.413  -0.969  0.00  0.00     0.133 H 
ATOM     16  H   BDP d 609      25.011  24.229  -3.186  0.00  0.00     0.104 H 
ATOM     17  H   BDP d 609      28.490  23.085  -1.788  0.00  0.00     0.094 H 
ATOM     18  H   BDP d 609      27.786  23.821  -4.167  0.00  0.00     0.092 H 
ATOM     19  H   BDP d 609      27.222  24.671   0.215  0.00  0.00     0.210 HD
ATOM     20  O7  ASG d 610      24.787  28.484  -5.752  0.00  0.00    -0.274 OA
ATOM     21  O3  ASG d 610      26.960  28.006  -8.632  0.00  0.00    -0.348 OA
ATOM     22  OSB ASG d 610      29.677  29.640  -8.927  0.00  0.00    -0.572 OA
ATOM     23  OSA ASG d 610      31.558  28.794  -7.681  0.00  0.00    -0.572 OA
ATOM     24  N   ASG d 610      25.345  26.551  -6.770  0.00  0.00    -0.349 N 
ATOM     25  C5  ASG d 610      29.442  25.752  -6.900  0.00  0.00     0.090 C 
ATOM     26  C3  ASG d 610      27.478  26.881  -7.895  0.00  0.00     0.094 C 
ATOM     27  C7  ASG d 610      24.462  27.421  -6.288  0.00  0.00     0.214 C 
ATOM     28  O6  ASG d 610      31.311  24.418  -6.116  0.00  0.00    -0.398 OA
ATOM     29  O5  ASG d 610      28.764  25.709  -5.629  0.00  0.00    -0.349 OA
ATOM     30  C4  ASG d 610      28.996  27.003  -7.664  0.00  0.00     0.114 C 
ATOM     31  S   ASG d 610      30.189  29.324  -7.578  0.00  0.00     0.252 S 
ATOM     32  C2  ASG d 610      26.763  26.762  -6.557  0.00  0.00     0.087 C 
ATOM     33  C1  ASG d 610      27.336  25.589  -5.768  0.00  0.00     0.154 C 
ATOM     34  C6  ASG d 610      30.932  25.691  -6.620  0.00  0.00     0.043 C 
ATOM     35  OSC ASG d 610      30.204  30.531  -6.729  0.00  0.00    -0.572 OA
ATOM     36  O4  ASG d 610      29.297  28.181  -6.884  0.00  0.00    -0.246 OA
ATOM     37  C8  ASG d 610      22.988  27.058  -6.428  0.00  0.00    -0.003 C 
ATOM     38  H   ASG d 610      25.034  25.762  -7.271  0.00  0.00     0.163 HD
ATOM     39  H   ASG d 610      29.197  24.922  -7.530  0.00  0.00     0.090 H 
ATOM     40  H   ASG d 610      27.302  26.002  -8.479  0.00  0.00     0.091 H 
ATOM     41  H   ASG d 610      32.266  24.408  -5.947  0.00  0.00     0.209 HD
ATOM     42  H   ASG d 610      29.509  27.088  -8.599  0.00  0.00     0.093 H 
ATOM     43  H   ASG d 610      26.908  27.668  -6.006  0.00  0.00     0.084 H 
ATOM     44  H   ASG d 610      27.111  24.685  -6.294  0.00  0.00     0.132 H 
ATOM     45  H   ASG d 610      31.182  26.440  -5.899  0.00  0.00     0.078 H 
ATOM     46  H   ASG d 610      31.454  25.861  -7.538  0.00  0.00     0.078 H 
ATOM     47  H   ASG d 610      22.387  27.835  -6.004  0.00  0.00     0.040 H 
ATOM     48  H   ASG d 610      22.798  26.139  -5.914  0.00  0.00     0.040 H 
ATOM     49  H   ASG d 610      22.745  26.944  -7.463  0.00  0.00     0.040 H 
ATOM     50  C8  ASG d 608      27.610  23.151   3.361  0.00  0.00    -0.003 C 
ATOM     51  C6  ASG d 608      23.319  18.012  -1.163  0.00  0.00     0.043 C 
ATOM     52  O7  ASG d 608      28.312  21.195   2.197  0.00  0.00    -0.274 OA
ATOM     53  S   ASG d 608      26.880  18.691  -2.414  0.00  0.00     0.252 S 
ATOM     54  OSC ASG d 608      28.183  19.384  -2.376  0.00  0.00    -0.572 OA
ATOM     55  N   ASG d 608      26.101  21.656   2.161  0.00  0.00    -0.349 N 
ATOM     56  O6  ASG d 608      22.709  18.389  -2.395  0.00  0.00    -0.398 OA
ATOM     57  O5  ASG d 608      24.123  18.742   0.959  0.00  0.00    -0.349 OA
ATOM     58  C1  ASG d 608      24.563  19.776   1.862  0.00  0.00     0.151 C 
ATOM     59  C4  ASG d 608      25.022  19.896  -0.977  0.00  0.00     0.114 C 
ATOM     60  OSB ASG d 608      26.098  19.312  -3.498  0.00  0.00    -0.572 OA
ATOM     61  C3  ASG d 608      25.467  21.049  -0.103  0.00  0.00     0.094 C 
ATOM     62  O4  ASG d 608      26.028  18.872  -1.080  0.00  0.00    -0.246 OA
ATOM     63  C5  ASG d 608      23.790  19.231  -0.361  0.00  0.00     0.090 C 
ATOM     64  O1  ASG d 608      24.922  19.173   3.055  0.00  0.00    -0.369 OA
ATOM     65  C7  ASG d 608      27.362  21.911   2.511  0.00  0.00     0.214 C 
ATOM     66  C2  ASG d 608      25.781  20.532   1.296  0.00  0.00     0.087 C 
ATOM     67  O3  ASG d 608      26.627  21.684  -0.671  0.00  0.00    -0.348 OA
ATOM     68  OSA ASG d 608      26.960  17.232  -2.633  0.00  0.00    -0.572 OA
ATOM     69  H   ASG d 608      28.656  23.237   3.569  0.00  0.00     0.040 H 
ATOM     70  H   ASG d 608      27.069  23.067   4.281  0.00  0.00     0.040 H 
ATOM     71  H   ASG d 608      27.280  24.019   2.831  0.00  0.00     0.040 H 
ATOM     72  H   ASG d 608      22.609  17.467  -0.578  0.00  0.00     0.078 H 
ATOM     73  H   ASG d 608      24.176  17.413  -1.389  0.00  0.00     0.078 H 
ATOM     74  H   ASG d 608      25.378  22.236   2.493  0.00  0.00     0.163 HD
ATOM     75  H   ASG d 608      21.928  18.934  -2.215  0.00  0.00     0.209 HD
ATOM     76  H   ASG d 608      23.770  20.481   2.002  0.00  0.00     0.132 H 
ATOM     77  H   ASG d 608      24.823  20.306  -1.946  0.00  0.00     0.093 H 
ATOM     78  H   ASG d 608      24.679  21.770  -0.043  0.00  0.00     0.091 H 
ATOM     79  H   ASG d 608      23.019  19.972  -0.346  0.00  0.00     0.090 H 
ATOM     80  H   ASG d 608      25.640  18.542   2.895  0.00  0.00     0.212 HD
ATOM     81  H   ASG d 608      26.616  19.864   1.248  0.00  0.00     0.084 H 
ATOM     82  O6B GCD d 611      29.248  25.878 -12.942  0.00  0.00    -0.642 OA
ATOM     83  C6  GCD d 611      29.117  27.152 -12.759  0.00  0.00     0.233 C 
ATOM     84  C5  GCD d 611      27.810  27.636 -12.183  0.00  0.00     0.147 C 
ATOM     85  C2  GCD d 611      25.635  28.723 -10.461  0.00  0.00     0.111 C 
ATOM     86  O6A GCD d 611      29.960  28.118 -12.916  0.00  0.00    -0.642 OA
ATOM     87  C4  GCD d 611      26.621  27.788 -12.821  0.00  0.00    -0.034 C 
ATOM     88  C1  GCD d 611      26.609  27.717  -9.937  0.00  0.00     0.165 C 
ATOM     89  O3  GCD d 611      24.563  29.360 -12.472  0.00  0.00    -0.389 OA
ATOM     90  O5  GCD d 611      27.869  27.953 -10.741  0.00  0.00    -0.311 OA
ATOM     91  O2  GCD d 611      24.365  28.607  -9.754  0.00  0.00    -0.388 OA
ATOM     92  C3  GCD d 611      25.409  28.316 -11.967  0.00  0.00     0.084 C 
ATOM     93  H   GCD d 611      25.995  29.724 -10.342  0.00  0.00     0.095 H 
ATOM     94  H   GCD d 611      26.516  27.567 -13.823  0.00  0.00     0.085 H 
ATOM     95  H   GCD d 611      26.197  26.731  -9.995  0.00  0.00     0.134 H 
ATOM     96  H   GCD d 611      23.872  29.560 -11.821  0.00  0.00     0.210 HD
ATOM     97  H   GCD d 611      24.022  27.705  -9.851  0.00  0.00     0.210 HD
ATOM     98  H   GCD d 611      24.933  27.362 -12.056  0.00  0.00     0.093 H 
ENDROOT
TORSDOF 25
ENDMDL
MODEL 50
REMARK VINA RESULT:      -6.5      5.410      9.776
REMARK  0 active torsions:
REMARK  status: ('A' for Active; 'I' for Inactive)
REMARK       I    between atoms: O3_1  and  C3_6 
REMARK       I    between atoms: O3_3  and  C3_16 
REMARK       I    between atoms: O3_3  and  C1_32 
REMARK       I    between atoms: C8_5  and  C7_53 
REMARK       I    between atoms: C6_7  and  C5_47 
REMARK       I    between atoms: C6_7  and  O6_29 
REMARK       I    between atoms: O4_8  and  C4_45 
REMARK       I    between atoms: O4_8  and  C1_39 
REMARK       I    between atoms: N_10  and  C2_35 
REMARK       I    between atoms: N_10  and  C7_17 
REMARK       I    between atoms: C5_12  and  C6_42 
REMARK       I    between atoms: C1_14  and  O3_57 
REMARK       I    between atoms: C6_15  and  C5_20 
REMARK       I    between atoms: C7_17  and  C8_54 
REMARK       I    between atoms: O6_18  and  C6_42 
REMARK       I    between atoms: S_19  and  O4_46 
REMARK       I    between atoms: C4_22  and  O4_50 
REMARK       I    between atoms: C2_23  and  O2_51 
REMARK       I    between atoms: S_26  and  O4_50 
REMARK       I    between atoms: N_27  and  C2_56 
REMARK       I    between atoms: N_27  and  C7_53 
REMARK       I    between atoms: C5_31  and  C6_55 
REMARK       I    between atoms: C1_33  and  O1_48 
REMARK       I    between atoms: C4_34  and  O4_46 
REMARK       I    between atoms: C3_40  and  O3_57 
REMARK       I    between atoms: C2_41  and  O2_60 
REMARK       I    between atoms: O3_43  and  C3_52 
ROOT
ATOM      1  O3  BDP d 609      30.286  30.216  -3.789  0.00  0.00    -0.390 OA
ATOM      2  C3  BDP d 609      30.658  28.922  -4.247  0.00  0.00     0.092 C 
ATOM      3  O4  BDP d 609      28.800  28.841  -5.744  0.00  0.00    -0.348 OA
ATOM      4  C1  BDP d 609      32.603  27.438  -4.799  0.00  0.00     0.160 C 
ATOM      5  C5  BDP d 609      30.710  27.453  -6.269  0.00  0.00     0.152 C 
ATOM      6  O5  BDP d 609      32.144  27.383  -6.165  0.00  0.00    -0.340 OA
ATOM      7  O6B BDP d 609      30.814  28.115  -8.549  0.00  0.00    -0.646 OA
ATOM      8  C2  BDP d 609      32.166  28.751  -4.134  0.00  0.00     0.110 C 
ATOM      9  C4  BDP d 609      30.226  28.779  -5.694  0.00  0.00     0.103 C 
ATOM     10  C6  BDP d 609      30.358  27.284  -7.736  0.00  0.00     0.206 C 
ATOM     11  O6A BDP d 609      29.604  26.330  -8.026  0.00  0.00    -0.646 OA
ATOM     12  O2  BDP d 609      32.536  28.726  -2.763  0.00  0.00    -0.388 OA
ATOM     13  H   BDP d 609      30.556  30.321  -2.863  0.00  0.00     0.210 HD
ATOM     14  H   BDP d 609      30.183  28.171  -3.652  0.00  0.00     0.091 H 
ATOM     15  H   BDP d 609      32.180  26.623  -4.251  0.00  0.00     0.133 H 
ATOM     16  H   BDP d 609      30.225  26.682  -5.708  0.00  0.00     0.104 H 
ATOM     17  H   BDP d 609      32.646  29.570  -4.626  0.00  0.00     0.094 H 
ATOM     18  H   BDP d 609      30.653  29.567  -6.278  0.00  0.00     0.092 H 
ATOM     19  H   BDP d 609      32.097  27.981  -2.323  0.00  0.00     0.210 HD
ATOM     20  O7  ASG d 610      25.326  27.508  -5.484  0.00  0.00    -0.274 OA
ATOM     21  O3  ASG d 610      24.698  30.292  -7.741  0.00  0.00    -0.348 OA
ATOM     22  OSB ASG d 610      23.778  33.130  -6.630  0.00  0.00    -0.572 OA
ATOM     23  OSA ASG d 610      25.528  34.546  -5.772  0.00  0.00    -0.572 OA
ATOM     24  N   ASG d 610      26.519  28.130  -7.293  0.00  0.00    -0.349 N 
ATOM     25  C5  ASG d 610      27.996  32.034  -7.167  0.00  0.00     0.090 C 
ATOM     26  C3  ASG d 610      26.123  30.501  -7.678  0.00  0.00     0.094 C 
ATOM     27  C7  ASG d 610      25.858  27.236  -6.564  0.00  0.00     0.214 C 
ATOM     28  O6  ASG d 610      29.909  33.513  -6.958  0.00  0.00    -0.398 OA
ATOM     29  O5  ASG d 610      28.543  31.053  -6.264  0.00  0.00    -0.349 OA
ATOM     30  C4  ASG d 610      26.469  31.914  -7.171  0.00  0.00     0.114 C 
ATOM     31  S   ASG d 610      24.848  33.250  -5.620  0.00  0.00     0.252 S 
ATOM     32  C2  ASG d 610      26.760  29.460  -6.769  0.00  0.00     0.087 C 
ATOM     33  C1  ASG d 610      28.263  29.703  -6.680  0.00  0.00     0.154 C 
ATOM     34  C6  ASG d 610      28.511  33.391  -6.727  0.00  0.00     0.043 C 
ATOM     35  OSC ASG d 610      24.292  33.156  -4.256  0.00  0.00    -0.572 OA
ATOM     36  O4  ASG d 610      25.962  32.110  -5.833  0.00  0.00    -0.246 OA
ATOM     37  C8  ASG d 610      25.769  25.820  -7.122  0.00  0.00    -0.003 C 
ATOM     38  H   ASG d 610      26.846  27.888  -8.190  0.00  0.00     0.163 HD
ATOM     39  H   ASG d 610      28.303  31.884  -8.181  0.00  0.00     0.090 H 
ATOM     40  H   ASG d 610      26.510  30.401  -8.670  0.00  0.00     0.091 H 
ATOM     41  H   ASG d 610      30.210  34.388  -6.668  0.00  0.00     0.209 HD
ATOM     42  H   ASG d 610      26.024  32.653  -7.803  0.00  0.00     0.093 H 
ATOM     43  H   ASG d 610      26.327  29.540  -5.794  0.00  0.00     0.084 H 
ATOM     44  H   ASG d 610      28.691  29.539  -7.647  0.00  0.00     0.132 H 
ATOM     45  H   ASG d 610      28.319  33.516  -5.682  0.00  0.00     0.078 H 
ATOM     46  H   ASG d 610      28.008  34.144  -7.296  0.00  0.00     0.078 H 
ATOM     47  H   ASG d 610      25.216  25.203  -6.445  0.00  0.00     0.040 H 
ATOM     48  H   ASG d 610      26.755  25.422  -7.242  0.00  0.00     0.040 H 
ATOM     49  H   ASG d 610      25.275  25.840  -8.070  0.00  0.00     0.040 H 
ATOM     50  C8  ASG d 608      35.069  27.413  -0.531  0.00  0.00    -0.003 C 
ATOM     51  C6  ASG d 608      36.055  23.974  -7.777  0.00  0.00     0.043 C 
ATOM     52  O7  ASG d 608      36.236  28.209  -2.449  0.00  0.00    -0.274 OA
ATOM     53  S   ASG d 608      35.613  27.783  -7.835  0.00  0.00     0.252 S 
ATOM     54  OSC ASG d 608      35.340  29.090  -7.206  0.00  0.00    -0.572 OA
ATOM     55  N   ASG d 608      35.360  26.132  -2.587  0.00  0.00    -0.349 N 
ATOM     56  O6  ASG d 608      34.975  23.736  -8.674  0.00  0.00    -0.398 OA
ATOM     57  O5  ASG d 608      36.724  24.271  -5.508  0.00  0.00    -0.349 OA
ATOM     58  C1  ASG d 608      36.430  24.557  -4.126  0.00  0.00     0.151 C 
ATOM     59  C4  ASG d 608      34.959  25.737  -6.301  0.00  0.00     0.114 C 
ATOM     60  OSB ASG d 608      34.369  27.363  -8.505  0.00  0.00    -0.572 OA
ATOM     61  C3  ASG d 608      34.553  26.045  -4.876  0.00  0.00     0.094 C 
ATOM     62  O4  ASG d 608      35.970  26.638  -6.786  0.00  0.00    -0.246 OA
ATOM     63  C5  ASG d 608      35.563  24.333  -6.369  0.00  0.00     0.090 C 
ATOM     64  O1  ASG d 608      37.625  24.544  -3.426  0.00  0.00    -0.369 OA
ATOM     65  C7  ASG d 608      35.601  27.279  -1.953  0.00  0.00     0.214 C 
ATOM     66  C2  ASG d 608      35.773  25.943  -3.969  0.00  0.00     0.087 C 
ATOM     67  O3  ASG d 608      33.983  27.365  -4.797  0.00  0.00    -0.348 OA
ATOM     68  OSA ASG d 608      36.724  27.784  -8.808  0.00  0.00    -0.572 OA
ATOM     69  H   ASG d 608      35.330  28.375  -0.142  0.00  0.00     0.040 H 
ATOM     70  H   ASG d 608      35.498  26.650   0.084  0.00  0.00     0.040 H 
ATOM     71  H   ASG d 608      34.004  27.309  -0.539  0.00  0.00     0.040 H 
ATOM     72  H   ASG d 608      36.657  23.091  -7.717  0.00  0.00     0.078 H 
ATOM     73  H   ASG d 608      36.620  24.803  -8.151  0.00  0.00     0.078 H 
ATOM     74  H   ASG d 608      34.896  25.404  -2.114  0.00  0.00     0.163 HD
ATOM     75  H   ASG d 608      34.448  22.988  -8.354  0.00  0.00     0.209 HD
ATOM     76  H   ASG d 608      35.748  23.823  -3.752  0.00  0.00     0.132 H 
ATOM     77  H   ASG d 608      34.075  25.830  -6.898  0.00  0.00     0.093 H 
ATOM     78  H   ASG d 608      33.817  25.337  -4.558  0.00  0.00     0.091 H 
ATOM     79  H   ASG d 608      34.791  23.654  -6.074  0.00  0.00     0.090 H 
ATOM     80  H   ASG d 608      38.219  25.219  -3.788  0.00  0.00     0.212 HD
ATOM     81  H   ASG d 608      36.481  26.698  -4.240  0.00  0.00     0.084 H 
ATOM     82  O6B GCD d 611      24.720  33.404 -12.062  0.00  0.00    -0.642 OA
ATOM     83  C6  GCD d 611      23.732  33.346 -11.229  0.00  0.00     0.233 C 
ATOM     84  C5  GCD d 611      23.348  31.985 -10.706  0.00  0.00     0.147 C 
ATOM     85  C2  GCD d 611      22.872  29.549  -9.056  0.00  0.00     0.111 C 
ATOM     86  O6A GCD d 611      23.033  34.285 -10.683  0.00  0.00    -0.642 OA
ATOM     87  C4  GCD d 611      22.636  31.017 -11.338  0.00  0.00    -0.034 C 
ATOM     88  C1  GCD d 611      24.186  30.262  -9.025  0.00  0.00     0.165 C 
ATOM     89  O3  GCD d 611      21.072  29.089 -10.522  0.00  0.00    -0.389 OA
ATOM     90  O5  GCD d 611      23.845  31.701  -9.344  0.00  0.00    -0.311 OA
ATOM     91  O2  GCD d 611      23.060  28.135  -8.753  0.00  0.00    -0.388 OA
ATOM     92  C3  GCD d 611      22.380  29.679 -10.548  0.00  0.00     0.084 C 
ATOM     93  H   GCD d 611      22.183  29.955  -8.346  0.00  0.00     0.095 H 
ATOM     94  H   GCD d 611      22.278  31.152 -12.296  0.00  0.00     0.085 H 
ATOM     95  H   GCD d 611      24.883  29.790  -9.686  0.00  0.00     0.134 H 
ATOM     96  H   GCD d 611      21.095  28.276  -9.994  0.00  0.00     0.210 HD
ATOM     97  H   GCD d 611      23.683  27.749  -9.387  0.00  0.00     0.210 HD
ATOM     98  H   GCD d 611      23.021  29.158 -11.227  0.00  0.00     0.093 H 
ENDROOT
TORSDOF 25
ENDMDL
MODEL 51
REMARK VINA RESULT:      -6.5      4.443      8.759
REMARK  0 active torsions:
REMARK  status: ('A' for Active; 'I' for Inactive)
REMARK       I    between atoms: O3_1  and  C3_6 
REMARK       I    between atoms: O3_3  and  C3_16 
REMARK       I    between atoms: O3_3  and  C1_32 
REMARK       I    between atoms: C8_5  and  C7_53 
REMARK       I    between atoms: C6_7  and  C5_47 
REMARK       I    between atoms: C6_7  and  O6_29 
REMARK       I    between atoms: O4_8  and  C4_45 
REMARK       I    between atoms: O4_8  and  C1_39 
REMARK       I    between atoms: N_10  and  C2_35 
REMARK       I    between atoms: N_10  and  C7_17 
REMARK       I    between atoms: C5_12  and  C6_42 
REMARK       I    between atoms: C1_14  and  O3_57 
REMARK       I    between atoms: C6_15  and  C5_20 
REMARK       I    between atoms: C7_17  and  C8_54 
REMARK       I    between atoms: O6_18  and  C6_42 
REMARK       I    between atoms: S_19  and  O4_46 
REMARK       I    between atoms: C4_22  and  O4_50 
REMARK       I    between atoms: C2_23  and  O2_51 
REMARK       I    between atoms: S_26  and  O4_50 
REMARK       I    between atoms: N_27  and  C2_56 
REMARK       I    between atoms: N_27  and  C7_53 
REMARK       I    between atoms: C5_31  and  C6_55 
REMARK       I    between atoms: C1_33  and  O1_48 
REMARK       I    between atoms: C4_34  and  O4_46 
REMARK       I    between atoms: C3_40  and  O3_57 
REMARK       I    between atoms: C2_41  and  O2_60 
REMARK       I    between atoms: O3_43  and  C3_52 
ROOT
ATOM      1  O3  BDP d 609      26.744  25.465  -4.190  0.00  0.00    -0.390 OA
ATOM      2  C3  BDP d 609      26.505  26.304  -5.312  0.00  0.00     0.092 C 
ATOM      3  O4  BDP d 609      28.747  27.125  -5.264  0.00  0.00    -0.348 OA
ATOM      4  C1  BDP d 609      25.297  26.482  -7.502  0.00  0.00     0.160 C 
ATOM      5  C5  BDP d 609      27.566  27.243  -7.372  0.00  0.00     0.152 C 
ATOM      6  O5  BDP d 609      26.571  26.578  -8.172  0.00  0.00    -0.340 OA
ATOM      7  O6B BDP d 609      29.345  26.317  -8.646  0.00  0.00    -0.646 OA
ATOM      8  C2  BDP d 609      25.430  25.688  -6.195  0.00  0.00     0.110 C 
ATOM      9  C4  BDP d 609      27.798  26.449  -6.092  0.00  0.00     0.103 C 
ATOM     10  C6  BDP d 609      28.816  27.366  -8.223  0.00  0.00     0.206 C 
ATOM     11  O6A BDP d 609      29.251  28.522  -8.419  0.00  0.00    -0.646 OA
ATOM     12  O2  BDP d 609      24.187  25.706  -5.508  0.00  0.00    -0.388 OA
ATOM     13  H   BDP d 609      25.924  25.363  -3.681  0.00  0.00     0.210 HD
ATOM     14  H   BDP d 609      26.170  27.266  -4.986  0.00  0.00     0.091 H 
ATOM     15  H   BDP d 609      24.946  27.465  -7.267  0.00  0.00     0.133 H 
ATOM     16  H   BDP d 609      27.256  28.222  -7.072  0.00  0.00     0.104 H 
ATOM     17  H   BDP d 609      25.705  24.680  -6.424  0.00  0.00     0.094 H 
ATOM     18  H   BDP d 609      28.165  25.482  -6.365  0.00  0.00     0.092 H 
ATOM     19  H   BDP d 609      23.944  26.623  -5.304  0.00  0.00     0.210 HD
ATOM     20  O7  ASG d 610      30.386  30.078  -3.681  0.00  0.00    -0.274 OA
ATOM     21  O3  ASG d 610      33.167  27.737  -3.531  0.00  0.00    -0.348 OA
ATOM     22  OSB ASG d 610      33.680  25.961  -0.938  0.00  0.00    -0.572 OA
ATOM     23  OSA ASG d 610      32.326  23.979  -0.730  0.00  0.00    -0.572 OA
ATOM     24  N   ASG d 610      31.125  28.689  -5.296  0.00  0.00    -0.349 N 
ATOM     25  C5  ASG d 610      31.135  24.642  -4.264  0.00  0.00     0.090 C 
ATOM     26  C3  ASG d 610      32.281  26.835  -4.223  0.00  0.00     0.094 C 
ATOM     27  C7  ASG d 610      30.771  29.886  -4.838  0.00  0.00     0.214 C 
ATOM     28  O6  ASG d 610      30.171  22.435  -4.556  0.00  0.00    -0.398 OA
ATOM     29  O5  ASG d 610      29.872  25.314  -4.436  0.00  0.00    -0.349 OA
ATOM     30  C4  ASG d 610      32.065  25.530  -3.432  0.00  0.00     0.114 C 
ATOM     31  S   ASG d 610      32.299  25.447  -0.833  0.00  0.00     0.252 S 
ATOM     32  C2  ASG d 610      30.941  27.512  -4.471  0.00  0.00     0.087 C 
ATOM     33  C1  ASG d 610      29.996  26.544  -5.176  0.00  0.00     0.154 C 
ATOM     34  C6  ASG d 610      30.847  23.289  -3.643  0.00  0.00     0.043 C 
ATOM     35  OSC ASG d 610      31.625  26.000   0.358  0.00  0.00    -0.572 OA
ATOM     36  O4  ASG d 610      31.456  25.809  -2.153  0.00  0.00    -0.246 OA
ATOM     37  C8  ASG d 610      30.862  31.053  -5.815  0.00  0.00    -0.003 C 
ATOM     38  H   ASG d 610      31.513  28.603  -6.197  0.00  0.00     0.163 HD
ATOM     39  H   ASG d 610      31.645  24.472  -5.190  0.00  0.00     0.090 H 
ATOM     40  H   ASG d 610      32.738  26.583  -5.157  0.00  0.00     0.091 H 
ATOM     41  H   ASG d 610      30.000  21.579  -4.133  0.00  0.00     0.209 HD
ATOM     42  H   ASG d 610      33.002  25.047  -3.252  0.00  0.00     0.093 H 
ATOM     43  H   ASG d 610      30.520  27.801  -3.530  0.00  0.00     0.084 H 
ATOM     44  H   ASG d 610      30.392  26.330  -6.146  0.00  0.00     0.132 H 
ATOM     45  H   ASG d 610      30.235  23.426  -2.776  0.00  0.00     0.078 H 
ATOM     46  H   ASG d 610      31.778  22.833  -3.380  0.00  0.00     0.078 H 
ATOM     47  H   ASG d 610      30.551  31.953  -5.326  0.00  0.00     0.040 H 
ATOM     48  H   ASG d 610      30.226  30.866  -6.654  0.00  0.00     0.040 H 
ATOM     49  H   ASG d 610      31.872  31.160  -6.149  0.00  0.00     0.040 H 
ATOM     50  C8  ASG d 608      20.617  25.818  -6.106  0.00  0.00    -0.003 C 
ATOM     51  C6  ASG d 608      24.396  27.226 -13.108  0.00  0.00     0.043 C 
ATOM     52  O7  ASG d 608      21.498  24.281  -7.697  0.00  0.00    -0.274 OA
ATOM     53  S   ASG d 608      25.721  24.224 -11.124  0.00  0.00     0.252 S 
ATOM     54  OSC ASG d 608      25.777  23.345  -9.939  0.00  0.00    -0.572 OA
ATOM     55  N   ASG d 608      21.601  26.471  -8.241  0.00  0.00    -0.349 N 
ATOM     56  O6  ASG d 608      25.669  27.861 -13.186  0.00  0.00    -0.398 OA
ATOM     57  O5  ASG d 608      22.393  26.942 -11.847  0.00  0.00    -0.349 OA
ATOM     58  C1  ASG d 608      21.641  27.040 -10.621  0.00  0.00     0.151 C 
ATOM     59  C4  ASG d 608      24.469  26.502 -10.668  0.00  0.00     0.114 C 
ATOM     60  OSB ASG d 608      26.882  25.128 -11.040  0.00  0.00    -0.572 OA
ATOM     61  C3  ASG d 608      23.761  26.645  -9.338  0.00  0.00     0.094 C 
ATOM     62  O4  ASG d 608      24.427  25.152 -11.163  0.00  0.00    -0.246 OA
ATOM     63  C5  ASG d 608      23.769  27.369 -11.715  0.00  0.00     0.090 C 
ATOM     64  O1  ASG d 608      20.375  26.532 -10.857  0.00  0.00    -0.369 OA
ATOM     65  C7  ASG d 608      21.287  25.463  -7.427  0.00  0.00     0.214 C 
ATOM     66  C2  ASG d 608      22.304  26.228  -9.491  0.00  0.00     0.087 C 
ATOM     67  O3  ASG d 608      24.409  25.834  -8.340  0.00  0.00    -0.348 OA
ATOM     68  OSA ASG d 608      25.736  23.516 -12.421  0.00  0.00    -0.572 OA
ATOM     69  H   ASG d 608      20.421  24.924  -5.553  0.00  0.00     0.040 H 
ATOM     70  H   ASG d 608      19.696  26.328  -6.299  0.00  0.00     0.040 H 
ATOM     71  H   ASG d 608      21.263  26.454  -5.538  0.00  0.00     0.040 H 
ATOM     72  H   ASG d 608      23.743  27.671 -13.828  0.00  0.00     0.078 H 
ATOM     73  H   ASG d 608      24.534  26.183 -13.303  0.00  0.00     0.078 H 
ATOM     74  H   ASG d 608      21.355  27.391  -7.992  0.00  0.00     0.163 HD
ATOM     75  H   ASG d 608      25.568  28.810 -13.012  0.00  0.00     0.209 HD
ATOM     76  H   ASG d 608      21.602  28.064 -10.314  0.00  0.00     0.132 H 
ATOM     77  H   ASG d 608      25.485  26.797 -10.507  0.00  0.00     0.093 H 
ATOM     78  H   ASG d 608      23.804  27.667  -9.024  0.00  0.00     0.091 H 
ATOM     79  H   ASG d 608      23.858  28.382 -11.383  0.00  0.00     0.090 H 
ATOM     80  H   ASG d 608      20.445  25.605 -11.133  0.00  0.00     0.212 HD
ATOM     81  H   ASG d 608      22.257  25.187  -9.735  0.00  0.00     0.084 H 
ATOM     82  O6B GCD d 611      37.137  24.500  -4.984  0.00  0.00    -0.642 OA
ATOM     83  C6  GCD d 611      37.132  25.172  -3.878  0.00  0.00     0.233 C 
ATOM     84  C5  GCD d 611      36.632  26.593  -3.936  0.00  0.00     0.147 C 
ATOM     85  C2  GCD d 611      35.081  29.125  -3.687  0.00  0.00     0.111 C 
ATOM     86  O6A GCD d 611      37.419  24.813  -2.671  0.00  0.00    -0.642 OA
ATOM     87  C4  GCD d 611      37.287  27.692  -4.391  0.00  0.00    -0.034 C 
ATOM     88  C1  GCD d 611      34.420  27.850  -4.103  0.00  0.00     0.165 C 
ATOM     89  O3  GCD d 611      37.163  30.240  -3.828  0.00  0.00    -0.389 OA
ATOM     90  O5  GCD d 611      35.248  26.764  -3.450  0.00  0.00    -0.311 OA
ATOM     91  O2  GCD d 611      34.368  30.266  -4.249  0.00  0.00    -0.388 OA
ATOM     92  C3  GCD d 611      36.516  29.064  -4.335  0.00  0.00     0.084 C 
ATOM     93  H   GCD d 611      35.101  29.234  -2.623  0.00  0.00     0.095 H 
ATOM     94  H   GCD d 611      38.249  27.631  -4.758  0.00  0.00     0.085 H 
ATOM     95  H   GCD d 611      34.343  27.799  -5.169  0.00  0.00     0.134 H 
ATOM     96  H   GCD d 611      36.548  30.989  -3.866  0.00  0.00     0.210 HD
ATOM     97  H   GCD d 611      34.339  30.185  -5.215  0.00  0.00     0.210 HD
ATOM     98  H   GCD d 611      36.474  29.082  -5.403  0.00  0.00     0.093 H 
ENDROOT
TORSDOF 25
ENDMDL
MODEL 52
REMARK VINA RESULT:      -6.5      3.180      6.070
REMARK  0 active torsions:
REMARK  status: ('A' for Active; 'I' for Inactive)
REMARK       I    between atoms: O3_1  and  C3_6 
REMARK       I    between atoms: O3_3  and  C3_16 
REMARK       I    between atoms: O3_3  and  C1_32 
REMARK       I    between atoms: C8_5  and  C7_53 
REMARK       I    between atoms: C6_7  and  C5_47 
REMARK       I    between atoms: C6_7  and  O6_29 
REMARK       I    between atoms: O4_8  and  C4_45 
REMARK       I    between atoms: O4_8  and  C1_39 
REMARK       I    between atoms: N_10  and  C2_35 
REMARK       I    between atoms: N_10  and  C7_17 
REMARK       I    between atoms: C5_12  and  C6_42 
REMARK       I    between atoms: C1_14  and  O3_57 
REMARK       I    between atoms: C6_15  and  C5_20 
REMARK       I    between atoms: C7_17  and  C8_54 
REMARK       I    between atoms: O6_18  and  C6_42 
REMARK       I    between atoms: S_19  and  O4_46 
REMARK       I    between atoms: C4_22  and  O4_50 
REMARK       I    between atoms: C2_23  and  O2_51 
REMARK       I    between atoms: S_26  and  O4_50 
REMARK       I    between atoms: N_27  and  C2_56 
REMARK       I    between atoms: N_27  and  C7_53 
REMARK       I    between atoms: C5_31  and  C6_55 
REMARK       I    between atoms: C1_33  and  O1_48 
REMARK       I    between atoms: C4_34  and  O4_46 
REMARK       I    between atoms: C3_40  and  O3_57 
REMARK       I    between atoms: C2_41  and  O2_60 
REMARK       I    between atoms: O3_43  and  C3_52 
ROOT
ATOM      1  O3  BDP d 609      29.738  23.336  -3.767  0.00  0.00    -0.390 OA
ATOM      2  C3  BDP d 609      28.690  24.295  -3.732  0.00  0.00     0.092 C 
ATOM      3  O4  BDP d 609      30.028  25.903  -4.883  0.00  0.00    -0.348 OA
ATOM      4  C1  BDP d 609      26.205  24.603  -3.873  0.00  0.00     0.160 C 
ATOM      5  C5  BDP d 609      27.626  26.146  -5.033  0.00  0.00     0.152 C 
ATOM      6  O5  BDP d 609      26.394  25.402  -5.059  0.00  0.00    -0.340 OA
ATOM      7  O6B BDP d 609      27.605  26.446  -7.390  0.00  0.00    -0.646 OA
ATOM      8  C2  BDP d 609      27.343  23.585  -3.718  0.00  0.00     0.110 C 
ATOM      9  C4  BDP d 609      28.800  25.177  -4.961  0.00  0.00     0.103 C 
ATOM     10  C6  BDP d 609      27.653  27.013  -6.279  0.00  0.00     0.206 C 
ATOM     11  O6A BDP d 609      27.752  28.246  -6.103  0.00  0.00    -0.646 OA
ATOM     12  O2  BDP d 609      27.187  22.893  -2.488  0.00  0.00    -0.388 OA
ATOM     13  H   BDP d 609      29.680  22.764  -2.985  0.00  0.00     0.210 HD
ATOM     14  H   BDP d 609      28.769  24.894  -2.849  0.00  0.00     0.091 H 
ATOM     15  H   BDP d 609      26.201  25.241  -3.014  0.00  0.00     0.133 H 
ATOM     16  H   BDP d 609      27.699  26.778  -4.173  0.00  0.00     0.104 H 
ATOM     17  H   BDP d 609      27.308  22.894  -4.534  0.00  0.00     0.094 H 
ATOM     18  H   BDP d 609      28.782  24.571  -5.842  0.00  0.00     0.092 H 
ATOM     19  H   BDP d 609      27.221  23.526  -1.754  0.00  0.00     0.210 HD
ATOM     20  O7  ASG d 610      32.287  28.656  -3.775  0.00  0.00    -0.274 OA
ATOM     21  O3  ASG d 610      33.998  27.720  -6.846  0.00  0.00    -0.348 OA
ATOM     22  OSB ASG d 610      36.399  25.629  -6.815  0.00  0.00    -0.572 OA
ATOM     23  OSA ASG d 610      35.774  23.303  -6.750  0.00  0.00    -0.572 OA
ATOM     24  N   ASG d 610      31.385  28.233  -5.797  0.00  0.00    -0.349 N 
ATOM     25  C5  ASG d 610      32.205  24.434  -7.326  0.00  0.00     0.090 C 
ATOM     26  C3  ASG d 610      32.915  26.783  -7.016  0.00  0.00     0.094 C 
ATOM     27  C7  ASG d 610      31.563  28.988  -4.718  0.00  0.00     0.214 C 
ATOM     28  O6  ASG d 610      31.395  22.219  -7.898  0.00  0.00    -0.398 OA
ATOM     29  O5  ASG d 610      31.340  24.551  -6.179  0.00  0.00    -0.349 OA
ATOM     30  C4  ASG d 610      33.427  25.335  -7.126  0.00  0.00     0.114 C 
ATOM     31  S   ASG d 610      35.685  24.591  -6.044  0.00  0.00     0.252 S 
ATOM     32  C2  ASG d 610      31.944  26.896  -5.849  0.00  0.00     0.087 C 
ATOM     33  C1  ASG d 610      30.817  25.883  -6.016  0.00  0.00     0.154 C 
ATOM     34  C6  ASG d 610      32.537  22.963  -7.494  0.00  0.00     0.043 C 
ATOM     35  OSC ASG d 610      36.272  24.444  -4.698  0.00  0.00    -0.572 OA
ATOM     36  O4  ASG d 610      34.123  24.950  -5.920  0.00  0.00    -0.246 OA
ATOM     37  C8  ASG d 610      30.826  30.322  -4.680  0.00  0.00    -0.003 C 
ATOM     38  H   ASG d 610      30.872  28.581  -6.562  0.00  0.00     0.163 HD
ATOM     39  H   ASG d 610      31.742  24.767  -8.232  0.00  0.00     0.090 H 
ATOM     40  H   ASG d 610      32.414  27.027  -7.929  0.00  0.00     0.091 H 
ATOM     41  H   ASG d 610      31.636  21.285  -7.996  0.00  0.00     0.209 HD
ATOM     42  H   ASG d 610      34.112  25.245  -7.943  0.00  0.00     0.093 H 
ATOM     43  H   ASG d 610      32.472  26.697  -4.939  0.00  0.00     0.084 H 
ATOM     44  H   ASG d 610      30.251  26.145  -6.885  0.00  0.00     0.132 H 
ATOM     45  H   ASG d 610      32.893  22.577  -6.562  0.00  0.00     0.078 H 
ATOM     46  H   ASG d 610      33.286  22.870  -8.253  0.00  0.00     0.078 H 
ATOM     47  H   ASG d 610      31.052  30.829  -3.765  0.00  0.00     0.040 H 
ATOM     48  H   ASG d 610      29.772  30.149  -4.740  0.00  0.00     0.040 H 
ATOM     49  H   ASG d 610      31.136  30.925  -5.507  0.00  0.00     0.040 H 
ATOM     50  C8  ASG d 608      24.640  21.713  -0.200  0.00  0.00    -0.003 C 
ATOM     51  C6  ASG d 608      21.112  26.533  -5.642  0.00  0.00     0.043 C 
ATOM     52  O7  ASG d 608      23.838  21.212  -2.386  0.00  0.00    -0.274 OA
ATOM     53  S   ASG d 608      23.476  23.892  -7.105  0.00  0.00     0.252 S 
ATOM     54  OSC ASG d 608      24.469  22.805  -6.999  0.00  0.00    -0.572 OA
ATOM     55  N   ASG d 608      23.470  23.307  -1.628  0.00  0.00    -0.349 N 
ATOM     56  O6  ASG d 608      21.787  27.623  -6.263  0.00  0.00    -0.398 OA
ATOM     57  O5  ASG d 608      20.984  25.100  -3.741  0.00  0.00    -0.349 OA
ATOM     58  C1  ASG d 608      21.552  24.518  -2.551  0.00  0.00     0.151 C 
ATOM     59  C4  ASG d 608      23.142  25.217  -4.847  0.00  0.00     0.114 C 
ATOM     60  OSB ASG d 608      24.221  25.121  -7.431  0.00  0.00    -0.572 OA
ATOM     61  C3  ASG d 608      23.821  24.661  -3.614  0.00  0.00     0.094 C 
ATOM     62  O4  ASG d 608      22.703  24.179  -5.741  0.00  0.00    -0.246 OA
ATOM     63  C5  ASG d 608      21.888  25.991  -4.435  0.00  0.00     0.090 C 
ATOM     64  O1  ASG d 608      20.625  23.633  -2.027  0.00  0.00    -0.369 OA
ATOM     65  C7  ASG d 608      23.946  22.068  -1.509  0.00  0.00     0.214 C 
ATOM     66  C2  ASG d 608      22.852  23.752  -2.868  0.00  0.00     0.087 C 
ATOM     67  O3  ASG d 608      25.004  23.929  -3.986  0.00  0.00    -0.348 OA
ATOM     68  OSA ASG d 608      22.420  23.669  -8.114  0.00  0.00    -0.572 OA
ATOM     69  H   ASG d 608      24.972  20.697  -0.237  0.00  0.00     0.040 H 
ATOM     70  H   ASG d 608      23.954  21.836   0.612  0.00  0.00     0.040 H 
ATOM     71  H   ASG d 608      25.481  22.358  -0.057  0.00  0.00     0.040 H 
ATOM     72  H   ASG d 608      20.150  26.865  -5.312  0.00  0.00     0.078 H 
ATOM     73  H   ASG d 608      21.025  25.745  -6.361  0.00  0.00     0.078 H 
ATOM     74  H   ASG d 608      23.537  23.929  -0.868  0.00  0.00     0.163 HD
ATOM     75  H   ASG d 608      21.878  28.351  -5.629  0.00  0.00     0.209 HD
ATOM     76  H   ASG d 608      21.787  25.297  -1.856  0.00  0.00     0.132 H 
ATOM     77  H   ASG d 608      23.862  25.838  -5.339  0.00  0.00     0.093 H 
ATOM     78  H   ASG d 608      24.109  25.469  -2.975  0.00  0.00     0.091 H 
ATOM     79  H   ASG d 608      22.219  26.805  -3.824  0.00  0.00     0.090 H 
ATOM     80  H   ASG d 608      20.434  22.941  -2.679  0.00  0.00     0.212 HD
ATOM     81  H   ASG d 608      22.618  22.905  -3.479  0.00  0.00     0.084 H 
ATOM     82  O6B GCD d 611      35.080  26.966 -12.005  0.00  0.00    -0.642 OA
ATOM     83  C6  GCD d 611      35.984  27.219 -11.115  0.00  0.00     0.233 C 
ATOM     84  C5  GCD d 611      35.658  28.261 -10.076  0.00  0.00     0.147 C 
ATOM     85  C2  GCD d 611      34.984  29.745  -7.581  0.00  0.00     0.111 C 
ATOM     86  O6A GCD d 611      37.133  26.669 -10.901  0.00  0.00    -0.642 OA
ATOM     87  C4  GCD d 611      35.672  29.611 -10.213  0.00  0.00    -0.034 C 
ATOM     88  C1  GCD d 611      34.255  28.496  -7.961  0.00  0.00     0.165 C 
ATOM     89  O3  GCD d 611      36.079  31.598  -8.565  0.00  0.00    -0.389 OA
ATOM     90  O5  GCD d 611      35.258  27.701  -8.768  0.00  0.00    -0.311 OA
ATOM     91  O2  GCD d 611      34.122  30.607  -6.782  0.00  0.00    -0.388 OA
ATOM     92  C3  GCD d 611      35.283  30.467  -8.950  0.00  0.00     0.084 C 
ATOM     93  H   GCD d 611      35.866  29.533  -7.012  0.00  0.00     0.095 H 
ATOM     94  H   GCD d 611      35.927  30.058 -11.107  0.00  0.00     0.085 H 
ATOM     95  H   GCD d 611      33.339  28.735  -8.460  0.00  0.00     0.134 H 
ATOM     96  H   GCD d 611      35.698  32.006  -7.772  0.00  0.00     0.210 HD
ATOM     97  H   GCD d 611      33.316  30.810  -7.281  0.00  0.00     0.210 HD
ATOM     98  H   GCD d 611      34.386  30.780  -9.441  0.00  0.00     0.093 H 
ENDROOT
TORSDOF 25
ENDMDL
MODEL 53
REMARK VINA RESULT:      -6.5      3.880      7.022
REMARK  0 active torsions:
REMARK  status: ('A' for Active; 'I' for Inactive)
REMARK       I    between atoms: O3_1  and  C3_6 
REMARK       I    between atoms: O3_3  and  C3_16 
REMARK       I    between atoms: O3_3  and  C1_32 
REMARK       I    between atoms: C8_5  and  C7_53 
REMARK       I    between atoms: C6_7  and  C5_47 
REMARK       I    between atoms: C6_7  and  O6_29 
REMARK       I    between atoms: O4_8  and  C4_45 
REMARK       I    between atoms: O4_8  and  C1_39 
REMARK       I    between atoms: N_10  and  C2_35 
REMARK       I    between atoms: N_10  and  C7_17 
REMARK       I    between atoms: C5_12  and  C6_42 
REMARK       I    between atoms: C1_14  and  O3_57 
REMARK       I    between atoms: C6_15  and  C5_20 
REMARK       I    between atoms: C7_17  and  C8_54 
REMARK       I    between atoms: O6_18  and  C6_42 
REMARK       I    between atoms: S_19  and  O4_46 
REMARK       I    between atoms: C4_22  and  O4_50 
REMARK       I    between atoms: C2_23  and  O2_51 
REMARK       I    between atoms: S_26  and  O4_50 
REMARK       I    between atoms: N_27  and  C2_56 
REMARK       I    between atoms: N_27  and  C7_53 
REMARK       I    between atoms: C5_31  and  C6_55 
REMARK       I    between atoms: C1_33  and  O1_48 
REMARK       I    between atoms: C4_34  and  O4_46 
REMARK       I    between atoms: C3_40  and  O3_57 
REMARK       I    between atoms: C2_41  and  O2_60 
REMARK       I    between atoms: O3_43  and  C3_52 
ROOT
ATOM      1  O3  BDP d 609      29.948  23.793  -3.862  0.00  0.00    -0.390 OA
ATOM      2  C3  BDP d 609      28.885  24.666  -4.222  0.00  0.00     0.092 C 
ATOM      3  O4  BDP d 609      29.958  25.239  -6.276  0.00  0.00    -0.348 OA
ATOM      4  C1  BDP d 609      26.401  24.997  -4.128  0.00  0.00     0.160 C 
ATOM      5  C5  BDP d 609      27.556  25.506  -6.165  0.00  0.00     0.152 C 
ATOM      6  O5  BDP d 609      26.364  24.961  -5.570  0.00  0.00    -0.340 OA
ATOM      7  O6B BDP d 609      27.140  24.407  -8.230  0.00  0.00    -0.646 OA
ATOM      8  C2  BDP d 609      27.586  24.179  -3.596  0.00  0.00     0.110 C 
ATOM      9  C4  BDP d 609      28.761  24.678  -5.733  0.00  0.00     0.103 C 
ATOM     10  C6  BDP d 609      27.349  25.502  -7.669  0.00  0.00     0.206 C 
ATOM     11  O6A BDP d 609      27.429  26.606  -8.250  0.00  0.00    -0.646 OA
ATOM     12  O2  BDP d 609      27.658  24.324  -2.185  0.00  0.00    -0.388 OA
ATOM     13  H   BDP d 609      30.040  23.776  -2.895  0.00  0.00     0.210 HD
ATOM     14  H   BDP d 609      29.086  25.655  -3.867  0.00  0.00     0.091 H 
ATOM     15  H   BDP d 609      26.514  26.009  -3.802  0.00  0.00     0.133 H 
ATOM     16  H   BDP d 609      27.746  26.510  -5.847  0.00  0.00     0.104 H 
ATOM     17  H   BDP d 609      27.444  23.149  -3.850  0.00  0.00     0.094 H 
ATOM     18  H   BDP d 609      28.621  23.680  -6.092  0.00  0.00     0.092 H 
ATOM     19  H   BDP d 609      27.788  25.260  -1.963  0.00  0.00     0.210 HD
ATOM     20  O7  ASG d 610      32.265  27.980  -7.312  0.00  0.00    -0.274 OA
ATOM     21  O3  ASG d 610      33.486  25.351  -9.511  0.00  0.00    -0.348 OA
ATOM     22  OSB ASG d 610      35.934  23.503  -8.658  0.00  0.00    -0.572 OA
ATOM     23  OSA ASG d 610      35.413  21.677  -7.175  0.00  0.00    -0.572 OA
ATOM     24  N   ASG d 610      31.061  26.537  -8.557  0.00  0.00    -0.349 N 
ATOM     25  C5  ASG d 610      31.760  22.502  -7.736  0.00  0.00     0.090 C 
ATOM     26  C3  ASG d 610      32.424  24.557  -8.943  0.00  0.00     0.094 C 
ATOM     27  C7  ASG d 610      31.386  27.760  -8.149  0.00  0.00     0.214 C 
ATOM     28  O6  ASG d 610      30.949  20.415  -6.801  0.00  0.00    -0.398 OA
ATOM     29  O5  ASG d 610      31.090  23.308  -6.747  0.00  0.00    -0.349 OA
ATOM     30  C4  ASG d 610      32.965  23.275  -8.280  0.00  0.00     0.114 C 
ATOM     31  S   ASG d 610      35.394  23.139  -7.332  0.00  0.00     0.252 S 
ATOM     32  C2  ASG d 610      31.653  25.377  -7.919  0.00  0.00     0.087 C 
ATOM     33  C1  ASG d 610      30.552  24.525  -7.298  0.00  0.00     0.154 C 
ATOM     34  C6  ASG d 610      32.113  21.181  -7.079  0.00  0.00     0.043 C 
ATOM     35  OSC ASG d 610      36.198  23.750  -6.255  0.00  0.00    -0.572 OA
ATOM     36  O4  ASG d 610      33.861  23.604  -7.196  0.00  0.00    -0.246 OA
ATOM     37  C8  ASG d 610      30.616  28.921  -8.769  0.00  0.00    -0.003 C 
ATOM     38  H   ASG d 610      30.418  26.418  -9.293  0.00  0.00     0.163 HD
ATOM     39  H   ASG d 610      31.143  22.287  -8.584  0.00  0.00     0.090 H 
ATOM     40  H   ASG d 610      31.773  24.267  -9.740  0.00  0.00     0.091 H 
ATOM     41  H   ASG d 610      31.205  19.578  -6.382  0.00  0.00     0.209 HD
ATOM     42  H   ASG d 610      33.509  22.691  -8.992  0.00  0.00     0.093 H 
ATOM     43  H   ASG d 610      32.329  25.700  -7.154  0.00  0.00     0.084 H 
ATOM     44  H   ASG d 610      29.843  24.280  -8.061  0.00  0.00     0.132 H 
ATOM     45  H   ASG d 610      32.630  21.375  -6.163  0.00  0.00     0.078 H 
ATOM     46  H   ASG d 610      32.731  20.624  -7.752  0.00  0.00     0.078 H 
ATOM     47  H   ASG d 610      30.970  29.844  -8.359  0.00  0.00     0.040 H 
ATOM     48  H   ASG d 610      29.574  28.812  -8.556  0.00  0.00     0.040 H 
ATOM     49  H   ASG d 610      30.765  28.922  -9.828  0.00  0.00     0.040 H 
ATOM     50  C8  ASG d 608      25.563  24.828   0.726  0.00  0.00    -0.003 C 
ATOM     51  C6  ASG d 608      21.021  25.893  -5.871  0.00  0.00     0.043 C 
ATOM     52  O7  ASG d 608      24.434  23.221  -0.621  0.00  0.00    -0.274 OA
ATOM     53  S   ASG d 608      23.209  22.744  -5.899  0.00  0.00     0.252 S 
ATOM     54  OSC ASG d 608      24.246  21.851  -5.344  0.00  0.00    -0.572 OA
ATOM     55  N   ASG d 608      24.118  25.393  -1.156  0.00  0.00    -0.349 N 
ATOM     56  O6  ASG d 608      21.545  26.387  -7.101  0.00  0.00    -0.398 OA
ATOM     57  O5  ASG d 608      21.258  25.813  -3.500  0.00  0.00    -0.349 OA
ATOM     58  C1  ASG d 608      22.033  25.980  -2.297  0.00  0.00     0.151 C 
ATOM     59  C4  ASG d 608      23.200  25.139  -4.791  0.00  0.00     0.114 C 
ATOM     60  OSB ASG d 608      23.846  23.516  -6.981  0.00  0.00    -0.572 OA
ATOM     61  C3  ASG d 608      24.091  25.344  -3.585  0.00  0.00     0.094 C 
ATOM     62  O4  ASG d 608      22.660  23.808  -4.847  0.00  0.00    -0.246 OA
ATOM     63  C5  ASG d 608      22.003  26.088  -4.709  0.00  0.00     0.090 C 
ATOM     64  O1  ASG d 608      21.236  25.614  -1.225  0.00  0.00    -0.369 OA
ATOM     65  C7  ASG d 608      24.652  24.416  -0.424  0.00  0.00     0.214 C 
ATOM     66  C2  ASG d 608      23.291  25.088  -2.313  0.00  0.00     0.087 C 
ATOM     67  O3  ASG d 608      25.223  24.457  -3.647  0.00  0.00    -0.348 OA
ATOM     68  OSA ASG d 608      22.012  22.053  -6.421  0.00  0.00    -0.572 OA
ATOM     69  H   ASG d 608      25.922  23.954   1.228  0.00  0.00     0.040 H 
ATOM     70  H   ASG d 608      25.015  25.436   1.415  0.00  0.00     0.040 H 
ATOM     71  H   ASG d 608      26.393  25.384   0.342  0.00  0.00     0.040 H 
ATOM     72  H   ASG d 608      20.114  26.414  -5.648  0.00  0.00     0.078 H 
ATOM     73  H   ASG d 608      20.847  24.843  -5.985  0.00  0.00     0.078 H 
ATOM     74  H   ASG d 608      24.285  26.331  -0.911  0.00  0.00     0.163 HD
ATOM     75  H   ASG d 608      21.711  27.339  -7.021  0.00  0.00     0.209 HD
ATOM     76  H   ASG d 608      22.349  26.999  -2.220  0.00  0.00     0.132 H 
ATOM     77  H   ASG d 608      23.807  25.321  -5.654  0.00  0.00     0.093 H 
ATOM     78  H   ASG d 608      24.450  26.352  -3.578  0.00  0.00     0.091 H 
ATOM     79  H   ASG d 608      22.398  27.082  -4.736  0.00  0.00     0.090 H 
ATOM     80  H   ASG d 608      20.967  24.688  -1.323  0.00  0.00     0.212 HD
ATOM     81  H   ASG d 608      22.991  24.061  -2.283  0.00  0.00     0.084 H 
ATOM     82  O6B GCD d 611      33.738  21.719 -13.396  0.00  0.00    -0.642 OA
ATOM     83  C6  GCD d 611      34.766  22.376 -12.965  0.00  0.00     0.233 C 
ATOM     84  C5  GCD d 611      34.576  23.843 -12.676  0.00  0.00     0.147 C 
ATOM     85  C2  GCD d 611      34.264  26.525 -11.415  0.00  0.00     0.111 C 
ATOM     86  O6A GCD d 611      35.954  21.975 -12.654  0.00  0.00    -0.642 OA
ATOM     87  C4  GCD d 611      34.518  24.870 -13.562  0.00  0.00    -0.034 C 
ATOM     88  C1  GCD d 611      33.529  25.333 -10.892  0.00  0.00     0.165 C 
ATOM     89  O3  GCD d 611      35.114  27.410 -13.438  0.00  0.00    -0.389 OA
ATOM     90  O5  GCD d 611      34.415  24.158 -11.241  0.00  0.00    -0.311 OA
ATOM     91  O2  GCD d 611      33.513  27.743 -11.133  0.00  0.00    -0.388 OA
ATOM     92  C3  GCD d 611      34.309  26.316 -12.977  0.00  0.00     0.084 C 
ATOM     93  H   GCD d 611      35.234  26.620 -10.972  0.00  0.00     0.095 H 
ATOM     94  H   GCD d 611      34.607  24.709 -14.578  0.00  0.00     0.085 H 
ATOM     95  H   GCD d 611      32.535  25.302 -11.289  0.00  0.00     0.134 H 
ATOM     96  H   GCD d 611      34.854  28.222 -12.975  0.00  0.00     0.210 HD
ATOM     97  H   GCD d 611      32.629  27.675 -11.527  0.00  0.00     0.210 HD
ATOM     98  H   GCD d 611      33.333  26.350 -13.413  0.00  0.00     0.093 H 
ENDROOT
TORSDOF 25
ENDMDL
MODEL 54
REMARK VINA RESULT:      -6.4      4.481     10.585
REMARK  0 active torsions:
REMARK  status: ('A' for Active; 'I' for Inactive)
REMARK       I    between atoms: O3_1  and  C3_6 
REMARK       I    between atoms: O3_3  and  C3_16 
REMARK       I    between atoms: O3_3  and  C1_32 
REMARK       I    between atoms: C8_5  and  C7_53 
REMARK       I    between atoms: C6_7  and  C5_47 
REMARK       I    between atoms: C6_7  and  O6_29 
REMARK       I    between atoms: O4_8  and  C4_45 
REMARK       I    between atoms: O4_8  and  C1_39 
REMARK       I    between atoms: N_10  and  C2_35 
REMARK       I    between atoms: N_10  and  C7_17 
REMARK       I    between atoms: C5_12  and  C6_42 
REMARK       I    between atoms: C1_14  and  O3_57 
REMARK       I    between atoms: C6_15  and  C5_20 
REMARK       I    between atoms: C7_17  and  C8_54 
REMARK       I    between atoms: O6_18  and  C6_42 
REMARK       I    between atoms: S_19  and  O4_46 
REMARK       I    between atoms: C4_22  and  O4_50 
REMARK       I    between atoms: C2_23  and  O2_51 
REMARK       I    between atoms: S_26  and  O4_50 
REMARK       I    between atoms: N_27  and  C2_56 
REMARK       I    between atoms: N_27  and  C7_53 
REMARK       I    between atoms: C5_31  and  C6_55 
REMARK       I    between atoms: C1_33  and  O1_48 
REMARK       I    between atoms: C4_34  and  O4_46 
REMARK       I    between atoms: C3_40  and  O3_57 
REMARK       I    between atoms: C2_41  and  O2_60 
REMARK       I    between atoms: O3_43  and  C3_52 
ROOT
ATOM      1  O3  BDP d 609      29.548  24.698  -6.533  0.00  0.00    -0.390 OA
ATOM      2  C3  BDP d 609      28.231  24.278  -6.865  0.00  0.00     0.092 C 
ATOM      3  O4  BDP d 609      27.785  23.655  -4.604  0.00  0.00    -0.348 OA
ATOM      4  C1  BDP d 609      26.236  24.775  -8.302  0.00  0.00     0.160 C 
ATOM      5  C5  BDP d 609      25.885  24.181  -6.006  0.00  0.00     0.152 C 
ATOM      6  O5  BDP d 609      25.461  25.007  -7.107  0.00  0.00    -0.340 OA
ATOM      7  O6B BDP d 609      24.856  25.613  -4.414  0.00  0.00    -0.646 OA
ATOM      8  C2  BDP d 609      27.720  25.081  -8.053  0.00  0.00     0.110 C 
ATOM      9  C4  BDP d 609      27.335  24.503  -5.662  0.00  0.00     0.103 C 
ATOM     10  C6  BDP d 609      24.934  24.448  -4.854  0.00  0.00     0.206 C 
ATOM     11  O6A BDP d 609      24.309  23.464  -4.402  0.00  0.00    -0.646 OA
ATOM     12  O2  BDP d 609      28.468  24.739  -9.211  0.00  0.00    -0.388 OA
ATOM     13  H   BDP d 609      30.133  24.559  -7.295  0.00  0.00     0.210 HD
ATOM     14  H   BDP d 609      28.231  23.241  -7.128  0.00  0.00     0.091 H 
ATOM     15  H   BDP d 609      26.145  23.749  -8.589  0.00  0.00     0.133 H 
ATOM     16  H   BDP d 609      25.852  23.139  -6.245  0.00  0.00     0.104 H 
ATOM     17  H   BDP d 609      27.832  26.124  -7.841  0.00  0.00     0.094 H 
ATOM     18  H   BDP d 609      27.383  25.529  -5.363  0.00  0.00     0.092 H 
ATOM     19  H   BDP d 609      28.361  23.793  -9.396  0.00  0.00     0.210 HD
ATOM     20  O7  ASG d 610      28.083  20.465  -2.695  0.00  0.00    -0.274 OA
ATOM     21  O3  ASG d 610      28.784  22.807   0.000  0.00  0.00    -0.348 OA
ATOM     22  OSB ASG d 610      31.775  23.618   0.732  0.00  0.00    -0.572 OA
ATOM     23  OSA ASG d 610      32.783  25.306  -0.661  0.00  0.00    -0.572 OA
ATOM     24  N   ASG d 610      26.992  22.372  -2.189  0.00  0.00    -0.349 N 
ATOM     25  C5  ASG d 610      29.364  25.810  -2.211  0.00  0.00     0.090 C 
ATOM     26  C3  ASG d 610      28.534  23.825  -0.989  0.00  0.00     0.094 C 
ATOM     27  C7  ASG d 610      27.036  21.069  -2.447  0.00  0.00     0.214 C 
ATOM     28  O6  ASG d 610      29.949  27.908  -3.280  0.00  0.00    -0.398 OA
ATOM     29  O5  ASG d 610      29.085  25.149  -3.460  0.00  0.00    -0.349 OA
ATOM     30  C4  ASG d 610      29.746  24.760  -1.162  0.00  0.00     0.114 C 
ATOM     31  S   ASG d 610      32.179  23.964  -0.646  0.00  0.00     0.252 S 
ATOM     32  C2  ASG d 610      28.189  23.179  -2.323  0.00  0.00     0.087 C 
ATOM     33  C1  ASG d 610      27.955  24.259  -3.374  0.00  0.00     0.154 C 
ATOM     34  C6  ASG d 610      30.441  26.844  -2.477  0.00  0.00     0.043 C 
ATOM     35  OSC ASG d 610      33.158  22.990  -1.163  0.00  0.00    -0.572 OA
ATOM     36  O4  ASG d 610      30.898  24.017  -1.617  0.00  0.00    -0.246 OA
ATOM     37  C8  ASG d 610      25.709  20.316  -2.423  0.00  0.00    -0.003 C 
ATOM     38  H   ASG d 610      26.147  22.790  -1.907  0.00  0.00     0.163 HD
ATOM     39  H   ASG d 610      28.513  26.324  -1.813  0.00  0.00     0.090 H 
ATOM     40  H   ASG d 610      27.708  24.413  -0.648  0.00  0.00     0.091 H 
ATOM     41  H   ASG d 610      30.657  28.552  -3.434  0.00  0.00     0.209 HD
ATOM     42  H   ASG d 610      29.997  25.219  -0.229  0.00  0.00     0.093 H 
ATOM     43  H   ASG d 610      29.005  22.556  -2.627  0.00  0.00     0.084 H 
ATOM     44  H   ASG d 610      27.088  24.821  -3.096  0.00  0.00     0.132 H 
ATOM     45  H   ASG d 610      31.258  26.374  -2.983  0.00  0.00     0.078 H 
ATOM     46  H   ASG d 610      30.760  27.248  -1.539  0.00  0.00     0.078 H 
ATOM     47  H   ASG d 610      25.881  19.284  -2.645  0.00  0.00     0.040 H 
ATOM     48  H   ASG d 610      25.050  20.734  -3.154  0.00  0.00     0.040 H 
ATOM     49  H   ASG d 610      25.268  20.404  -1.453  0.00  0.00     0.040 H 
ATOM     50  C8  ASG d 608      28.197  24.581 -12.819  0.00  0.00    -0.003 C 
ATOM     51  C6  ASG d 608      20.829  25.934  -9.790  0.00  0.00     0.043 C 
ATOM     52  O7  ASG d 608      27.168  26.630 -12.176  0.00  0.00    -0.274 OA
ATOM     53  S   ASG d 608      23.605  28.162  -8.362  0.00  0.00     0.252 S 
ATOM     54  OSC ASG d 608      25.011  28.584  -8.207  0.00  0.00    -0.572 OA
ATOM     55  N   ASG d 608      25.889  24.773 -12.054  0.00  0.00    -0.349 N 
ATOM     56  O6  ASG d 608      20.419  25.458  -8.511  0.00  0.00    -0.398 OA
ATOM     57  O5  ASG d 608      22.288  25.624 -11.650  0.00  0.00    -0.349 OA
ATOM     58  C1  ASG d 608      23.466  25.058 -12.258  0.00  0.00     0.151 C 
ATOM     59  C4  ASG d 608      23.352  25.781  -9.473  0.00  0.00     0.114 C 
ATOM     60  OSB ASG d 608      23.262  27.370  -7.167  0.00  0.00    -0.572 OA
ATOM     61  C3  ASG d 608      24.607  25.140 -10.024  0.00  0.00     0.094 C 
ATOM     62  O4  ASG d 608      23.363  27.212  -9.619  0.00  0.00    -0.246 OA
ATOM     63  C5  ASG d 608      22.136  25.278 -10.254  0.00  0.00     0.090 C 
ATOM     64  O1  ASG d 608      23.538  25.523 -13.559  0.00  0.00    -0.369 OA
ATOM     65  C7  ASG d 608      27.028  25.415 -12.312  0.00  0.00     0.214 C 
ATOM     66  C2  ASG d 608      24.743  25.479 -11.503  0.00  0.00     0.087 C 
ATOM     67  O3  ASG d 608      25.761  25.606  -9.299  0.00  0.00    -0.348 OA
ATOM     68  OSA ASG d 608      22.640  29.270  -8.516  0.00  0.00    -0.572 OA
ATOM     69  H   ASG d 608      29.043  25.216 -12.985  0.00  0.00     0.040 H 
ATOM     70  H   ASG d 608      27.923  24.104 -13.737  0.00  0.00     0.040 H 
ATOM     71  H   ASG d 608      28.447  23.838 -12.091  0.00  0.00     0.040 H 
ATOM     72  H   ASG d 608      20.062  25.717 -10.503  0.00  0.00     0.078 H 
ATOM     73  H   ASG d 608      20.998  26.988  -9.712  0.00  0.00     0.078 H 
ATOM     74  H   ASG d 608      25.823  23.808 -12.238  0.00  0.00     0.163 HD
ATOM     75  H   ASG d 608      20.260  24.503  -8.558  0.00  0.00     0.209 HD
ATOM     76  H   ASG d 608      23.399  23.990 -12.226  0.00  0.00     0.132 H 
ATOM     77  H   ASG d 608      23.306  25.524  -8.436  0.00  0.00     0.093 H 
ATOM     78  H   ASG d 608      24.540  24.079  -9.910  0.00  0.00     0.091 H 
ATOM     79  H   ASG d 608      22.085  24.222 -10.092  0.00  0.00     0.090 H 
ATOM     80  H   ASG d 608      23.598  26.491 -13.554  0.00  0.00     0.212 HD
ATOM     81  H   ASG d 608      24.882  26.534 -11.615  0.00  0.00     0.084 H 
ATOM     82  O6B GCD d 611      28.194  26.623   3.666  0.00  0.00    -0.642 OA
ATOM     83  C6  GCD d 611      28.991  25.614   3.808  0.00  0.00     0.233 C 
ATOM     84  C5  GCD d 611      28.488  24.266   3.355  0.00  0.00     0.147 C 
ATOM     85  C2  GCD d 611      27.980  21.698   1.933  0.00  0.00     0.111 C 
ATOM     86  O6A GCD d 611      30.216  25.558   4.213  0.00  0.00    -0.642 OA
ATOM     87  C4  GCD d 611      27.621  23.440   3.995  0.00  0.00    -0.034 C 
ATOM     88  C1  GCD d 611      28.097  22.987   1.186  0.00  0.00     0.165 C 
ATOM     89  O3  GCD d 611      27.270  20.851   4.026  0.00  0.00    -0.389 OA
ATOM     90  O5  GCD d 611      29.009  23.840   2.040  0.00  0.00    -0.311 OA
ATOM     91  O2  GCD d 611      27.124  20.770   1.204  0.00  0.00    -0.388 OA
ATOM     92  C3  GCD d 611      27.266  22.081   3.285  0.00  0.00     0.084 C 
ATOM     93  H   GCD d 611      28.934  21.232   2.075  0.00  0.00     0.095 H 
ATOM     94  H   GCD d 611      27.212  23.693   4.908  0.00  0.00     0.085 H 
ATOM     95  H   GCD d 611      27.128  23.395   0.989  0.00  0.00     0.134 H 
ATOM     96  H   GCD d 611      27.030  20.118   3.438  0.00  0.00     0.210 HD
ATOM     97  H   GCD d 611      26.253  21.175   1.066  0.00  0.00     0.210 HD
ATOM     98  H   GCD d 611      26.267  22.427   3.125  0.00  0.00     0.093 H 
ENDROOT
TORSDOF 25
ENDMDL
MODEL 55
REMARK VINA RESULT:      -6.4      3.718     11.648
REMARK  0 active torsions:
REMARK  status: ('A' for Active; 'I' for Inactive)
REMARK       I    between atoms: O3_1  and  C3_6 
REMARK       I    between atoms: O3_3  and  C3_16 
REMARK       I    between atoms: O3_3  and  C1_32 
REMARK       I    between atoms: C8_5  and  C7_53 
REMARK       I    between atoms: C6_7  and  C5_47 
REMARK       I    between atoms: C6_7  and  O6_29 
REMARK       I    between atoms: O4_8  and  C4_45 
REMARK       I    between atoms: O4_8  and  C1_39 
REMARK       I    between atoms: N_10  and  C2_35 
REMARK       I    between atoms: N_10  and  C7_17 
REMARK       I    between atoms: C5_12  and  C6_42 
REMARK       I    between atoms: C1_14  and  O3_57 
REMARK       I    between atoms: C6_15  and  C5_20 
REMARK       I    between atoms: C7_17  and  C8_54 
REMARK       I    between atoms: O6_18  and  C6_42 
REMARK       I    between atoms: S_19  and  O4_46 
REMARK       I    between atoms: C4_22  and  O4_50 
REMARK       I    between atoms: C2_23  and  O2_51 
REMARK       I    between atoms: S_26  and  O4_50 
REMARK       I    between atoms: N_27  and  C2_56 
REMARK       I    between atoms: N_27  and  C7_53 
REMARK       I    between atoms: C5_31  and  C6_55 
REMARK       I    between atoms: C1_33  and  O1_48 
REMARK       I    between atoms: C4_34  and  O4_46 
REMARK       I    between atoms: C3_40  and  O3_57 
REMARK       I    between atoms: C2_41  and  O2_60 
REMARK       I    between atoms: O3_43  and  C3_52 
ROOT
ATOM      1  O3  BDP d 609      29.183  26.443  -7.583  0.00  0.00    -0.390 OA
ATOM      2  C3  BDP d 609      27.921  26.758  -8.157  0.00  0.00     0.092 C 
ATOM      3  O4  BDP d 609      26.782  25.352  -6.599  0.00  0.00    -0.348 OA
ATOM      4  C1  BDP d 609      26.564  28.580  -9.218  0.00  0.00     0.160 C 
ATOM      5  C5  BDP d 609      25.513  27.147  -7.610  0.00  0.00     0.152 C 
ATOM      6  O5  BDP d 609      25.625  28.486  -8.126  0.00  0.00    -0.340 OA
ATOM      7  O6B BDP d 609      24.591  27.915  -5.559  0.00  0.00    -0.646 OA
ATOM      8  C2  BDP d 609      27.967  28.153  -8.765  0.00  0.00     0.110 C 
ATOM      9  C4  BDP d 609      26.866  26.699  -7.069  0.00  0.00     0.103 C 
ATOM     10  C6  BDP d 609      24.432  27.166  -6.545  0.00  0.00     0.206 C 
ATOM     11  O6A BDP d 609      23.459  26.400  -6.719  0.00  0.00    -0.646 OA
ATOM     12  O2  BDP d 609      28.839  28.152  -9.885  0.00  0.00    -0.388 OA
ATOM     13  H   BDP d 609      29.868  26.476  -8.269  0.00  0.00     0.210 HD
ATOM     14  H   BDP d 609      27.684  26.056  -8.930  0.00  0.00     0.091 H 
ATOM     15  H   BDP d 609      26.251  27.933 -10.010  0.00  0.00     0.133 H 
ATOM     16  H   BDP d 609      25.239  26.442  -8.366  0.00  0.00     0.104 H 
ATOM     17  H   BDP d 609      28.321  28.841  -8.026  0.00  0.00     0.094 H 
ATOM     18  H   BDP d 609      27.136  27.356  -6.269  0.00  0.00     0.092 H 
ATOM     19  H   BDP d 609      28.511  27.526 -10.549  0.00  0.00     0.210 HD
ATOM     20  O7  ASG d 610      25.673  21.791  -6.660  0.00  0.00    -0.274 OA
ATOM     21  O3  ASG d 610      26.352  22.114  -3.100  0.00  0.00    -0.348 OA
ATOM     22  OSB ASG d 610      29.181  21.297  -1.887  0.00  0.00    -0.572 OA
ATOM     23  OSA ASG d 610      30.939  22.928  -2.116  0.00  0.00    -0.572 OA
ATOM     24  N   ASG d 610      25.094  23.478  -5.280  0.00  0.00    -0.349 N 
ATOM     25  C5  ASG d 610      28.292  25.342  -3.345  0.00  0.00     0.090 C 
ATOM     26  C3  ASG d 610      26.653  23.489  -3.410  0.00  0.00     0.094 C 
ATOM     27  C7  ASG d 610      24.819  22.546  -6.187  0.00  0.00     0.214 C 
ATOM     28  O6  ASG d 610      29.700  27.304  -3.106  0.00  0.00    -0.398 OA
ATOM     29  O5  ASG d 610      28.143  25.513  -4.769  0.00  0.00    -0.349 OA
ATOM     30  C4  ASG d 610      28.089  23.865  -2.995  0.00  0.00     0.114 C 
ATOM     31  S   ASG d 610      29.987  22.078  -2.848  0.00  0.00     0.252 S 
ATOM     32  C2  ASG d 610      26.469  23.738  -4.900  0.00  0.00     0.087 C 
ATOM     33  C1  ASG d 610      26.819  25.185  -5.229  0.00  0.00     0.154 C 
ATOM     34  C6  ASG d 610      29.654  25.890  -2.964  0.00  0.00     0.043 C 
ATOM     35  OSC ASG d 610      30.737  21.182  -3.749  0.00  0.00    -0.572 OA
ATOM     36  O4  ASG d 610      29.051  23.059  -3.711  0.00  0.00    -0.246 OA
ATOM     37  C8  ASG d 610      23.367  22.429  -6.638  0.00  0.00    -0.003 C 
ATOM     38  H   ASG d 610      24.364  23.992  -4.865  0.00  0.00     0.163 HD
ATOM     39  H   ASG d 610      27.557  25.879  -2.783  0.00  0.00     0.090 H 
ATOM     40  H   ASG d 610      25.977  24.104  -2.854  0.00  0.00     0.091 H 
ATOM     41  H   ASG d 610      30.580  27.626  -2.856  0.00  0.00     0.209 HD
ATOM     42  H   ASG d 610      28.229  23.693  -1.948  0.00  0.00     0.093 H 
ATOM     43  H   ASG d 610      27.117  23.081  -5.443  0.00  0.00     0.084 H 
ATOM     44  H   ASG d 610      26.111  25.824  -4.743  0.00  0.00     0.132 H 
ATOM     45  H   ASG d 610      30.396  25.452  -3.597  0.00  0.00     0.078 H 
ATOM     46  H   ASG d 610      29.840  25.648  -1.939  0.00  0.00     0.078 H 
ATOM     47  H   ASG d 610      23.280  21.648  -7.364  0.00  0.00     0.040 H 
ATOM     48  H   ASG d 610      23.053  23.356  -7.071  0.00  0.00     0.040 H 
ATOM     49  H   ASG d 610      22.749  22.203  -5.795  0.00  0.00     0.040 H 
ATOM     50  C8  ASG d 608      29.413  29.842 -13.036  0.00  0.00    -0.003 C 
ATOM     51  C6  ASG d 608      22.251  32.228 -10.156  0.00  0.00     0.043 C 
ATOM     52  O7  ASG d 608      28.898  31.553 -11.461  0.00  0.00    -0.274 OA
ATOM     53  S   ASG d 608      25.122  32.289  -7.615  0.00  0.00     0.252 S 
ATOM     54  OSC ASG d 608      26.510  32.027  -7.184  0.00  0.00    -0.572 OA
ATOM     55  N   ASG d 608      27.146  30.492 -12.412  0.00  0.00    -0.349 N 
ATOM     56  O6  ASG d 608      21.424  31.394  -9.349  0.00  0.00    -0.398 OA
ATOM     57  O5  ASG d 608      23.960  32.322 -11.815  0.00  0.00    -0.349 OA
ATOM     58  C1  ASG d 608      25.034  31.720 -12.565  0.00  0.00     0.151 C 
ATOM     59  C4  ASG d 608      24.466  31.015  -9.832  0.00  0.00     0.114 C 
ATOM     60  OSB ASG d 608      24.288  31.218  -7.043  0.00  0.00    -0.572 OA
ATOM     61  C3  ASG d 608      25.576  30.298 -10.569  0.00  0.00     0.094 C 
ATOM     62  O4  ASG d 608      24.926  32.220  -9.195  0.00  0.00    -0.246 OA
ATOM     63  C5  ASG d 608      23.382  31.439 -10.825  0.00  0.00     0.090 C 
ATOM     64  O1  ASG d 608      25.549  32.683 -13.416  0.00  0.00    -0.369 OA
ATOM     65  C7  ASG d 608      28.449  30.702 -12.228  0.00  0.00     0.214 C 
ATOM     66  C2  ASG d 608      26.157  31.221 -11.634  0.00  0.00     0.087 C 
ATOM     67  O3  ASG d 608      26.605  29.894  -9.646  0.00  0.00    -0.348 OA
ATOM     68  OSA ASG d 608      24.587  33.605  -7.210  0.00  0.00    -0.572 OA
ATOM     69  H   ASG d 608      30.420  30.111 -12.793  0.00  0.00     0.040 H 
ATOM     70  H   ASG d 608      29.243  30.001 -14.080  0.00  0.00     0.040 H 
ATOM     71  H   ASG d 608      29.254  28.811 -12.801  0.00  0.00     0.040 H 
ATOM     72  H   ASG d 608      21.649  32.680 -10.916  0.00  0.00     0.078 H 
ATOM     73  H   ASG d 608      22.693  32.968  -9.521  0.00  0.00     0.078 H 
ATOM     74  H   ASG d 608      26.850  29.836 -13.083  0.00  0.00     0.163 HD
ATOM     75  H   ASG d 608      21.011  30.715  -9.904  0.00  0.00     0.209 HD
ATOM     76  H   ASG d 608      24.655  30.879 -13.108  0.00  0.00     0.132 H 
ATOM     77  H   ASG d 608      24.099  30.334  -9.093  0.00  0.00     0.093 H 
ATOM     78  H   ASG d 608      25.179  29.423 -11.040  0.00  0.00     0.091 H 
ATOM     79  H   ASG d 608      22.990  30.539 -11.251  0.00  0.00     0.090 H 
ATOM     80  H   ASG d 608      25.884  33.429 -12.894  0.00  0.00     0.212 HD
ATOM     81  H   ASG d 608      26.618  32.063 -11.161  0.00  0.00     0.084 H 
ATOM     82  O6B GCD d 611      26.026  23.631   1.994  0.00  0.00    -0.642 OA
ATOM     83  C6  GCD d 611      26.439  22.463   1.622  0.00  0.00     0.233 C 
ATOM     84  C5  GCD d 611      25.691  21.792   0.497  0.00  0.00     0.147 C 
ATOM     85  C2  GCD d 611      24.820  20.611  -2.096  0.00  0.00     0.111 C 
ATOM     86  O6A GCD d 611      27.460  21.768   2.002  0.00  0.00    -0.642 OA
ATOM     87  C4  GCD d 611      24.495  21.153   0.553  0.00  0.00    -0.034 C 
ATOM     88  C1  GCD d 611      25.482  21.951  -2.038  0.00  0.00     0.165 C 
ATOM     89  O3  GCD d 611      23.412  19.207  -0.813  0.00  0.00    -0.389 OA
ATOM     90  O5  GCD d 611      26.368  21.883  -0.813  0.00  0.00    -0.311 OA
ATOM     91  O2  GCD d 611      23.934  20.539  -3.252  0.00  0.00    -0.388 OA
ATOM     92  C3  GCD d 611      23.944  20.540  -0.788  0.00  0.00     0.084 C 
ATOM     93  H   GCD d 611      25.534  19.818  -2.171  0.00  0.00     0.095 H 
ATOM     94  H   GCD d 611      23.969  21.073   1.437  0.00  0.00     0.085 H 
ATOM     95  H   GCD d 611      24.749  22.731  -2.042  0.00  0.00     0.134 H 
ATOM     96  H   GCD d 611      23.120  18.992  -1.712  0.00  0.00     0.210 HD
ATOM     97  H   GCD d 611      23.278  21.251  -3.201  0.00  0.00     0.210 HD
ATOM     98  H   GCD d 611      23.157  21.265  -0.794  0.00  0.00     0.093 H 
ENDROOT
TORSDOF 25
ENDMDL
MODEL 56
REMARK VINA RESULT:      -6.4      2.517     11.841
REMARK  0 active torsions:
REMARK  status: ('A' for Active; 'I' for Inactive)
REMARK       I    between atoms: O3_1  and  C3_6 
REMARK       I    between atoms: O3_3  and  C3_16 
REMARK       I    between atoms: O3_3  and  C1_32 
REMARK       I    between atoms: C8_5  and  C7_53 
REMARK       I    between atoms: C6_7  and  C5_47 
REMARK       I    between atoms: C6_7  and  O6_29 
REMARK       I    between atoms: O4_8  and  C4_45 
REMARK       I    between atoms: O4_8  and  C1_39 
REMARK       I    between atoms: N_10  and  C2_35 
REMARK       I    between atoms: N_10  and  C7_17 
REMARK       I    between atoms: C5_12  and  C6_42 
REMARK       I    between atoms: C1_14  and  O3_57 
REMARK       I    between atoms: C6_15  and  C5_20 
REMARK       I    between atoms: C7_17  and  C8_54 
REMARK       I    between atoms: O6_18  and  C6_42 
REMARK       I    between atoms: S_19  and  O4_46 
REMARK       I    between atoms: C4_22  and  O4_50 
REMARK       I    between atoms: C2_23  and  O2_51 
REMARK       I    between atoms: S_26  and  O4_50 
REMARK       I    between atoms: N_27  and  C2_56 
REMARK       I    between atoms: N_27  and  C7_53 
REMARK       I    between atoms: C5_31  and  C6_55 
REMARK       I    between atoms: C1_33  and  O1_48 
REMARK       I    between atoms: C4_34  and  O4_46 
REMARK       I    between atoms: C3_40  and  O3_57 
REMARK       I    between atoms: C2_41  and  O2_60 
REMARK       I    between atoms: O3_43  and  C3_52 
ROOT
ATOM      1  O3  BDP d 609      24.182  26.469  -5.880  0.00  0.00    -0.390 OA
ATOM      2  C3  BDP d 609      25.507  26.951  -5.694  0.00  0.00     0.092 C 
ATOM      3  O4  BDP d 609      25.869  25.457  -3.867  0.00  0.00    -0.348 OA
ATOM      4  C1  BDP d 609      27.553  27.789  -6.876  0.00  0.00     0.160 C 
ATOM      5  C5  BDP d 609      27.820  26.252  -5.056  0.00  0.00     0.152 C 
ATOM      6  O5  BDP d 609      28.289  26.662  -6.354  0.00  0.00    -0.340 OA
ATOM      7  O6B BDP d 609      28.806  24.101  -5.277  0.00  0.00    -0.646 OA
ATOM      8  C2  BDP d 609      26.065  27.444  -7.022  0.00  0.00     0.110 C 
ATOM      9  C4  BDP d 609      26.363  25.819  -5.159  0.00  0.00     0.103 C 
ATOM     10  C6  BDP d 609      28.733  25.136  -4.582  0.00  0.00     0.206 C 
ATOM     11  O6A BDP d 609      29.334  25.322  -3.502  0.00  0.00    -0.646 OA
ATOM     12  O2  BDP d 609      25.354  28.603  -7.432  0.00  0.00    -0.388 OA
ATOM     13  H   BDP d 609      23.622  27.184  -6.223  0.00  0.00     0.210 HD
ATOM     14  H   BDP d 609      25.507  27.765  -5.000  0.00  0.00     0.091 H 
ATOM     15  H   BDP d 609      27.646  28.614  -6.202  0.00  0.00     0.133 H 
ATOM     16  H   BDP d 609      27.853  27.049  -4.343  0.00  0.00     0.104 H 
ATOM     17  H   BDP d 609      25.954  26.670  -7.753  0.00  0.00     0.094 H 
ATOM     18  H   BDP d 609      26.312  24.983  -5.824  0.00  0.00     0.092 H 
ATOM     19  H   BDP d 609      25.459  29.299  -6.764  0.00  0.00     0.210 HD
ATOM     20  O7  ASG d 610      25.479  25.752  -0.170  0.00  0.00    -0.274 OA
ATOM     21  O3  ASG d 610      24.705  22.217  -0.542  0.00  0.00    -0.348 OA
ATOM     22  OSB ASG d 610      21.697  21.220  -0.861  0.00  0.00    -0.572 OA
ATOM     23  OSA ASG d 610      20.752  21.403  -3.069  0.00  0.00    -0.572 OA
ATOM     24  N   ASG d 610      26.567  24.211  -1.405  0.00  0.00    -0.349 N 
ATOM     25  C5  ASG d 610      24.227  22.296  -4.285  0.00  0.00     0.090 C 
ATOM     26  C3  ASG d 610      24.998  22.428  -1.937  0.00  0.00     0.094 C 
ATOM     27  C7  ASG d 610      26.522  25.177  -0.492  0.00  0.00     0.214 C 
ATOM     28  O6  ASG d 610      23.696  21.968  -6.630  0.00  0.00    -0.398 OA
ATOM     29  O5  ASG d 610      24.543  23.691  -4.460  0.00  0.00    -0.349 OA
ATOM     30  C4  ASG d 610      23.800  22.057  -2.833  0.00  0.00     0.114 C 
ATOM     31  S   ASG d 610      21.345  22.153  -1.950  0.00  0.00     0.252 S 
ATOM     32  C2  ASG d 610      25.382  23.882  -2.172  0.00  0.00     0.087 C 
ATOM     33  C1  ASG d 610      25.661  24.109  -3.654  0.00  0.00     0.154 C 
ATOM     34  C6  ASG d 610      23.168  21.940  -5.311  0.00  0.00     0.043 C 
ATOM     35  OSC ASG d 610      20.375  23.161  -1.480  0.00  0.00    -0.572 OA
ATOM     36  O4  ASG d 610      22.658  22.884  -2.520  0.00  0.00    -0.246 OA
ATOM     37  C8  ASG d 610      27.840  25.561   0.171  0.00  0.00    -0.003 C 
ATOM     38  H   ASG d 610      27.406  23.720  -1.560  0.00  0.00     0.163 HD
ATOM     39  H   ASG d 610      25.067  21.654  -4.451  0.00  0.00     0.090 H 
ATOM     40  H   ASG d 610      25.816  21.791  -2.198  0.00  0.00     0.091 H 
ATOM     41  H   ASG d 610      22.999  21.737  -7.263  0.00  0.00     0.209 HD
ATOM     42  H   ASG d 610      23.521  21.037  -2.675  0.00  0.00     0.093 H 
ATOM     43  H   ASG d 610      24.573  24.509  -1.861  0.00  0.00     0.084 H 
ATOM     44  H   ASG d 610      26.523  23.537  -3.929  0.00  0.00     0.132 H 
ATOM     45  H   ASG d 610      22.365  22.644  -5.242  0.00  0.00     0.078 H 
ATOM     46  H   ASG d 610      22.820  20.949  -5.107  0.00  0.00     0.078 H 
ATOM     47  H   ASG d 610      27.668  26.344   0.881  0.00  0.00     0.040 H 
ATOM     48  H   ASG d 610      28.529  25.901  -0.574  0.00  0.00     0.040 H 
ATOM     49  H   ASG d 610      28.249  24.710   0.672  0.00  0.00     0.040 H 
ATOM     50  C8  ASG d 608      25.747  31.630  -9.381  0.00  0.00    -0.003 C 
ATOM     51  C6  ASG d 608      33.018  28.206  -8.537  0.00  0.00     0.043 C 
ATOM     52  O7  ASG d 608      26.771  29.896 -10.653  0.00  0.00    -0.274 OA
ATOM     53  S   ASG d 608      30.213  25.817  -9.604  0.00  0.00     0.252 S 
ATOM     54  OSC ASG d 608      28.806  25.480  -9.896  0.00  0.00    -0.572 OA
ATOM     55  N   ASG d 608      28.030  30.842  -9.033  0.00  0.00    -0.349 N 
ATOM     56  O6  ASG d 608      33.380  27.429  -7.399  0.00  0.00    -0.398 OA
ATOM     57  O5  ASG d 608      31.621  29.936  -9.398  0.00  0.00    -0.349 OA
ATOM     58  C1  ASG d 608      30.460  30.786  -9.319  0.00  0.00     0.151 C 
ATOM     59  C4  ASG d 608      30.485  28.095  -8.297  0.00  0.00     0.114 C 
ATOM     60  OSB ASG d 608      30.508  25.294  -8.258  0.00  0.00    -0.572 OA
ATOM     61  C3  ASG d 608      29.244  28.944  -8.126  0.00  0.00     0.094 C 
ATOM     62  O4  ASG d 608      30.490  27.386  -9.549  0.00  0.00    -0.246 OA
ATOM     63  C5  ASG d 608      31.723  28.994  -8.305  0.00  0.00     0.090 C 
ATOM     64  O1  ASG d 608      30.437  31.580 -10.453  0.00  0.00    -0.369 OA
ATOM     65  C7  ASG d 608      26.906  30.707  -9.737  0.00  0.00     0.214 C 
ATOM     66  C2  ASG d 608      29.162  29.957  -9.261  0.00  0.00     0.087 C 
ATOM     67  O3  ASG d 608      28.070  28.110  -8.118  0.00  0.00    -0.348 OA
ATOM     68  OSA ASG d 608      31.192  25.280 -10.571  0.00  0.00    -0.572 OA
ATOM     69  H   ASG d 608      24.914  31.418 -10.016  0.00  0.00     0.040 H 
ATOM     70  H   ASG d 608      26.049  32.648  -9.514  0.00  0.00     0.040 H 
ATOM     71  H   ASG d 608      25.467  31.472  -8.361  0.00  0.00     0.040 H 
ATOM     72  H   ASG d 608      33.807  28.895  -8.752  0.00  0.00     0.078 H 
ATOM     73  H   ASG d 608      32.855  27.537  -9.357  0.00  0.00     0.078 H 
ATOM     74  H   ASG d 608      28.094  31.548  -8.351  0.00  0.00     0.163 HD
ATOM     75  H   ASG d 608      33.533  28.016  -6.643  0.00  0.00     0.209 HD
ATOM     76  H   ASG d 608      30.517  31.376  -8.428  0.00  0.00     0.132 H 
ATOM     77  H   ASG d 608      30.493  27.397  -7.486  0.00  0.00     0.093 H 
ATOM     78  H   ASG d 608      29.298  29.463  -7.192  0.00  0.00     0.091 H 
ATOM     79  H   ASG d 608      31.759  29.472  -7.348  0.00  0.00     0.090 H 
ATOM     80  H   ASG d 608      30.385  31.017 -11.240  0.00  0.00     0.212 HD
ATOM     81  H   ASG d 608      29.036  29.441 -10.190  0.00  0.00     0.084 H 
ATOM     82  O6B GCD d 611      25.201  17.006  -1.521  0.00  0.00    -0.642 OA
ATOM     83  C6  GCD d 611      24.390  17.493  -0.637  0.00  0.00     0.233 C 
ATOM     84  C5  GCD d 611      24.898  18.629   0.214  0.00  0.00     0.147 C 
ATOM     85  C2  GCD d 611      25.433  21.263   1.501  0.00  0.00     0.111 C 
ATOM     86  O6A GCD d 611      23.151  17.223  -0.390  0.00  0.00    -0.642 OA
ATOM     87  C4  GCD d 611      25.735  18.565   1.281  0.00  0.00    -0.034 C 
ATOM     88  C1  GCD d 611      25.352  21.130   0.014  0.00  0.00     0.165 C 
ATOM     89  O3  GCD d 611      26.063  20.029   3.420  0.00  0.00    -0.389 OA
ATOM     90  O5  GCD d 611      24.418  19.960  -0.212  0.00  0.00    -0.311 OA
ATOM     91  O2  GCD d 611      26.306  22.374   1.859  0.00  0.00    -0.388 OA
ATOM     92  C3  GCD d 611      26.103  19.922   1.989  0.00  0.00     0.084 C 
ATOM     93  H   GCD d 611      24.471  21.439   1.937  0.00  0.00     0.095 H 
ATOM     94  H   GCD d 611      26.115  17.666   1.613  0.00  0.00     0.085 H 
ATOM     95  H   GCD d 611      26.331  21.032  -0.406  0.00  0.00     0.134 H 
ATOM     96  H   GCD d 611      26.317  20.927   3.684  0.00  0.00     0.210 HD
ATOM     97  H   GCD d 611      27.184  22.232   1.472  0.00  0.00     0.210 HD
ATOM     98  H   GCD d 611      27.110  19.829   1.641  0.00  0.00     0.093 H 
ENDROOT
TORSDOF 25
ENDMDL
MODEL 57
REMARK VINA RESULT:      -6.2      5.411     11.242
REMARK  0 active torsions:
REMARK  status: ('A' for Active; 'I' for Inactive)
REMARK       I    between atoms: O3_1  and  C3_6 
REMARK       I    between atoms: O3_3  and  C3_16 
REMARK       I    between atoms: O3_3  and  C1_32 
REMARK       I    between atoms: C8_5  and  C7_53 
REMARK       I    between atoms: C6_7  and  C5_47 
REMARK       I    between atoms: C6_7  and  O6_29 
REMARK       I    between atoms: O4_8  and  C4_45 
REMARK       I    between atoms: O4_8  and  C1_39 
REMARK       I    between atoms: N_10  and  C2_35 
REMARK       I    between atoms: N_10  and  C7_17 
REMARK       I    between atoms: C5_12  and  C6_42 
REMARK       I    between atoms: C1_14  and  O3_57 
REMARK       I    between atoms: C6_15  and  C5_20 
REMARK       I    between atoms: C7_17  and  C8_54 
REMARK       I    between atoms: O6_18  and  C6_42 
REMARK       I    between atoms: S_19  and  O4_46 
REMARK       I    between atoms: C4_22  and  O4_50 
REMARK       I    between atoms: C2_23  and  O2_51 
REMARK       I    between atoms: S_26  and  O4_50 
REMARK       I    between atoms: N_27  and  C2_56 
REMARK       I    between atoms: N_27  and  C7_53 
REMARK       I    between atoms: C5_31  and  C6_55 
REMARK       I    between atoms: C1_33  and  O1_48 
REMARK       I    between atoms: C4_34  and  O4_46 
REMARK       I    between atoms: C3_40  and  O3_57 
REMARK       I    between atoms: C2_41  and  O2_60 
REMARK       I    between atoms: O3_43  and  C3_52 
ROOT
ATOM      1  O3  BDP d 609      33.798  24.219  -3.001  0.00  0.00    -0.390 OA
ATOM      2  C3  BDP d 609      34.548  25.129  -3.795  0.00  0.00     0.092 C 
ATOM      3  O4  BDP d 609      34.035  23.921  -5.789  0.00  0.00    -0.348 OA
ATOM      4  C1  BDP d 609      35.185  27.538  -4.080  0.00  0.00     0.160 C 
ATOM      5  C5  BDP d 609      34.612  26.259  -6.024  0.00  0.00     0.152 C 
ATOM      6  O5  BDP d 609      34.530  27.536  -5.365  0.00  0.00    -0.340 OA
ATOM      7  O6B BDP d 609      32.783  26.771  -7.451  0.00  0.00    -0.646 OA
ATOM      8  C2  BDP d 609      34.544  26.504  -3.143  0.00  0.00     0.110 C 
ATOM      9  C4  BDP d 609      33.916  25.204  -5.172  0.00  0.00     0.103 C 
ATOM     10  C6  BDP d 609      33.979  26.419  -7.394  0.00  0.00     0.206 C 
ATOM     11  O6A BDP d 609      34.701  26.157  -8.381  0.00  0.00    -0.646 OA
ATOM     12  O2  BDP d 609      35.279  26.454  -1.929  0.00  0.00    -0.388 OA
ATOM     13  H   BDP d 609      34.193  24.160  -2.116  0.00  0.00     0.210 HD
ATOM     14  H   BDP d 609      35.561  24.794  -3.879  0.00  0.00     0.091 H 
ATOM     15  H   BDP d 609      36.216  27.285  -4.208  0.00  0.00     0.133 H 
ATOM     16  H   BDP d 609      35.623  25.932  -6.148  0.00  0.00     0.104 H 
ATOM     17  H   BDP d 609      33.532  26.791  -2.945  0.00  0.00     0.094 H 
ATOM     18  H   BDP d 609      32.887  25.480  -5.081  0.00  0.00     0.092 H 
ATOM     19  H   BDP d 609      36.195  26.194  -2.117  0.00  0.00     0.210 HD
ATOM     20  O7  ASG d 610      35.750  21.202  -7.680  0.00  0.00    -0.274 OA
ATOM     21  O3  ASG d 610      32.299  20.320  -8.424  0.00  0.00    -0.348 OA
ATOM     22  OSB ASG d 610      30.726  18.200  -6.643  0.00  0.00    -0.572 OA
ATOM     23  OSA ASG d 610      29.806  19.032  -4.577  0.00  0.00    -0.572 OA
ATOM     24  N   ASG d 610      34.066  22.569  -8.294  0.00  0.00    -0.349 N 
ATOM     25  C5  ASG d 610      30.740  22.504  -5.769  0.00  0.00     0.090 C 
ATOM     26  C3  ASG d 610      31.967  21.504  -7.671  0.00  0.00     0.094 C 
ATOM     27  C7  ASG d 610      35.295  22.079  -8.419  0.00  0.00     0.214 C 
ATOM     28  O6  ASG d 610      29.384  23.644  -4.111  0.00  0.00    -0.398 OA
ATOM     29  O5  ASG d 610      31.971  23.075  -5.285  0.00  0.00    -0.349 OA
ATOM     30  C4  ASG d 610      31.047  21.181  -6.479  0.00  0.00     0.114 C 
ATOM     31  S   ASG d 610      31.045  18.829  -5.344  0.00  0.00     0.252 S 
ATOM     32  C2  ASG d 610      33.238  22.175  -7.171  0.00  0.00     0.087 C 
ATOM     33  C1  ASG d 610      32.881  23.410  -6.350  0.00  0.00     0.154 C 
ATOM     34  C6  ASG d 610      29.805  22.371  -4.582  0.00  0.00     0.043 C 
ATOM     35  OSC ASG d 610      31.961  17.976  -4.563  0.00  0.00    -0.572 OA
ATOM     36  O4  ASG d 610      31.704  20.279  -5.561  0.00  0.00    -0.246 OA
ATOM     37  C8  ASG d 610      36.154  22.648  -9.544  0.00  0.00    -0.003 C 
ATOM     38  H   ASG d 610      33.717  23.200  -8.965  0.00  0.00     0.163 HD
ATOM     39  H   ASG d 610      30.253  23.119  -6.497  0.00  0.00     0.090 H 
ATOM     40  H   ASG d 610      31.440  22.168  -8.324  0.00  0.00     0.091 H 
ATOM     41  H   ASG d 610      28.789  23.528  -3.354  0.00  0.00     0.209 HD
ATOM     42  H   ASG d 610      30.150  20.708  -6.819  0.00  0.00     0.093 H 
ATOM     43  H   ASG d 610      33.777  21.482  -6.559  0.00  0.00     0.084 H 
ATOM     44  H   ASG d 610      32.416  24.124  -6.996  0.00  0.00     0.132 H 
ATOM     45  H   ASG d 610      30.314  21.858  -3.793  0.00  0.00     0.078 H 
ATOM     46  H   ASG d 610      28.940  21.822  -4.893  0.00  0.00     0.078 H 
ATOM     47  H   ASG d 610      37.113  22.173  -9.536  0.00  0.00     0.040 H 
ATOM     48  H   ASG d 610      36.276  23.700  -9.401  0.00  0.00     0.040 H 
ATOM     49  H   ASG d 610      35.675  22.468 -10.483  0.00  0.00     0.040 H 
ATOM     50  C8  ASG d 608      37.250  28.537   0.282  0.00  0.00    -0.003 C 
ATOM     51  C6  ASG d 608      35.876  32.670  -6.524  0.00  0.00     0.043 C 
ATOM     52  O7  ASG d 608      35.366  29.852  -0.347  0.00  0.00    -0.274 OA
ATOM     53  S   ASG d 608      32.790  30.974  -5.005  0.00  0.00     0.252 S 
ATOM     54  OSC ASG d 608      32.110  30.099  -4.029  0.00  0.00    -0.572 OA
ATOM     55  N   ASG d 608      37.109  29.825  -1.785  0.00  0.00    -0.349 N 
ATOM     56  O6  ASG d 608      35.718  32.041  -7.793  0.00  0.00    -0.398 OA
ATOM     57  O5  ASG d 608      36.809  32.519  -4.336  0.00  0.00    -0.349 OA
ATOM     58  C1  ASG d 608      37.388  31.765  -3.252  0.00  0.00     0.151 C 
ATOM     59  C4  ASG d 608      35.411  30.660  -5.030  0.00  0.00     0.114 C 
ATOM     60  OSB ASG d 608      32.931  30.198  -6.249  0.00  0.00    -0.572 OA
ATOM     61  C3  ASG d 608      36.011  29.786  -3.951  0.00  0.00     0.094 C 
ATOM     62  O4  ASG d 608      34.263  31.391  -4.563  0.00  0.00    -0.246 OA
ATOM     63  C5  ASG d 608      36.437  31.705  -5.472  0.00  0.00     0.090 C 
ATOM     64  O1  ASG d 608      37.625  32.638  -2.205  0.00  0.00    -0.369 OA
ATOM     65  C7  ASG d 608      36.492  29.465  -0.659  0.00  0.00     0.214 C 
ATOM     66  C2  ASG d 608      36.433  30.653  -2.772  0.00  0.00     0.087 C 
ATOM     67  O3  ASG d 608      35.055  28.797  -3.525  0.00  0.00    -0.348 OA
ATOM     68  OSA ASG d 608      32.092  32.245  -5.288  0.00  0.00    -0.572 OA
ATOM     69  H   ASG d 608      36.646  28.328   1.140  0.00  0.00     0.040 H 
ATOM     70  H   ASG d 608      38.159  29.010   0.592  0.00  0.00     0.040 H 
ATOM     71  H   ASG d 608      37.478  27.624  -0.224  0.00  0.00     0.040 H 
ATOM     72  H   ASG d 608      36.548  33.496  -6.629  0.00  0.00     0.078 H 
ATOM     73  H   ASG d 608      34.911  32.995  -6.194  0.00  0.00     0.078 H 
ATOM     74  H   ASG d 608      38.032  29.528  -1.950  0.00  0.00     0.163 HD
ATOM     75  H   ASG d 608      36.581  31.738  -8.113  0.00  0.00     0.209 HD
ATOM     76  H   ASG d 608      38.292  31.302  -3.590  0.00  0.00     0.132 H 
ATOM     77  H   ASG d 608      35.123  30.008  -5.829  0.00  0.00     0.093 H 
ATOM     78  H   ASG d 608      36.870  29.281  -4.343  0.00  0.00     0.091 H 
ATOM     79  H   ASG d 608      37.264  31.166  -5.884  0.00  0.00     0.090 H 
ATOM     80  H   ASG d 608      36.788  33.039  -1.923  0.00  0.00     0.212 HD
ATOM     81  H   ASG d 608      35.567  31.103  -2.334  0.00  0.00     0.084 H 
ATOM     82  O6B GCD d 611      27.337  20.494 -10.346  0.00  0.00    -0.642 OA
ATOM     83  C6  GCD d 611      27.986  19.393 -10.144  0.00  0.00     0.233 C 
ATOM     84  C5  GCD d 611      29.444  19.372 -10.527  0.00  0.00     0.147 C 
ATOM     85  C2  GCD d 611      32.423  19.319 -10.567  0.00  0.00     0.111 C 
ATOM     86  O6A GCD d 611      27.620  18.288  -9.584  0.00  0.00    -0.642 OA
ATOM     87  C4  GCD d 611      29.981  19.249 -11.769  0.00  0.00    -0.034 C 
ATOM     88  C1  GCD d 611      31.677  20.238  -9.655  0.00  0.00     0.165 C 
ATOM     89  O3  GCD d 611      32.229  18.285 -12.687  0.00  0.00    -0.389 OA
ATOM     90  O5  GCD d 611      30.369  19.527  -9.386  0.00  0.00    -0.311 OA
ATOM     91  O2  GCD d 611      33.723  19.889 -10.902  0.00  0.00    -0.388 OA
ATOM     92  C3  GCD d 611      31.551  19.258 -11.878  0.00  0.00     0.084 C 
ATOM     93  H   GCD d 611      32.583  18.359 -10.120  0.00  0.00     0.095 H 
ATOM     94  H   GCD d 611      29.384  19.155 -12.605  0.00  0.00     0.085 H 
ATOM     95  H   GCD d 611      31.596  21.213 -10.090  0.00  0.00     0.134 H 
ATOM     96  H   GCD d 611      33.186  18.436 -12.641  0.00  0.00     0.210 HD
ATOM     97  H   GCD d 611      33.598  20.760 -11.309  0.00  0.00     0.210 HD
ATOM     98  H   GCD d 611      31.509  20.205 -12.375  0.00  0.00     0.093 H 
ENDROOT
TORSDOF 25
ENDMDL
MODEL 58
REMARK VINA RESULT:      -6.2      4.299      7.219
REMARK  0 active torsions:
REMARK  status: ('A' for Active; 'I' for Inactive)
REMARK       I    between atoms: O3_1  and  C3_6 
REMARK       I    between atoms: O3_3  and  C3_16 
REMARK       I    between atoms: O3_3  and  C1_32 
REMARK       I    between atoms: C8_5  and  C7_53 
REMARK       I    between atoms: C6_7  and  C5_47 
REMARK       I    between atoms: C6_7  and  O6_29 
REMARK       I    between atoms: O4_8  and  C4_45 
REMARK       I    between atoms: O4_8  and  C1_39 
REMARK       I    between atoms: N_10  and  C2_35 
REMARK       I    between atoms: N_10  and  C7_17 
REMARK       I    between atoms: C5_12  and  C6_42 
REMARK       I    between atoms: C1_14  and  O3_57 
REMARK       I    between atoms: C6_15  and  C5_20 
REMARK       I    between atoms: C7_17  and  C8_54 
REMARK       I    between atoms: O6_18  and  C6_42 
REMARK       I    between atoms: S_19  and  O4_46 
REMARK       I    between atoms: C4_22  and  O4_50 
REMARK       I    between atoms: C2_23  and  O2_51 
REMARK       I    between atoms: S_26  and  O4_50 
REMARK       I    between atoms: N_27  and  C2_56 
REMARK       I    between atoms: N_27  and  C7_53 
REMARK       I    between atoms: C5_31  and  C6_55 
REMARK       I    between atoms: C1_33  and  O1_48 
REMARK       I    between atoms: C4_34  and  O4_46 
REMARK       I    between atoms: C3_40  and  O3_57 
REMARK       I    between atoms: C2_41  and  O2_60 
REMARK       I    between atoms: O3_43  and  C3_52 
ROOT
ATOM      1  O3  BDP d 609      29.589  23.090  -8.232  0.00  0.00    -0.390 OA
ATOM      2  C3  BDP d 609      28.455  23.111  -7.374  0.00  0.00     0.092 C 
ATOM      3  O4  BDP d 609      29.722  24.095  -5.607  0.00  0.00    -0.348 OA
ATOM      4  C1  BDP d 609      25.971  23.446  -7.290  0.00  0.00     0.160 C 
ATOM      5  C5  BDP d 609      27.327  24.434  -5.578  0.00  0.00     0.152 C 
ATOM      6  O5  BDP d 609      26.177  24.586  -6.430  0.00  0.00    -0.340 OA
ATOM      7  O6B BDP d 609      27.464  26.774  -5.188  0.00  0.00    -0.646 OA
ATOM      8  C2  BDP d 609      27.185  23.231  -8.205  0.00  0.00     0.110 C 
ATOM      9  C4  BDP d 609      28.578  24.298  -6.438  0.00  0.00     0.103 C 
ATOM     10  C6  BDP d 609      27.371  25.645  -4.664  0.00  0.00     0.206 C 
ATOM     11  O6A BDP d 609      27.339  25.421  -3.434  0.00  0.00    -0.646 OA
ATOM     12  O2  BDP d 609      26.998  22.041  -8.957  0.00  0.00    -0.388 OA
ATOM     13  H   BDP d 609      29.523  22.334  -8.837  0.00  0.00     0.210 HD
ATOM     14  H   BDP d 609      28.407  22.205  -6.807  0.00  0.00     0.091 H 
ATOM     15  H   BDP d 609      25.839  22.570  -6.690  0.00  0.00     0.133 H 
ATOM     16  H   BDP d 609      27.272  23.551  -4.977  0.00  0.00     0.104 H 
ATOM     17  H   BDP d 609      27.279  24.069  -8.863  0.00  0.00     0.094 H 
ATOM     18  H   BDP d 609      28.687  25.196  -7.008  0.00  0.00     0.092 H 
ATOM     19  H   BDP d 609      26.913  21.287  -8.353  0.00  0.00     0.210 HD
ATOM     20  O7  ASG d 610      31.616  22.716  -2.705  0.00  0.00    -0.274 OA
ATOM     21  O3  ASG d 610      33.646  25.664  -3.357  0.00  0.00    -0.348 OA
ATOM     22  OSB ASG d 610      36.224  25.503  -5.220  0.00  0.00    -0.572 OA
ATOM     23  OSA ASG d 610      35.817  25.564  -7.594  0.00  0.00    -0.572 OA
ATOM     24  N   ASG d 610      30.921  24.818  -3.128  0.00  0.00    -0.349 N 
ATOM     25  C5  ASG d 610      32.215  26.397  -6.772  0.00  0.00     0.090 C 
ATOM     26  C3  ASG d 610      32.673  25.952  -4.381  0.00  0.00     0.094 C 
ATOM     27  C7  ASG d 610      30.941  23.703  -2.403  0.00  0.00     0.214 C 
ATOM     28  O6  ASG d 610      31.665  27.104  -9.027  0.00  0.00    -0.398 OA
ATOM     29  O5  ASG d 610      31.255  25.321  -6.780  0.00  0.00    -0.349 OA
ATOM     30  C4  ASG d 610      33.327  26.067  -5.771  0.00  0.00     0.114 C 
ATOM     31  S   ASG d 610      35.552  24.827  -6.348  0.00  0.00     0.252 S 
ATOM     32  C2  ASG d 610      31.607  24.867  -4.404  0.00  0.00     0.087 C 
ATOM     33  C1  ASG d 610      30.597  25.159  -5.509  0.00  0.00     0.154 C 
ATOM     34  C6  ASG d 610      32.696  26.584  -8.198  0.00  0.00     0.043 C 
ATOM     35  OSC ASG d 610      36.042  23.443  -6.495  0.00  0.00    -0.572 OA
ATOM     36  O4  ASG d 610      33.958  24.821  -6.139  0.00  0.00    -0.246 OA
ATOM     37  C8  ASG d 610      30.081  23.683  -1.144  0.00  0.00    -0.003 C 
ATOM     38  H   ASG d 610      30.440  25.611  -2.797  0.00  0.00     0.163 HD
ATOM     39  H   ASG d 610      31.796  27.326  -6.447  0.00  0.00     0.090 H 
ATOM     40  H   ASG d 610      32.225  26.895  -4.148  0.00  0.00     0.091 H 
ATOM     41  H   ASG d 610      32.000  27.213  -9.930  0.00  0.00     0.209 HD
ATOM     42  H   ASG d 610      34.079  26.827  -5.766  0.00  0.00     0.093 H 
ATOM     43  H   ASG d 610      32.077  23.924  -4.590  0.00  0.00     0.084 H 
ATOM     44  H   ASG d 610      30.079  26.063  -5.265  0.00  0.00     0.132 H 
ATOM     45  H   ASG d 610      33.012  25.639  -8.587  0.00  0.00     0.078 H 
ATOM     46  H   ASG d 610      33.508  27.281  -8.191  0.00  0.00     0.078 H 
ATOM     47  H   ASG d 610      30.186  22.737  -0.656  0.00  0.00     0.040 H 
ATOM     48  H   ASG d 610      29.056  23.836  -1.411  0.00  0.00     0.040 H 
ATOM     49  H   ASG d 610      30.397  24.462  -0.484  0.00  0.00     0.040 H 
ATOM     50  C8  ASG d 608      24.400  20.011 -10.455  0.00  0.00    -0.003 C 
ATOM     51  C6  ASG d 608      20.875  25.565  -5.764  0.00  0.00     0.043 C 
ATOM     52  O7  ASG d 608      23.824  22.270 -10.940  0.00  0.00    -0.274 OA
ATOM     53  S   ASG d 608      23.586  26.914  -8.118  0.00  0.00     0.252 S 
ATOM     54  OSC ASG d 608      24.665  26.761  -9.113  0.00  0.00    -0.572 OA
ATOM     55  N   ASG d 608      23.201  21.478  -8.919  0.00  0.00    -0.349 N 
ATOM     56  O6  ASG d 608      21.491  26.093  -4.593  0.00  0.00    -0.398 OA
ATOM     57  O5  ASG d 608      20.733  23.729  -7.278  0.00  0.00    -0.349 OA
ATOM     58  C1  ASG d 608      21.257  22.516  -7.853  0.00  0.00     0.151 C 
ATOM     59  C4  ASG d 608      22.950  24.649  -6.920  0.00  0.00     0.114 C 
ATOM     60  OSB ASG d 608      24.234  27.137  -6.814  0.00  0.00    -0.572 OA
ATOM     61  C3  ASG d 608      23.579  23.383  -7.461  0.00  0.00     0.094 C 
ATOM     62  O4  ASG d 608      22.684  25.609  -7.957  0.00  0.00    -0.246 OA
ATOM     63  C5  ASG d 608      21.601  24.317  -6.281  0.00  0.00     0.090 C 
ATOM     64  O1  ASG d 608      20.379  22.099  -8.839  0.00  0.00    -0.369 OA
ATOM     65  C7  ASG d 608      23.781  21.360 -10.113  0.00  0.00     0.214 C 
ATOM     66  C2  ASG d 608      22.644  22.749  -8.483  0.00  0.00     0.087 C 
ATOM     67  O3  ASG d 608      24.852  23.680  -8.066  0.00  0.00    -0.348 OA
ATOM     68  OSA ASG d 608      22.639  28.013  -8.396  0.00  0.00    -0.572 OA
ATOM     69  H   ASG d 608      24.829  20.053 -11.435  0.00  0.00     0.040 H 
ATOM     70  H   ASG d 608      23.644  19.254 -10.428  0.00  0.00     0.040 H 
ATOM     71  H   ASG d 608      25.163  19.777  -9.743  0.00  0.00     0.040 H 
ATOM     72  H   ASG d 608      19.862  25.306  -5.536  0.00  0.00     0.078 H 
ATOM     73  H   ASG d 608      20.920  26.314  -6.527  0.00  0.00     0.078 H 
ATOM     74  H   ASG d 608      23.149  20.695  -8.325  0.00  0.00     0.163 HD
ATOM     75  H   ASG d 608      21.462  25.431  -3.886  0.00  0.00     0.209 HD
ATOM     76  H   ASG d 608      21.362  21.779  -7.084  0.00  0.00     0.132 H 
ATOM     77  H   ASG d 608      23.645  25.059  -6.216  0.00  0.00     0.093 H 
ATOM     78  H   ASG d 608      23.738  22.697  -6.656  0.00  0.00     0.091 H 
ATOM     79  H   ASG d 608      21.803  23.655  -5.466  0.00  0.00     0.090 H 
ATOM     80  H   ASG d 608      20.307  22.787  -9.519  0.00  0.00     0.212 HD
ATOM     81  H   ASG d 608      22.541  23.404  -9.323  0.00  0.00     0.084 H 
ATOM     82  O6B GCD d 611      35.198  30.738  -3.802  0.00  0.00    -0.642 OA
ATOM     83  C6  GCD d 611      36.002  29.769  -3.504  0.00  0.00     0.233 C 
ATOM     84  C5  GCD d 611      35.498  28.726  -2.538  0.00  0.00     0.147 C 
ATOM     85  C2  GCD d 611      34.492  26.249  -1.223  0.00  0.00     0.111 C 
ATOM     86  O6A GCD d 611      37.177  29.478  -3.954  0.00  0.00    -0.642 OA
ATOM     87  C4  GCD d 611      35.395  28.818  -1.187  0.00  0.00    -0.034 C 
ATOM     88  C1  GCD d 611      33.916  26.727  -2.517  0.00  0.00     0.165 C 
ATOM     89  O3  GCD d 611      35.481  27.079   0.760  0.00  0.00    -0.389 OA
ATOM     90  O5  GCD d 611      35.050  27.475  -3.184  0.00  0.00    -0.311 OA
ATOM     91  O2  GCD d 611      33.491  25.496  -0.476  0.00  0.00    -0.388 OA
ATOM     92  C3  GCD d 611      34.829  27.564  -0.422  0.00  0.00     0.084 C 
ATOM     93  H   GCD d 611      35.342  25.617  -1.376  0.00  0.00     0.095 H 
ATOM     94  H   GCD d 611      35.677  29.673  -0.684  0.00  0.00     0.085 H 
ATOM     95  H   GCD d 611      33.024  27.293  -2.343  0.00  0.00     0.134 H 
ATOM     96  H   GCD d 611      35.002  26.307   1.100  0.00  0.00     0.210 HD
ATOM     97  H   GCD d 611      32.712  26.053  -0.327  0.00  0.00     0.210 HD
ATOM     98  H   GCD d 611      33.947  28.117  -0.173  0.00  0.00     0.093 H 
ENDROOT
TORSDOF 25
ENDMDL
MODEL 59
REMARK VINA RESULT:      -6.2      4.417      7.499
REMARK  0 active torsions:
REMARK  status: ('A' for Active; 'I' for Inactive)
REMARK       I    between atoms: O3_1  and  C3_6 
REMARK       I    between atoms: O3_3  and  C3_16 
REMARK       I    between atoms: O3_3  and  C1_32 
REMARK       I    between atoms: C8_5  and  C7_53 
REMARK       I    between atoms: C6_7  and  C5_47 
REMARK       I    between atoms: C6_7  and  O6_29 
REMARK       I    between atoms: O4_8  and  C4_45 
REMARK       I    between atoms: O4_8  and  C1_39 
REMARK       I    between atoms: N_10  and  C2_35 
REMARK       I    between atoms: N_10  and  C7_17 
REMARK       I    between atoms: C5_12  and  C6_42 
REMARK       I    between atoms: C1_14  and  O3_57 
REMARK       I    between atoms: C6_15  and  C5_20 
REMARK       I    between atoms: C7_17  and  C8_54 
REMARK       I    between atoms: O6_18  and  C6_42 
REMARK       I    between atoms: S_19  and  O4_46 
REMARK       I    between atoms: C4_22  and  O4_50 
REMARK       I    between atoms: C2_23  and  O2_51 
REMARK       I    between atoms: S_26  and  O4_50 
REMARK       I    between atoms: N_27  and  C2_56 
REMARK       I    between atoms: N_27  and  C7_53 
REMARK       I    between atoms: C5_31  and  C6_55 
REMARK       I    between atoms: C1_33  and  O1_48 
REMARK       I    between atoms: C4_34  and  O4_46 
REMARK       I    between atoms: C3_40  and  O3_57 
REMARK       I    between atoms: C2_41  and  O2_60 
REMARK       I    between atoms: O3_43  and  C3_52 
ROOT
ATOM      1  O3  BDP d 609      29.592  25.578  -9.536  0.00  0.00    -0.390 OA
ATOM      2  C3  BDP d 609      28.514  25.110  -8.736  0.00  0.00     0.092 C 
ATOM      3  O4  BDP d 609      29.878  25.107  -6.776  0.00  0.00    -0.348 OA
ATOM      4  C1  BDP d 609      26.036  25.249  -8.373  0.00  0.00     0.160 C 
ATOM      5  C5  BDP d 609      27.485  25.282  -6.464  0.00  0.00     0.152 C 
ATOM      6  O5  BDP d 609      26.282  25.798  -7.062  0.00  0.00    -0.340 OA
ATOM      7  O6B BDP d 609      27.618  27.099  -4.938  0.00  0.00    -0.646 OA
ATOM      8  C2  BDP d 609      27.193  25.583  -9.326  0.00  0.00     0.110 C 
ATOM      9  C4  BDP d 609      28.681  25.657  -7.331  0.00  0.00     0.103 C 
ATOM     10  C6  BDP d 609      27.572  25.857  -5.062  0.00  0.00     0.206 C 
ATOM     11  O6A BDP d 609      27.619  25.036  -4.120  0.00  0.00    -0.646 OA
ATOM     12  O2  BDP d 609      26.973  24.937 -10.571  0.00  0.00    -0.388 OA
ATOM     13  H   BDP d 609      29.497  25.235 -10.439  0.00  0.00     0.210 HD
ATOM     14  H   BDP d 609      28.513  24.041  -8.710  0.00  0.00     0.091 H 
ATOM     15  H   BDP d 609      25.953  24.185  -8.300  0.00  0.00     0.133 H 
ATOM     16  H   BDP d 609      27.479  24.214  -6.398  0.00  0.00     0.104 H 
ATOM     17  H   BDP d 609      27.236  26.643  -9.466  0.00  0.00     0.094 H 
ATOM     18  H   BDP d 609      28.743  26.724  -7.364  0.00  0.00     0.092 H 
ATOM     19  H   BDP d 609      26.936  23.977 -10.435  0.00  0.00     0.210 HD
ATOM     20  O7  ASG d 610      31.967  22.522  -5.084  0.00  0.00    -0.274 OA
ATOM     21  O3  ASG d 610      33.915  25.474  -4.231  0.00  0.00    -0.348 OA
ATOM     22  OSB ASG d 610      36.373  26.396  -6.034  0.00  0.00    -0.572 OA
ATOM     23  OSA ASG d 610      35.817  27.643  -8.019  0.00  0.00    -0.572 OA
ATOM     24  N   ASG d 610      31.221  24.514  -4.337  0.00  0.00    -0.349 N 
ATOM     25  C5  ASG d 610      32.264  27.785  -6.716  0.00  0.00     0.090 C 
ATOM     26  C3  ASG d 610      32.877  26.203  -4.915  0.00  0.00     0.094 C 
ATOM     27  C7  ASG d 610      31.300  23.188  -4.287  0.00  0.00     0.214 C 
ATOM     28  O6  ASG d 610      31.565  29.520  -8.262  0.00  0.00    -0.398 OA
ATOM     29  O5  ASG d 610      31.318  26.825  -7.227  0.00  0.00    -0.349 OA
ATOM     30  C4  ASG d 610      33.440  27.039  -6.080  0.00  0.00     0.114 C 
ATOM     31  S   ASG d 610      35.640  26.363  -7.315  0.00  0.00     0.252 S 
ATOM     32  C2  ASG d 610      31.824  25.237  -5.440  0.00  0.00     0.087 C 
ATOM     33  C1  ASG d 610      30.743  26.008  -6.189  0.00  0.00     0.154 C 
ATOM     34  C6  ASG d 610      32.652  28.694  -7.866  0.00  0.00     0.043 C 
ATOM     35  OSC ASG d 610      36.137  25.270  -8.173  0.00  0.00    -0.572 OA
ATOM     36  O4  ASG d 610      34.062  26.183  -7.063  0.00  0.00    -0.246 OA
ATOM     37  C8  ASG d 610      30.521  22.492  -3.177  0.00  0.00    -0.003 C 
ATOM     38  H   ASG d 610      30.752  25.006  -3.625  0.00  0.00     0.163 HD
ATOM     39  H   ASG d 610      31.855  28.400  -5.941  0.00  0.00     0.090 H 
ATOM     40  H   ASG d 610      32.433  26.875  -4.211  0.00  0.00     0.091 H 
ATOM     41  H   ASG d 610      31.841  30.089  -8.997  0.00  0.00     0.209 HD
ATOM     42  H   ASG d 610      34.182  27.721  -5.722  0.00  0.00     0.093 H 
ATOM     43  H   ASG d 610      32.293  24.542  -6.105  0.00  0.00     0.084 H 
ATOM     44  H   ASG d 610      30.231  26.639  -5.493  0.00  0.00     0.132 H 
ATOM     45  H   ASG d 610      32.955  28.094  -8.699  0.00  0.00     0.078 H 
ATOM     46  H   ASG d 610      33.454  29.324  -7.543  0.00  0.00     0.078 H 
ATOM     47  H   ASG d 610      30.667  21.434  -3.247  0.00  0.00     0.040 H 
ATOM     48  H   ASG d 610      29.480  22.715  -3.278  0.00  0.00     0.040 H 
ATOM     49  H   ASG d 610      30.869  22.837  -2.227  0.00  0.00     0.040 H 
ATOM     50  C8  ASG d 608      24.312  23.847 -12.772  0.00  0.00    -0.003 C 
ATOM     51  C6  ASG d 608      21.021  26.074  -5.736  0.00  0.00     0.043 C 
ATOM     52  O7  ASG d 608      23.679  26.011 -12.004  0.00  0.00    -0.274 OA
ATOM     53  S   ASG d 608      23.562  28.548  -7.194  0.00  0.00     0.252 S 
ATOM     54  OSC ASG d 608      24.579  28.971  -8.177  0.00  0.00    -0.572 OA
ATOM     55  N   ASG d 608      23.194  24.272 -10.646  0.00  0.00    -0.349 N 
ATOM     56  O6  ASG d 608      21.702  25.956  -4.491  0.00  0.00    -0.398 OA
ATOM     57  O5  ASG d 608      20.806  25.263  -7.968  0.00  0.00    -0.349 OA
ATOM     58  C1  ASG d 608      21.308  24.537  -9.107  0.00  0.00     0.151 C 
ATOM     59  C4  ASG d 608      23.031  25.965  -7.296  0.00  0.00     0.114 C 
ATOM     60  OSB ASG d 608      24.288  28.102  -5.992  0.00  0.00    -0.572 OA
ATOM     61  C3  ASG d 608      23.640  25.180  -8.438  0.00  0.00     0.094 C 
ATOM     62  O4  ASG d 608      22.688  27.308  -7.681  0.00  0.00    -0.246 OA
ATOM     63  C5  ASG d 608      21.728  25.296  -6.853  0.00  0.00     0.090 C 
ATOM     64  O1  ASG d 608      20.375  24.644 -10.124  0.00  0.00    -0.369 OA
ATOM     65  C7  ASG d 608      23.699  24.805 -11.758  0.00  0.00     0.214 C 
ATOM     66  C2  ASG d 608      22.650  25.118  -9.595  0.00  0.00     0.087 C 
ATOM     67  O3  ASG d 608      24.868  25.799  -8.866  0.00  0.00    -0.348 OA
ATOM     68  OSA ASG d 608      22.586  29.594  -6.824  0.00  0.00    -0.572 OA
ATOM     69  H   ASG d 608      24.678  24.401 -13.611  0.00  0.00     0.040 H 
ATOM     70  H   ASG d 608      23.568  23.151 -13.100  0.00  0.00     0.040 H 
ATOM     71  H   ASG d 608      25.121  23.316 -12.316  0.00  0.00     0.040 H 
ATOM     72  H   ASG d 608      20.028  25.691  -5.625  0.00  0.00     0.078 H 
ATOM     73  H   ASG d 608      21.008  27.108  -6.010  0.00  0.00     0.078 H 
ATOM     74  H   ASG d 608      23.189  23.294 -10.534  0.00  0.00     0.163 HD
ATOM     75  H   ASG d 608      21.726  25.024  -4.222  0.00  0.00     0.209 HD
ATOM     76  H   ASG d 608      21.470  23.516  -8.830  0.00  0.00     0.132 H 
ATOM     77  H   ASG d 608      23.763  25.988  -6.516  0.00  0.00     0.093 H 
ATOM     78  H   ASG d 608      23.857  24.187  -8.106  0.00  0.00     0.091 H 
ATOM     79  H   ASG d 608      21.989  24.320  -6.502  0.00  0.00     0.090 H 
ATOM     80  H   ASG d 608      20.252  25.579 -10.352  0.00  0.00     0.212 HD
ATOM     81  H   ASG d 608      22.486  26.105  -9.975  0.00  0.00     0.084 H 
ATOM     82  O6B GCD d 611      35.375  30.125  -2.089  0.00  0.00    -0.642 OA
ATOM     83  C6  GCD d 611      36.207  29.175  -2.367  0.00  0.00     0.233 C 
ATOM     84  C5  GCD d 611      35.777  27.765  -2.049  0.00  0.00     0.147 C 
ATOM     85  C2  GCD d 611      34.886  24.923  -2.141  0.00  0.00     0.111 C 
ATOM     86  O6A GCD d 611      37.355  29.205  -2.959  0.00  0.00    -0.642 OA
ATOM     87  C4  GCD d 611      35.759  27.150  -0.839  0.00  0.00    -0.034 C 
ATOM     88  C1  GCD d 611      34.225  25.970  -2.979  0.00  0.00     0.165 C 
ATOM     89  O3  GCD d 611      35.988  24.666  -0.062  0.00  0.00    -0.389 OA
ATOM     90  O5  GCD d 611      35.306  27.001  -3.222  0.00  0.00    -0.311 OA
ATOM     91  O2  GCD d 611      33.944  23.853  -1.838  0.00  0.00    -0.388 OA
ATOM     92  C3  GCD d 611      35.257  25.659  -0.797  0.00  0.00     0.084 C 
ATOM     93  H   GCD d 611      35.733  24.494  -2.636  0.00  0.00     0.095 H 
ATOM     94  H   GCD d 611      36.061  27.640   0.018  0.00  0.00     0.085 H 
ATOM     95  H   GCD d 611      33.338  26.329  -2.497  0.00  0.00     0.134 H 
ATOM     96  H   GCD d 611      35.540  23.809  -0.143  0.00  0.00     0.210 HD
ATOM     97  H   GCD d 611      33.169  24.222  -1.388  0.00  0.00     0.210 HD
ATOM     98  H   GCD d 611      34.386  25.969  -0.258  0.00  0.00     0.093 H 
ENDROOT
TORSDOF 25
ENDMDL
MODEL 60
REMARK VINA RESULT:      -6.2      4.644      9.714
REMARK  0 active torsions:
REMARK  status: ('A' for Active; 'I' for Inactive)
REMARK       I    between atoms: O3_1  and  C3_6 
REMARK       I    between atoms: O3_3  and  C3_16 
REMARK       I    between atoms: O3_3  and  C1_32 
REMARK       I    between atoms: C8_5  and  C7_53 
REMARK       I    between atoms: C6_7  and  C5_47 
REMARK       I    between atoms: C6_7  and  O6_29 
REMARK       I    between atoms: O4_8  and  C4_45 
REMARK       I    between atoms: O4_8  and  C1_39 
REMARK       I    between atoms: N_10  and  C2_35 
REMARK       I    between atoms: N_10  and  C7_17 
REMARK       I    between atoms: C5_12  and  C6_42 
REMARK       I    between atoms: C1_14  and  O3_57 
REMARK       I    between atoms: C6_15  and  C5_20 
REMARK       I    between atoms: C7_17  and  C8_54 
REMARK       I    between atoms: O6_18  and  C6_42 
REMARK       I    between atoms: S_19  and  O4_46 
REMARK       I    between atoms: C4_22  and  O4_50 
REMARK       I    between atoms: C2_23  and  O2_51 
REMARK       I    between atoms: S_26  and  O4_50 
REMARK       I    between atoms: N_27  and  C2_56 
REMARK       I    between atoms: N_27  and  C7_53 
REMARK       I    between atoms: C5_31  and  C6_55 
REMARK       I    between atoms: C1_33  and  O1_48 
REMARK       I    between atoms: C4_34  and  O4_46 
REMARK       I    between atoms: C3_40  and  O3_57 
REMARK       I    between atoms: C2_41  and  O2_60 
REMARK       I    between atoms: O3_43  and  C3_52 
ROOT
ATOM      1  O3  BDP d 609      31.602  29.611  -7.017  0.00  0.00    -0.390 OA
ATOM      2  C3  BDP d 609      31.724  28.945  -5.767  0.00  0.00     0.092 C 
ATOM      3  O4  BDP d 609      29.954  27.440  -6.316  0.00  0.00    -0.348 OA
ATOM      4  C1  BDP d 609      33.351  28.168  -4.024  0.00  0.00     0.160 C 
ATOM      5  C5  BDP d 609      31.565  26.706  -4.668  0.00  0.00     0.152 C 
ATOM      6  O5  BDP d 609      32.949  26.808  -4.287  0.00  0.00    -0.340 OA
ATOM      7  O6B BDP d 609      31.897  24.570  -5.656  0.00  0.00    -0.646 OA
ATOM      8  C2  BDP d 609      33.160  29.041  -5.272  0.00  0.00     0.110 C 
ATOM      9  C4  BDP d 609      31.335  27.491  -5.953  0.00  0.00     0.103 C 
ATOM     10  C6  BDP d 609      31.249  25.228  -4.817  0.00  0.00     0.206 C 
ATOM     11  O6A BDP d 609      30.331  24.775  -4.099  0.00  0.00    -0.646 OA
ATOM     12  O2  BDP d 609      33.459  30.391  -4.948  0.00  0.00    -0.388 OA
ATOM     13  H   BDP d 609      31.848  30.544  -6.912  0.00  0.00     0.210 HD
ATOM     14  H   BDP d 609      31.082  29.402  -5.043  0.00  0.00     0.091 H 
ATOM     15  H   BDP d 609      32.749  28.568  -3.235  0.00  0.00     0.133 H 
ATOM     16  H   BDP d 609      30.911  27.125  -3.933  0.00  0.00     0.104 H 
ATOM     17  H   BDP d 609      33.816  28.697  -6.044  0.00  0.00     0.094 H 
ATOM     18  H   BDP d 609      31.937  27.052  -6.721  0.00  0.00     0.092 H 
ATOM     19  H   BDP d 609      32.860  30.696  -4.249  0.00  0.00     0.210 HD
ATOM     20  O7  ASG d 610      26.274  27.443  -5.704  0.00  0.00    -0.274 OA
ATOM     21  O3  ASG d 610      26.319  25.681  -8.887  0.00  0.00    -0.348 OA
ATOM     22  OSB ASG d 610      25.945  27.246 -11.635  0.00  0.00    -0.572 OA
ATOM     23  OSA ASG d 610      27.907  28.345 -12.500  0.00  0.00    -0.572 OA
ATOM     24  N   ASG d 610      27.645  25.775  -6.352  0.00  0.00    -0.349 N 
ATOM     25  C5  ASG d 610      29.873  26.568  -9.794  0.00  0.00     0.090 C 
ATOM     26  C3  ASG d 610      27.753  25.791  -8.784  0.00  0.00     0.094 C 
ATOM     27  C7  ASG d 610      26.786  26.338  -5.508  0.00  0.00     0.214 C 
ATOM     28  O6  ASG d 610      32.035  27.039 -10.792  0.00  0.00    -0.398 OA
ATOM     29  O5  ASG d 610      30.172  27.297  -8.588  0.00  0.00    -0.349 OA
ATOM     30  C4  ASG d 610      28.355  26.530  -9.994  0.00  0.00     0.114 C 
ATOM     31  S   ASG d 610      26.973  28.271 -11.365  0.00  0.00     0.252 S 
ATOM     32  C2  ASG d 610      28.127  26.517  -7.501  0.00  0.00     0.087 C 
ATOM     33  C1  ASG d 610      29.643  26.658  -7.411  0.00  0.00     0.154 C 
ATOM     34  C6  ASG d 610      30.633  27.234 -10.926  0.00  0.00     0.043 C 
ATOM     35  OSC ASG d 610      26.351  29.595 -11.167  0.00  0.00    -0.572 OA
ATOM     36  O4  ASG d 610      27.841  27.879 -10.070  0.00  0.00    -0.246 OA
ATOM     37  C8  ASG d 610      26.437  25.549  -4.250  0.00  0.00    -0.003 C 
ATOM     38  H   ASG d 610      27.954  24.853  -6.197  0.00  0.00     0.163 HD
ATOM     39  H   ASG d 610      30.187  25.546  -9.751  0.00  0.00     0.090 H 
ATOM     40  H   ASG d 610      28.154  24.799  -8.770  0.00  0.00     0.091 H 
ATOM     41  H   ASG d 610      32.494  27.474 -11.527  0.00  0.00     0.209 HD
ATOM     42  H   ASG d 610      28.097  26.028 -10.902  0.00  0.00     0.093 H 
ATOM     43  H   ASG d 610      27.677  27.488  -7.509  0.00  0.00     0.084 H 
ATOM     44  H   ASG d 610      30.070  25.682  -7.321  0.00  0.00     0.132 H 
ATOM     45  H   ASG d 610      30.425  28.284 -10.915  0.00  0.00     0.078 H 
ATOM     46  H   ASG d 610      30.317  26.795 -11.849  0.00  0.00     0.078 H 
ATOM     47  H   ASG d 610      25.742  26.108  -3.660  0.00  0.00     0.040 H 
ATOM     48  H   ASG d 610      27.326  25.372  -3.683  0.00  0.00     0.040 H 
ATOM     49  H   ASG d 610      25.998  24.614  -4.527  0.00  0.00     0.040 H 
ATOM     50  C8  ASG d 608      35.576  32.391  -2.796  0.00  0.00    -0.003 C 
ATOM     51  C6  ASG d 608      36.156  24.680  -0.454  0.00  0.00     0.043 C 
ATOM     52  O7  ASG d 608      36.961  30.645  -3.635  0.00  0.00    -0.274 OA
ATOM     53  S   ASG d 608      36.495  25.258  -4.229  0.00  0.00     0.252 S 
ATOM     54  OSC ASG d 608      36.465  26.096  -5.445  0.00  0.00    -0.572 OA
ATOM     55  N   ASG d 608      35.690  30.152  -1.834  0.00  0.00    -0.349 N 
ATOM     56  O6  ASG d 608      35.089  23.746  -0.593  0.00  0.00    -0.398 OA
ATOM     57  O5  ASG d 608      36.773  26.972  -0.233  0.00  0.00    -0.349 OA
ATOM     58  C1  ASG d 608      36.485  28.379  -0.345  0.00  0.00     0.151 C 
ATOM     59  C4  ASG d 608      35.377  26.421  -2.140  0.00  0.00     0.114 C 
ATOM     60  OSB ASG d 608      35.222  24.517  -4.190  0.00  0.00    -0.572 OA
ATOM     61  C3  ASG d 608      34.981  27.874  -2.289  0.00  0.00     0.094 C 
ATOM     62  O4  ASG d 608      36.569  26.103  -2.880  0.00  0.00    -0.246 OA
ATOM     63  C5  ASG d 608      35.687  26.123  -0.672  0.00  0.00     0.090 C 
ATOM     64  O1  ASG d 608      37.621  29.077   0.029  0.00  0.00    -0.369 OA
ATOM     65  C7  ASG d 608      36.131  30.972  -2.788  0.00  0.00     0.214 C 
ATOM     66  C2  ASG d 608      36.115  28.762  -1.792  0.00  0.00     0.087 C 
ATOM     67  O3  ASG d 608      34.686  28.169  -3.668  0.00  0.00    -0.348 OA
ATOM     68  OSA ASG d 608      37.625  24.309  -4.160  0.00  0.00    -0.572 OA
ATOM     69  H   ASG d 608      36.009  32.939  -3.606  0.00  0.00     0.040 H 
ATOM     70  H   ASG d 608      35.815  32.873  -1.871  0.00  0.00     0.040 H 
ATOM     71  H   ASG d 608      34.514  32.358  -2.916  0.00  0.00     0.040 H 
ATOM     72  H   ASG d 608      36.564  24.594   0.532  0.00  0.00     0.078 H 
ATOM     73  H   ASG d 608      36.892  24.454  -1.197  0.00  0.00     0.078 H 
ATOM     74  H   ASG d 608      35.068  30.491  -1.150  0.00  0.00     0.163 HD
ATOM     75  H   ASG d 608      34.409  23.931   0.072  0.00  0.00     0.209 HD
ATOM     76  H   ASG d 608      35.653  28.619   0.284  0.00  0.00     0.132 H 
ATOM     77  H   ASG d 608      34.556  25.841  -2.509  0.00  0.00     0.093 H 
ATOM     78  H   ASG d 608      34.104  28.062  -1.706  0.00  0.00     0.091 H 
ATOM     79  H   ASG d 608      34.782  26.294  -0.128  0.00  0.00     0.090 H 
ATOM     80  H   ASG d 608      38.354  28.839  -0.559  0.00  0.00     0.212 HD
ATOM     81  H   ASG d 608      36.972  28.627  -2.418  0.00  0.00     0.084 H 
ATOM     82  O6B GCD d 611      27.154  21.946 -12.588  0.00  0.00    -0.642 OA
ATOM     83  C6  GCD d 611      26.140  22.749 -12.601  0.00  0.00     0.233 C 
ATOM     84  C5  GCD d 611      25.467  23.032 -11.282  0.00  0.00     0.147 C 
ATOM     85  C2  GCD d 611      24.439  24.245  -8.762  0.00  0.00     0.111 C 
ATOM     86  O6A GCD d 611      25.622  23.439 -13.562  0.00  0.00    -0.642 OA
ATOM     87  C4  GCD d 611      24.602  22.240 -10.598  0.00  0.00    -0.034 C 
ATOM     88  C1  GCD d 611      25.867  24.407  -9.173  0.00  0.00     0.165 C 
ATOM     89  O3  GCD d 611      22.648  22.707  -8.928  0.00  0.00    -0.389 OA
ATOM     90  O5  GCD d 611      25.838  24.331 -10.684  0.00  0.00    -0.311 OA
ATOM     91  O2  GCD d 611      24.324  24.308  -7.309  0.00  0.00    -0.388 OA
ATOM     92  C3  GCD d 611      24.048  22.792  -9.232  0.00  0.00     0.084 C 
ATOM     93  H   GCD d 611      23.816  25.008  -9.180  0.00  0.00     0.095 H 
ATOM     94  H   GCD d 611      24.320  21.316 -10.958  0.00  0.00     0.085 H 
ATOM     95  H   GCD d 611      26.482  23.681  -8.682  0.00  0.00     0.134 H 
ATOM     96  H   GCD d 611      22.483  23.091  -8.053  0.00  0.00     0.210 HD
ATOM     97  H   GCD d 611      24.883  23.622  -6.911  0.00  0.00     0.210 HD
ATOM     98  H   GCD d 611      24.599  22.040  -8.707  0.00  0.00     0.093 H 
ENDROOT
TORSDOF 25
ENDMDL
MODEL 61
REMARK VINA RESULT:      -6.1      5.708      9.330
REMARK  0 active torsions:
REMARK  status: ('A' for Active; 'I' for Inactive)
REMARK       I    between atoms: O3_1  and  C3_6 
REMARK       I    between atoms: O3_3  and  C3_16 
REMARK       I    between atoms: O3_3  and  C1_32 
REMARK       I    between atoms: C8_5  and  C7_53 
REMARK       I    between atoms: C6_7  and  C5_47 
REMARK       I    between atoms: C6_7  and  O6_29 
REMARK       I    between atoms: O4_8  and  C4_45 
REMARK       I    between atoms: O4_8  and  C1_39 
REMARK       I    between atoms: N_10  and  C2_35 
REMARK       I    between atoms: N_10  and  C7_17 
REMARK       I    between atoms: C5_12  and  C6_42 
REMARK       I    between atoms: C1_14  and  O3_57 
REMARK       I    between atoms: C6_15  and  C5_20 
REMARK       I    between atoms: C7_17  and  C8_54 
REMARK       I    between atoms: O6_18  and  C6_42 
REMARK       I    between atoms: S_19  and  O4_46 
REMARK       I    between atoms: C4_22  and  O4_50 
REMARK       I    between atoms: C2_23  and  O2_51 
REMARK       I    between atoms: S_26  and  O4_50 
REMARK       I    between atoms: N_27  and  C2_56 
REMARK       I    between atoms: N_27  and  C7_53 
REMARK       I    between atoms: C5_31  and  C6_55 
REMARK       I    between atoms: C1_33  and  O1_48 
REMARK       I    between atoms: C4_34  and  O4_46 
REMARK       I    between atoms: C3_40  and  O3_57 
REMARK       I    between atoms: C2_41  and  O2_60 
REMARK       I    between atoms: O3_43  and  C3_52 
ROOT
ATOM      1  O3  BDP d 609      31.548  28.729  -5.802  0.00  0.00    -0.390 OA
ATOM      2  C3  BDP d 609      30.528  28.970  -6.763  0.00  0.00     0.092 C 
ATOM      3  O4  BDP d 609      31.424  27.314  -8.231  0.00  0.00    -0.348 OA
ATOM      4  C1  BDP d 609      28.103  29.534  -7.061  0.00  0.00     0.160 C 
ATOM      5  C5  BDP d 609      29.077  27.852  -8.464  0.00  0.00     0.152 C 
ATOM      6  O5  BDP d 609      27.913  28.268  -7.725  0.00  0.00    -0.340 OA
ATOM      7  O6B BDP d 609      28.358  25.587  -8.504  0.00  0.00    -0.646 OA
ATOM      8  C2  BDP d 609      29.266  29.453  -6.063  0.00  0.00     0.110 C 
ATOM      9  C4  BDP d 609      30.248  27.677  -7.504  0.00  0.00     0.103 C 
ATOM     10  C6  BDP d 609      28.713  26.569  -9.189  0.00  0.00     0.206 C 
ATOM     11  O6A BDP d 609      28.823  26.577 -10.434  0.00  0.00    -0.646 OA
ATOM     12  O2  BDP d 609      29.497  30.741  -5.509  0.00  0.00    -0.388 OA
ATOM     13  H   BDP d 609      31.738  29.550  -5.319  0.00  0.00     0.210 HD
ATOM     14  H   BDP d 609      30.845  29.722  -7.454  0.00  0.00     0.091 H 
ATOM     15  H   BDP d 609      28.332  30.284  -7.789  0.00  0.00     0.133 H 
ATOM     16  H   BDP d 609      29.380  28.581  -9.185  0.00  0.00     0.104 H 
ATOM     17  H   BDP d 609      29.014  28.762  -5.286  0.00  0.00     0.094 H 
ATOM     18  H   BDP d 609      29.991  26.909  -6.806  0.00  0.00     0.092 H 
ATOM     19  H   BDP d 609      29.725  31.362  -6.219  0.00  0.00     0.210 HD
ATOM     20  O7  ASG d 610      33.827  27.412 -11.082  0.00  0.00    -0.274 OA
ATOM     21  O3  ASG d 610      34.591  24.090  -9.810  0.00  0.00    -0.348 OA
ATOM     22  OSB ASG d 610      36.956  23.634  -7.727  0.00  0.00    -0.572 OA
ATOM     23  OSA ASG d 610      36.445  24.125  -5.425  0.00  0.00    -0.572 OA
ATOM     24  N   ASG d 610      32.385  25.801 -10.443  0.00  0.00    -0.349 N 
ATOM     25  C5  ASG d 610      32.833  24.507  -6.497  0.00  0.00     0.090 C 
ATOM     26  C3  ASG d 610      33.534  24.346  -8.864  0.00  0.00     0.094 C 
ATOM     27  C7  ASG d 610      32.849  26.694 -11.311  0.00  0.00     0.214 C 
ATOM     28  O6  ASG d 610      31.956  24.436  -4.235  0.00  0.00    -0.398 OA
ATOM     29  O5  ASG d 610      32.338  25.839  -6.741  0.00  0.00    -0.349 OA
ATOM     30  C4  ASG d 610      34.033  24.243  -7.411  0.00  0.00     0.114 C 
ATOM     31  S   ASG d 610      36.529  24.686  -6.782  0.00  0.00     0.252 S 
ATOM     32  C2  ASG d 610      32.944  25.728  -9.107  0.00  0.00     0.087 C 
ATOM     33  C1  ASG d 610      31.847  26.008  -8.085  0.00  0.00     0.154 C 
ATOM     34  C6  ASG d 610      33.144  24.405  -5.016  0.00  0.00     0.043 C 
ATOM     35  OSC ASG d 610      37.489  25.807  -6.781  0.00  0.00    -0.572 OA
ATOM     36  O4  ASG d 610      35.062  25.225  -7.157  0.00  0.00    -0.246 OA
ATOM     37  C8  ASG d 610      32.117  26.807 -12.643  0.00  0.00    -0.003 C 
ATOM     38  H   ASG d 610      31.661  25.188 -10.707  0.00  0.00     0.163 HD
ATOM     39  H   ASG d 610      32.116  23.748  -6.730  0.00  0.00     0.090 H 
ATOM     40  H   ASG d 610      32.781  23.600  -9.008  0.00  0.00     0.091 H 
ATOM     41  H   ASG d 610      32.185  24.370  -3.295  0.00  0.00     0.209 HD
ATOM     42  H   ASG d 610      34.451  23.275  -7.229  0.00  0.00     0.093 H 
ATOM     43  H   ASG d 610      33.720  26.458  -9.007  0.00  0.00     0.084 H 
ATOM     44  H   ASG d 610      31.044  25.320  -8.252  0.00  0.00     0.132 H 
ATOM     45  H   ASG d 610      33.768  25.227  -4.733  0.00  0.00     0.078 H 
ATOM     46  H   ASG d 610      33.640  23.474  -4.838  0.00  0.00     0.078 H 
ATOM     47  H   ASG d 610      32.586  27.555 -13.247  0.00  0.00     0.040 H 
ATOM     48  H   ASG d 610      31.097  27.077 -12.468  0.00  0.00     0.040 H 
ATOM     49  H   ASG d 610      32.154  25.866 -13.151  0.00  0.00     0.040 H 
ATOM     50  C8  ASG d 608      27.767  33.788  -4.594  0.00  0.00    -0.003 C 
ATOM     51  C6  ASG d 608      22.662  29.148  -8.802  0.00  0.00     0.043 C 
ATOM     52  O7  ASG d 608      26.375  32.000  -3.859  0.00  0.00    -0.274 OA
ATOM     53  S   ASG d 608      24.570  27.341  -6.009  0.00  0.00     0.252 S 
ATOM     54  OSC ASG d 608      25.582  27.265  -4.937  0.00  0.00    -0.572 OA
ATOM     55  N   ASG d 608      26.183  32.607  -6.027  0.00  0.00    -0.349 N 
ATOM     56  O6  ASG d 608      23.093  28.244  -9.816  0.00  0.00    -0.398 OA
ATOM     57  O5  ASG d 608      23.138  31.142  -7.586  0.00  0.00    -0.349 OA
ATOM     58  C1  ASG d 608      24.045  32.167  -7.135  0.00  0.00     0.151 C 
ATOM     59  C4  ASG d 608      24.873  29.445  -7.574  0.00  0.00     0.114 C 
ATOM     60  OSB ASG d 608      25.151  26.683  -7.193  0.00  0.00    -0.572 OA
ATOM     61  C3  ASG d 608      25.899  30.475  -7.154  0.00  0.00     0.094 C 
ATOM     62  O4  ASG d 608      24.222  28.834  -6.447  0.00  0.00    -0.246 OA
ATOM     63  C5  ASG d 608      23.772  30.123  -8.392  0.00  0.00     0.090 C 
ATOM     64  O1  ASG d 608      23.338  33.031  -6.316  0.00  0.00    -0.369 OA
ATOM     65  C7  ASG d 608      26.710  32.711  -4.806  0.00  0.00     0.214 C 
ATOM     66  C2  ASG d 608      25.217  31.564  -6.335  0.00  0.00     0.087 C 
ATOM     67  O3  ASG d 608      26.942  29.851  -6.382  0.00  0.00    -0.348 OA
ATOM     68  OSA ASG d 608      23.272  26.716  -5.681  0.00  0.00    -0.572 OA
ATOM     69  H   ASG d 608      28.103  33.762  -3.579  0.00  0.00     0.040 H 
ATOM     70  H   ASG d 608      27.345  34.748  -4.807  0.00  0.00     0.040 H 
ATOM     71  H   ASG d 608      28.594  33.609  -5.248  0.00  0.00     0.040 H 
ATOM     72  H   ASG d 608      21.829  29.709  -9.170  0.00  0.00     0.078 H 
ATOM     73  H   ASG d 608      22.391  28.574  -7.941  0.00  0.00     0.078 H 
ATOM     74  H   ASG d 608      26.452  33.244  -6.727  0.00  0.00     0.163 HD
ATOM     75  H   ASG d 608      23.344  28.744 -10.608  0.00  0.00     0.209 HD
ATOM     76  H   ASG d 608      24.451  32.676  -7.984  0.00  0.00     0.132 H 
ATOM     77  H   ASG d 608      25.399  28.701  -8.136  0.00  0.00     0.093 H 
ATOM     78  H   ASG d 608      26.338  30.912  -8.026  0.00  0.00     0.091 H 
ATOM     79  H   ASG d 608      24.243  30.520  -9.267  0.00  0.00     0.090 H 
ATOM     80  H   ASG d 608      22.985  32.540  -5.558  0.00  0.00     0.212 HD
ATOM     81  H   ASG d 608      24.840  31.142  -5.427  0.00  0.00     0.084 H 
ATOM     82  O6B GCD d 611      34.137  18.951  -8.494  0.00  0.00    -0.642 OA
ATOM     83  C6  GCD d 611      35.255  19.503  -8.839  0.00  0.00     0.233 C 
ATOM     84  C5  GCD d 611      35.217  20.477  -9.990  0.00  0.00     0.147 C 
ATOM     85  C2  GCD d 611      35.260  22.889 -11.740  0.00  0.00     0.111 C 
ATOM     86  O6A GCD d 611      36.432  19.427  -8.313  0.00  0.00    -0.642 OA
ATOM     87  C4  GCD d 611      35.151  20.200 -11.317  0.00  0.00    -0.034 C 
ATOM     88  C1  GCD d 611      34.488  22.874 -10.459  0.00  0.00     0.165 C 
ATOM     89  O3  GCD d 611      35.964  21.437 -13.471  0.00  0.00    -0.389 OA
ATOM     90  O5  GCD d 611      35.234  21.896  -9.578  0.00  0.00    -0.311 OA
ATOM     91  O2  GCD d 611      34.644  23.811 -12.686  0.00  0.00    -0.388 OA
ATOM     92  C3  GCD d 611      35.124  21.424 -12.307  0.00  0.00     0.084 C 
ATOM     93  H   GCD d 611      36.275  23.192 -11.588  0.00  0.00     0.095 H 
ATOM     94  H   GCD d 611      35.120  19.229 -11.663  0.00  0.00     0.085 H 
ATOM     95  H   GCD d 611      33.459  22.644 -10.645  0.00  0.00     0.134 H 
ATOM     96  H   GCD d 611      35.820  22.259 -13.964  0.00  0.00     0.210 HD
ATOM     97  H   GCD d 611      33.722  23.552 -12.836  0.00  0.00     0.210 HD
ATOM     98  H   GCD d 611      34.114  21.189 -12.567  0.00  0.00     0.093 H 
ENDROOT
TORSDOF 25
ENDMDL
MODEL 62
REMARK VINA RESULT:      -6.1      4.192      6.603
REMARK  0 active torsions:
REMARK  status: ('A' for Active; 'I' for Inactive)
REMARK       I    between atoms: O3_1  and  C3_6 
REMARK       I    between atoms: O3_3  and  C3_16 
REMARK       I    between atoms: O3_3  and  C1_32 
REMARK       I    between atoms: C8_5  and  C7_53 
REMARK       I    between atoms: C6_7  and  C5_47 
REMARK       I    between atoms: C6_7  and  O6_29 
REMARK       I    between atoms: O4_8  and  C4_45 
REMARK       I    between atoms: O4_8  and  C1_39 
REMARK       I    between atoms: N_10  and  C2_35 
REMARK       I    between atoms: N_10  and  C7_17 
REMARK       I    between atoms: C5_12  and  C6_42 
REMARK       I    between atoms: C1_14  and  O3_57 
REMARK       I    between atoms: C6_15  and  C5_20 
REMARK       I    between atoms: C7_17  and  C8_54 
REMARK       I    between atoms: O6_18  and  C6_42 
REMARK       I    between atoms: S_19  and  O4_46 
REMARK       I    between atoms: C4_22  and  O4_50 
REMARK       I    between atoms: C2_23  and  O2_51 
REMARK       I    between atoms: S_26  and  O4_50 
REMARK       I    between atoms: N_27  and  C2_56 
REMARK       I    between atoms: N_27  and  C7_53 
REMARK       I    between atoms: C5_31  and  C6_55 
REMARK       I    between atoms: C1_33  and  O1_48 
REMARK       I    between atoms: C4_34  and  O4_46 
REMARK       I    between atoms: C3_40  and  O3_57 
REMARK       I    between atoms: C2_41  and  O2_60 
REMARK       I    between atoms: O3_43  and  C3_52 
ROOT
ATOM      1  O3  BDP d 609      30.791  22.612  -6.849  0.00  0.00    -0.390 OA
ATOM      2  C3  BDP d 609      29.694  22.702  -5.949  0.00  0.00     0.092 C 
ATOM      3  O4  BDP d 609      30.883  24.221  -4.542  0.00  0.00    -0.348 OA
ATOM      4  C1  BDP d 609      27.193  22.751  -5.786  0.00  0.00     0.160 C 
ATOM      5  C5  BDP d 609      28.466  24.271  -4.440  0.00  0.00     0.152 C 
ATOM      6  O5  BDP d 609      27.277  24.079  -5.229  0.00  0.00    -0.340 OA
ATOM      7  O6B BDP d 609      28.311  26.636  -4.612  0.00  0.00    -0.646 OA
ATOM      8  C2  BDP d 609      28.392  22.470  -6.702  0.00  0.00     0.110 C 
ATOM      9  C4  BDP d 609      29.694  24.083  -5.323  0.00  0.00     0.103 C 
ATOM     10  C6  BDP d 609      28.383  25.661  -3.836  0.00  0.00     0.206 C 
ATOM     11  O6A BDP d 609      28.422  25.734  -2.588  0.00  0.00    -0.646 OA
ATOM     12  O2  BDP d 609      28.336  21.122  -7.145  0.00  0.00    -0.388 OA
ATOM     13  H   BDP d 609      30.804  21.732  -7.258  0.00  0.00     0.210 HD
ATOM     14  H   BDP d 609      29.785  21.958  -5.186  0.00  0.00     0.091 H 
ATOM     15  H   BDP d 609      27.196  22.034  -4.992  0.00  0.00     0.133 H 
ATOM     16  H   BDP d 609      28.547  23.556  -3.649  0.00  0.00     0.104 H 
ATOM     17  H   BDP d 609      28.354  23.132  -7.542  0.00  0.00     0.094 H 
ATOM     18  H   BDP d 609      29.665  24.827  -6.091  0.00  0.00     0.092 H 
ATOM     19  H   BDP d 609      28.371  20.528  -6.378  0.00  0.00     0.210 HD
ATOM     20  O7  ASG d 610      33.038  23.806  -1.527  0.00  0.00    -0.274 OA
ATOM     21  O3  ASG d 610      34.643  26.734  -2.973  0.00  0.00    -0.348 OA
ATOM     22  OSB ASG d 610      37.155  26.441  -4.908  0.00  0.00    -0.572 OA
ATOM     23  OSA ASG d 610      36.663  25.888  -7.201  0.00  0.00    -0.572 OA
ATOM     24  N   ASG d 610      32.061  25.650  -2.380  0.00  0.00    -0.349 N 
ATOM     25  C5  ASG d 610      33.013  26.458  -6.366  0.00  0.00     0.090 C 
ATOM     26  C3  ASG d 610      33.606  26.653  -3.971  0.00  0.00     0.094 C 
ATOM     27  C7  ASG d 610      32.251  24.750  -1.420  0.00  0.00     0.214 C 
ATOM     28  O6  ASG d 610      32.299  26.539  -8.683  0.00  0.00    -0.398 OA
ATOM     29  O5  ASG d 610      32.201  25.306  -6.063  0.00  0.00    -0.349 OA
ATOM     30  C4  ASG d 610      34.192  26.510  -5.389  0.00  0.00     0.114 C 
ATOM     31  S   ASG d 610      36.538  25.442  -5.804  0.00  0.00     0.252 S 
ATOM     32  C2  ASG d 610      32.690  25.475  -3.674  0.00  0.00     0.087 C 
ATOM     33  C1  ASG d 610      31.614  25.374  -4.750  0.00  0.00     0.154 C 
ATOM     34  C6  ASG d 610      33.416  26.357  -7.824  0.00  0.00     0.043 C 
ATOM     35  OSC ASG d 610      37.199  24.130  -5.657  0.00  0.00    -0.572 OA
ATOM     36  O4  ASG d 610      34.967  25.296  -5.498  0.00  0.00    -0.246 OA
ATOM     37  C8  ASG d 610      31.444  24.928  -0.138  0.00  0.00    -0.003 C 
ATOM     38  H   ASG d 610      31.492  26.436  -2.212  0.00  0.00     0.163 HD
ATOM     39  H   ASG d 610      32.488  27.382  -6.238  0.00  0.00     0.090 H 
ATOM     40  H   ASG d 610      33.048  27.564  -3.935  0.00  0.00     0.091 H 
ATOM     41  H   ASG d 610      32.586  26.469  -9.607  0.00  0.00     0.209 HD
ATOM     42  H   ASG d 610      34.839  27.334  -5.608  0.00  0.00     0.093 H 
ATOM     43  H   ASG d 610      33.273  24.577  -3.667  0.00  0.00     0.084 H 
ATOM     44  H   ASG d 610      30.992  26.242  -4.689  0.00  0.00     0.132 H 
ATOM     45  H   ASG d 610      33.839  25.391  -8.003  0.00  0.00     0.078 H 
ATOM     46  H   ASG d 610      34.130  27.126  -8.031  0.00  0.00     0.078 H 
ATOM     47  H   ASG d 610      31.688  24.145   0.549  0.00  0.00     0.040 H 
ATOM     48  H   ASG d 610      30.400  24.890  -0.367  0.00  0.00     0.040 H 
ATOM     49  H   ASG d 610      31.679  25.873   0.302  0.00  0.00     0.040 H 
ATOM     50  C8  ASG d 608      25.976  18.500  -7.963  0.00  0.00    -0.003 C 
ATOM     51  C6  ASG d 608      21.919  24.553  -4.470  0.00  0.00     0.043 C 
ATOM     52  O7  ASG d 608      25.094  20.494  -8.920  0.00  0.00    -0.274 OA
ATOM     53  S   ASG d 608      24.349  25.614  -7.241  0.00  0.00     0.252 S 
ATOM     54  OSC ASG d 608      25.405  25.358  -8.240  0.00  0.00    -0.572 OA
ATOM     55  N   ASG d 608      24.649  20.138  -6.735  0.00  0.00    -0.349 N 
ATOM     56  O6  ASG d 608      22.500  25.413  -3.495  0.00  0.00    -0.398 OA
ATOM     57  O5  ASG d 608      21.966  22.406  -5.505  0.00  0.00    -0.349 OA
ATOM     58  C1  ASG d 608      22.624  21.161  -5.816  0.00  0.00     0.151 C 
ATOM     59  C4  ASG d 608      24.056  23.640  -5.513  0.00  0.00     0.114 C 
ATOM     60  OSB ASG d 608      25.007  26.216  -6.068  0.00  0.00    -0.572 OA
ATOM     61  C3  ASG d 608      24.825  22.366  -5.784  0.00  0.00     0.094 C 
ATOM     62  O4  ASG d 608      23.631  24.288  -6.725  0.00  0.00    -0.246 OA
ATOM     63  C5  ASG d 608      22.783  23.313  -4.729  0.00  0.00     0.090 C 
ATOM     64  O1  ASG d 608      21.774  20.421  -6.620  0.00  0.00    -0.369 OA
ATOM     65  C7  ASG d 608      25.198  19.809  -7.904  0.00  0.00     0.214 C 
ATOM     66  C2  ASG d 608      23.946  21.401  -6.571  0.00  0.00     0.087 C 
ATOM     67  O3  ASG d 608      26.026  22.659  -6.522  0.00  0.00    -0.348 OA
ATOM     68  OSA ASG d 608      23.258  26.496  -7.704  0.00  0.00    -0.572 OA
ATOM     69  H   ASG d 608      26.361  18.358  -8.951  0.00  0.00     0.040 H 
ATOM     70  H   ASG d 608      25.325  17.687  -7.713  0.00  0.00     0.040 H 
ATOM     71  H   ASG d 608      26.786  18.535  -7.266  0.00  0.00     0.040 H 
ATOM     72  H   ASG d 608      20.957  24.237  -4.124  0.00  0.00     0.078 H 
ATOM     73  H   ASG d 608      21.840  25.098  -5.388  0.00  0.00     0.078 H 
ATOM     74  H   ASG d 608      24.719  19.518  -5.973  0.00  0.00     0.163 HD
ATOM     75  H   ASG d 608      22.582  24.939  -2.653  0.00  0.00     0.209 HD
ATOM     76  H   ASG d 608      22.850  20.646  -4.906  0.00  0.00     0.132 H 
ATOM     77  H   ASG d 608      24.714  24.286  -4.969  0.00  0.00     0.093 H 
ATOM     78  H   ASG d 608      25.100  21.914  -4.854  0.00  0.00     0.091 H 
ATOM     79  H   ASG d 608      23.098  22.892  -3.797  0.00  0.00     0.090 H 
ATOM     80  H   ASG d 608      21.589  20.914  -7.435  0.00  0.00     0.212 HD
ATOM     81  H   ASG d 608      23.729  21.820  -7.531  0.00  0.00     0.084 H 
ATOM     82  O6B GCD d 611      35.505  31.703  -4.679  0.00  0.00    -0.642 OA
ATOM     83  C6  GCD d 611      36.438  30.935  -4.216  0.00  0.00     0.233 C 
ATOM     84  C5  GCD d 611      36.107  30.100  -3.005  0.00  0.00     0.147 C 
ATOM     85  C2  GCD d 611      35.478  27.905  -1.090  0.00  0.00     0.111 C 
ATOM     86  O6A GCD d 611      37.625  30.687  -4.661  0.00  0.00    -0.642 OA
ATOM     87  C4  GCD d 611      36.040  30.497  -1.709  0.00  0.00    -0.034 C 
ATOM     88  C1  GCD d 611      34.801  27.991  -2.421  0.00  0.00     0.165 C 
ATOM     89  O3  GCD d 611      36.417  29.294   0.579  0.00  0.00    -0.389 OA
ATOM     90  O5  GCD d 611      35.805  28.687  -3.313  0.00  0.00    -0.311 OA
ATOM     91  O2  GCD d 611      34.610  27.238  -0.127  0.00  0.00    -0.388 OA
ATOM     92  C3  GCD d 611      35.668  29.404  -0.639  0.00  0.00     0.084 C 
ATOM     93  H   GCD d 611      36.397  27.360  -1.147  0.00  0.00     0.095 H 
ATOM     94  H   GCD d 611      36.224  31.475  -1.436  0.00  0.00     0.085 H 
ATOM     95  H   GCD d 611      33.849  28.471  -2.326  0.00  0.00     0.134 H 
ATOM     96  H   GCD d 611      36.055  28.574   1.118  0.00  0.00     0.210 HD
ATOM     97  H   GCD d 611      33.770  27.719  -0.062  0.00  0.00     0.210 HD
ATOM     98  H   GCD d 611      34.731  29.892  -0.469  0.00  0.00     0.093 H 
ENDROOT
TORSDOF 25
ENDMDL
MODEL 63
REMARK VINA RESULT:      -6.1      2.592      3.251
REMARK  0 active torsions:
REMARK  status: ('A' for Active; 'I' for Inactive)
REMARK       I    between atoms: O3_1  and  C3_6 
REMARK       I    between atoms: O3_3  and  C3_16 
REMARK       I    between atoms: O3_3  and  C1_32 
REMARK       I    between atoms: C8_5  and  C7_53 
REMARK       I    between atoms: C6_7  and  C5_47 
REMARK       I    between atoms: C6_7  and  O6_29 
REMARK       I    between atoms: O4_8  and  C4_45 
REMARK       I    between atoms: O4_8  and  C1_39 
REMARK       I    between atoms: N_10  and  C2_35 
REMARK       I    between atoms: N_10  and  C7_17 
REMARK       I    between atoms: C5_12  and  C6_42 
REMARK       I    between atoms: C1_14  and  O3_57 
REMARK       I    between atoms: C6_15  and  C5_20 
REMARK       I    between atoms: C7_17  and  C8_54 
REMARK       I    between atoms: O6_18  and  C6_42 
REMARK       I    between atoms: S_19  and  O4_46 
REMARK       I    between atoms: C4_22  and  O4_50 
REMARK       I    between atoms: C2_23  and  O2_51 
REMARK       I    between atoms: S_26  and  O4_50 
REMARK       I    between atoms: N_27  and  C2_56 
REMARK       I    between atoms: N_27  and  C7_53 
REMARK       I    between atoms: C5_31  and  C6_55 
REMARK       I    between atoms: C1_33  and  O1_48 
REMARK       I    between atoms: C4_34  and  O4_46 
REMARK       I    between atoms: C3_40  and  O3_57 
REMARK       I    between atoms: C2_41  and  O2_60 
REMARK       I    between atoms: O3_43  and  C3_52 
ROOT
ATOM      1  O3  BDP d 609      28.535  24.990  -7.457  0.00  0.00    -0.390 OA
ATOM      2  C3  BDP d 609      28.594  24.255  -6.241  0.00  0.00     0.092 C 
ATOM      3  O4  BDP d 609      30.379  25.614  -5.426  0.00  0.00    -0.348 OA
ATOM      4  C1  BDP d 609      27.224  23.056  -4.517  0.00  0.00     0.160 C 
ATOM      5  C5  BDP d 609      29.012  24.476  -3.787  0.00  0.00     0.152 C 
ATOM      6  O5  BDP d 609      27.675  24.007  -3.530  0.00  0.00    -0.340 OA
ATOM      7  O6B BDP d 609      28.700  26.397  -2.423  0.00  0.00    -0.646 OA
ATOM      8  C2  BDP d 609      27.220  23.688  -5.916  0.00  0.00     0.110 C 
ATOM      9  C4  BDP d 609      29.047  25.187  -5.134  0.00  0.00     0.103 C 
ATOM     10  C6  BDP d 609      29.398  25.384  -2.633  0.00  0.00     0.206 C 
ATOM     11  O6A BDP d 609      30.416  25.063  -1.983  0.00  0.00    -0.646 OA
ATOM     12  O2  BDP d 609      26.878  22.698  -6.875  0.00  0.00    -0.388 OA
ATOM     13  H   BDP d 609      28.246  24.405  -8.175  0.00  0.00     0.210 HD
ATOM     14  H   BDP d 609      29.285  23.444  -6.337  0.00  0.00     0.091 H 
ATOM     15  H   BDP d 609      27.886  22.216  -4.526  0.00  0.00     0.133 H 
ATOM     16  H   BDP d 609      29.718  23.675  -3.846  0.00  0.00     0.104 H 
ATOM     17  H   BDP d 609      26.503  24.482  -5.940  0.00  0.00     0.094 H 
ATOM     18  H   BDP d 609      28.390  26.030  -5.081  0.00  0.00     0.092 H 
ATOM     19  H   BDP d 609      27.533  21.982  -6.847  0.00  0.00     0.210 HD
ATOM     20  O7  ASG d 610      34.097  25.332  -5.522  0.00  0.00    -0.274 OA
ATOM     21  O3  ASG d 610      33.801  28.957  -5.619  0.00  0.00    -0.348 OA
ATOM     22  OSB ASG d 610      33.768  30.528  -8.389  0.00  0.00    -0.572 OA
ATOM     23  OSA ASG d 610      31.658  30.574  -9.551  0.00  0.00    -0.572 OA
ATOM     24  N   ASG d 610      32.766  26.653  -4.272  0.00  0.00    -0.349 N 
ATOM     25  C5  ASG d 610      30.120  29.043  -6.447  0.00  0.00     0.090 C 
ATOM     26  C3  ASG d 610      32.384  28.718  -5.504  0.00  0.00     0.094 C 
ATOM     27  C7  ASG d 610      33.679  25.698  -4.421  0.00  0.00     0.214 C 
ATOM     28  O6  ASG d 610      27.836  29.512  -7.117  0.00  0.00    -0.398 OA
ATOM     29  O5  ASG d 610      29.916  27.617  -6.428  0.00  0.00    -0.349 OA
ATOM     30  C4  ASG d 610      31.606  29.333  -6.682  0.00  0.00     0.114 C 
ATOM     31  S   ASG d 610      32.716  29.702  -9.017  0.00  0.00     0.252 S 
ATOM     32  C2  ASG d 610      32.114  27.222  -5.435  0.00  0.00     0.087 C 
ATOM     33  C1  ASG d 610      30.612  26.973  -5.344  0.00  0.00     0.154 C 
ATOM     34  C6  ASG d 610      29.199  29.618  -7.506  0.00  0.00     0.043 C 
ATOM     35  OSC ASG d 610      33.275  28.894 -10.118  0.00  0.00    -0.572 OA
ATOM     36  O4  ASG d 610      32.025  28.739  -7.931  0.00  0.00    -0.246 OA
ATOM     37  C8  ASG d 610      34.214  25.051  -3.148  0.00  0.00    -0.003 C 
ATOM     38  H   ASG d 610      32.533  26.974  -3.371  0.00  0.00     0.163 HD
ATOM     39  H   ASG d 610      29.875  29.511  -5.516  0.00  0.00     0.090 H 
ATOM     40  H   ASG d 610      32.048  29.189  -4.604  0.00  0.00     0.091 H 
ATOM     41  H   ASG d 610      27.271  29.887  -7.811  0.00  0.00     0.209 HD
ATOM     42  H   ASG d 610      31.790  30.385  -6.740  0.00  0.00     0.093 H 
ATOM     43  H   ASG d 610      32.500  26.760  -6.320  0.00  0.00     0.084 H 
ATOM     44  H   ASG d 610      30.258  27.371  -4.416  0.00  0.00     0.132 H 
ATOM     45  H   ASG d 610      29.343  29.084  -8.421  0.00  0.00     0.078 H 
ATOM     46  H   ASG d 610      29.435  30.654  -7.632  0.00  0.00     0.078 H 
ATOM     47  H   ASG d 610      34.937  24.304  -3.404  0.00  0.00     0.040 H 
ATOM     48  H   ASG d 610      33.407  24.598  -2.612  0.00  0.00     0.040 H 
ATOM     49  H   ASG d 610      34.675  25.797  -2.536  0.00  0.00     0.040 H 
ATOM     50  C8  ASG d 608      24.900  19.689  -7.265  0.00  0.00    -0.003 C 
ATOM     51  C6  ASG d 608      25.055  21.611   0.582  0.00  0.00     0.043 C 
ATOM     52  O7  ASG d 608      23.538  21.214  -6.043  0.00  0.00    -0.274 OA
ATOM     53  S   ASG d 608      24.259  24.521  -1.785  0.00  0.00     0.252 S 
ATOM     54  OSC ASG d 608      24.101  25.132  -3.120  0.00  0.00    -0.572 OA
ATOM     55  N   ASG d 608      25.031  20.010  -4.850  0.00  0.00    -0.349 N 
ATOM     56  O6  ASG d 608      26.154  22.281   1.193  0.00  0.00    -0.398 OA
ATOM     57  O5  ASG d 608      24.329  20.204  -1.200  0.00  0.00    -0.349 OA
ATOM     58  C1  ASG d 608      24.517  19.595  -2.493  0.00  0.00     0.151 C 
ATOM     59  C4  ASG d 608      25.533  22.210  -1.847  0.00  0.00     0.114 C 
ATOM     60  OSB ASG d 608      25.571  24.952  -1.271  0.00  0.00    -0.572 OA
ATOM     61  C3  ASG d 608      25.820  21.617  -3.209  0.00  0.00     0.094 C 
ATOM     62  O4  ASG d 608      24.287  22.928  -1.818  0.00  0.00    -0.246 OA
ATOM     63  C5  ASG d 608      25.408  21.087  -0.816  0.00  0.00     0.090 C 
ATOM     64  O1  ASG d 608      23.391  18.842  -2.776  0.00  0.00    -0.369 OA
ATOM     65  C7  ASG d 608      24.436  20.375  -5.986  0.00  0.00     0.214 C 
ATOM     66  C2  ASG d 608      24.698  20.660  -3.592  0.00  0.00     0.087 C 
ATOM     67  O3  ASG d 608      25.940  22.664  -4.191  0.00  0.00    -0.348 OA
ATOM     68  OSA ASG d 608      23.204  24.875  -0.814  0.00  0.00    -0.572 OA
ATOM     69  H   ASG d 608      24.346  20.072  -8.096  0.00  0.00     0.040 H 
ATOM     70  H   ASG d 608      24.738  18.635  -7.183  0.00  0.00     0.040 H 
ATOM     71  H   ASG d 608      25.942  19.880  -7.414  0.00  0.00     0.040 H 
ATOM     72  H   ASG d 608      24.767  20.785   1.198  0.00  0.00     0.078 H 
ATOM     73  H   ASG d 608      24.255  22.315   0.479  0.00  0.00     0.078 H 
ATOM     74  H   ASG d 608      25.704  19.292  -4.863  0.00  0.00     0.163 HD
ATOM     75  H   ASG d 608      26.893  21.661   1.297  0.00  0.00     0.209 HD
ATOM     76  H   ASG d 608      25.399  18.989  -2.471  0.00  0.00     0.132 H 
ATOM     77  H   ASG d 608      26.340  22.878  -1.627  0.00  0.00     0.093 H 
ATOM     78  H   ASG d 608      26.744  21.079  -3.172  0.00  0.00     0.091 H 
ATOM     79  H   ASG d 608      26.357  20.594  -0.785  0.00  0.00     0.090 H 
ATOM     80  H   ASG d 608      22.612  19.419  -2.789  0.00  0.00     0.212 HD
ATOM     81  H   ASG d 608      23.785  21.209  -3.700  0.00  0.00     0.084 H 
ATOM     82  O6B GCD d 611      32.782  33.987  -4.203  0.00  0.00    -0.642 OA
ATOM     83  C6  GCD d 611      33.738  33.652  -5.008  0.00  0.00     0.233 C 
ATOM     84  C5  GCD d 611      34.537  32.422  -4.657  0.00  0.00     0.147 C 
ATOM     85  C2  GCD d 611      35.767  29.711  -4.533  0.00  0.00     0.111 C 
ATOM     86  O6A GCD d 611      34.101  34.154  -6.142  0.00  0.00    -0.642 OA
ATOM     87  C4  GCD d 611      35.520  32.301  -3.729  0.00  0.00    -0.034 C 
ATOM     88  C1  GCD d 611      34.294  29.886  -4.723  0.00  0.00     0.165 C 
ATOM     89  O3  GCD d 611      37.618  30.761  -3.498  0.00  0.00    -0.389 OA
ATOM     90  O5  GCD d 611      34.158  31.219  -5.425  0.00  0.00    -0.311 OA
ATOM     91  O2  GCD d 611      36.041  28.444  -3.865  0.00  0.00    -0.388 OA
ATOM     92  C3  GCD d 611      36.190  30.886  -3.570  0.00  0.00     0.084 C 
ATOM     93  H   GCD d 611      36.292  29.718  -5.466  0.00  0.00     0.095 H 
ATOM     94  H   GCD d 611      35.815  33.103  -3.151  0.00  0.00     0.085 H 
ATOM     95  H   GCD d 611      33.783  29.798  -3.786  0.00  0.00     0.134 H 
ATOM     96  H   GCD d 611      37.857  29.826  -3.402  0.00  0.00     0.210 HD
ATOM     97  H   GCD d 611      35.573  28.419  -3.016  0.00  0.00     0.210 HD
ATOM     98  H   GCD d 611      35.748  30.787  -2.601  0.00  0.00     0.093 H 
ENDROOT
TORSDOF 25
ENDMDL
MODEL 64
REMARK VINA RESULT:      -6.1      5.042     11.223
REMARK  0 active torsions:
REMARK  status: ('A' for Active; 'I' for Inactive)
REMARK       I    between atoms: O3_1  and  C3_6 
REMARK       I    between atoms: O3_3  and  C3_16 
REMARK       I    between atoms: O3_3  and  C1_32 
REMARK       I    between atoms: C8_5  and  C7_53 
REMARK       I    between atoms: C6_7  and  C5_47 
REMARK       I    between atoms: C6_7  and  O6_29 
REMARK       I    between atoms: O4_8  and  C4_45 
REMARK       I    between atoms: O4_8  and  C1_39 
REMARK       I    between atoms: N_10  and  C2_35 
REMARK       I    between atoms: N_10  and  C7_17 
REMARK       I    between atoms: C5_12  and  C6_42 
REMARK       I    between atoms: C1_14  and  O3_57 
REMARK       I    between atoms: C6_15  and  C5_20 
REMARK       I    between atoms: C7_17  and  C8_54 
REMARK       I    between atoms: O6_18  and  C6_42 
REMARK       I    between atoms: S_19  and  O4_46 
REMARK       I    between atoms: C4_22  and  O4_50 
REMARK       I    between atoms: C2_23  and  O2_51 
REMARK       I    between atoms: S_26  and  O4_50 
REMARK       I    between atoms: N_27  and  C2_56 
REMARK       I    between atoms: N_27  and  C7_53 
REMARK       I    between atoms: C5_31  and  C6_55 
REMARK       I    between atoms: C1_33  and  O1_48 
REMARK       I    between atoms: C4_34  and  O4_46 
REMARK       I    between atoms: C3_40  and  O3_57 
REMARK       I    between atoms: C2_41  and  O2_60 
REMARK       I    between atoms: O3_43  and  C3_52 
ROOT
ATOM      1  O3  BDP d 609      24.821  22.806  -8.215  0.00  0.00    -0.390 OA
ATOM      2  C3  BDP d 609      24.011  23.965  -8.062  0.00  0.00     0.092 C 
ATOM      3  O4  BDP d 609      24.526  24.101  -5.734  0.00  0.00    -0.348 OA
ATOM      4  C1  BDP d 609      23.262  26.087  -9.167  0.00  0.00     0.160 C 
ATOM      5  C5  BDP d 609      23.840  26.140  -6.841  0.00  0.00     0.152 C 
ATOM      6  O5  BDP d 609      23.883  26.835  -8.101  0.00  0.00    -0.340 OA
ATOM      7  O6B BDP d 609      25.607  27.453  -5.949  0.00  0.00    -0.646 OA
ATOM      8  C2  BDP d 609      23.972  24.742  -9.370  0.00  0.00     0.110 C 
ATOM      9  C4  BDP d 609      24.603  24.827  -6.963  0.00  0.00     0.103 C 
ATOM     10  C6  BDP d 609      24.430  27.069  -5.796  0.00  0.00     0.206 C 
ATOM     11  O6A BDP d 609      23.695  27.365  -4.829  0.00  0.00    -0.646 OA
ATOM     12  O2  BDP d 609      23.271  23.986 -10.347  0.00  0.00    -0.388 OA
ATOM     13  H   BDP d 609      24.452  22.245  -8.916  0.00  0.00     0.210 HD
ATOM     14  H   BDP d 609      23.012  23.683  -7.801  0.00  0.00     0.091 H 
ATOM     15  H   BDP d 609      22.239  25.897  -8.916  0.00  0.00     0.133 H 
ATOM     16  H   BDP d 609      22.841  25.887  -6.553  0.00  0.00     0.104 H 
ATOM     17  H   BDP d 609      24.975  24.921  -9.697  0.00  0.00     0.094 H 
ATOM     18  H   BDP d 609      25.622  25.057  -7.195  0.00  0.00     0.092 H 
ATOM     19  H   BDP d 609      22.363  23.828 -10.043  0.00  0.00     0.210 HD
ATOM     20  O7  ASG d 610      22.884  22.813  -2.643  0.00  0.00    -0.274 OA
ATOM     21  O3  ASG d 610      26.350  22.674  -1.545  0.00  0.00    -0.348 OA
ATOM     22  OSB ASG d 610      28.061  20.005  -1.846  0.00  0.00    -0.572 OA
ATOM     23  OSA ASG d 610      28.996  19.590  -4.027  0.00  0.00    -0.572 OA
ATOM     24  N   ASG d 610      24.490  24.375  -2.901  0.00  0.00    -0.349 N 
ATOM     25  C5  ASG d 610      27.880  23.084  -4.971  0.00  0.00     0.090 C 
ATOM     26  C3  ASG d 610      26.649  23.253  -2.831  0.00  0.00     0.094 C 
ATOM     27  C7  ASG d 610      23.281  23.975  -2.520  0.00  0.00     0.214 C 
ATOM     28  O6  ASG d 610      29.227  23.174  -6.988  0.00  0.00    -0.398 OA
ATOM     29  O5  ASG d 610      26.637  23.225  -5.688  0.00  0.00    -0.349 OA
ATOM     30  C4  ASG d 610      27.613  22.367  -3.644  0.00  0.00     0.114 C 
ATOM     31  S   ASG d 610      27.748  19.786  -3.273  0.00  0.00     0.252 S 
ATOM     32  C2  ASG d 610      25.363  23.465  -3.616  0.00  0.00     0.087 C 
ATOM     33  C1  ASG d 610      25.686  24.049  -4.988  0.00  0.00     0.154 C 
ATOM     34  C6  ASG d 610      28.850  22.360  -5.885  0.00  0.00     0.043 C 
ATOM     35  OSC ASG d 610      26.891  18.596  -3.443  0.00  0.00    -0.572 OA
ATOM     36  O4  ASG d 610      27.020  21.075  -3.900  0.00  0.00    -0.246 OA
ATOM     37  C8  ASG d 610      22.369  25.030  -1.901  0.00  0.00    -0.003 C 
ATOM     38  H   ASG d 610      24.793  25.289  -2.697  0.00  0.00     0.163 HD
ATOM     39  H   ASG d 610      28.320  24.024  -4.712  0.00  0.00     0.090 H 
ATOM     40  H   ASG d 610      27.129  24.193  -2.660  0.00  0.00     0.091 H 
ATOM     41  H   ASG d 610      29.845  22.686  -7.553  0.00  0.00     0.209 HD
ATOM     42  H   ASG d 610      28.521  22.211  -3.100  0.00  0.00     0.093 H 
ATOM     43  H   ASG d 610      24.871  22.522  -3.736  0.00  0.00     0.084 H 
ATOM     44  H   ASG d 610      26.102  25.025  -4.851  0.00  0.00     0.132 H 
ATOM     45  H   ASG d 610      28.384  21.469  -6.253  0.00  0.00     0.078 H 
ATOM     46  H   ASG d 610      29.729  22.123  -5.324  0.00  0.00     0.078 H 
ATOM     47  H   ASG d 610      21.433  24.583  -1.639  0.00  0.00     0.040 H 
ATOM     48  H   ASG d 610      22.204  25.817  -2.606  0.00  0.00     0.040 H 
ATOM     49  H   ASG d 610      22.831  25.429  -1.023  0.00  0.00     0.040 H 
ATOM     50  C8  ASG d 608      21.267  24.380 -13.338  0.00  0.00    -0.003 C 
ATOM     51  C6  ASG d 608      22.281  31.668  -9.998  0.00  0.00     0.043 C 
ATOM     52  O7  ASG d 608      23.074  25.916 -13.555  0.00  0.00    -0.274 OA
ATOM     53  S   ASG d 608      25.477  29.573 -10.324  0.00  0.00     0.252 S 
ATOM     54  OSC ASG d 608      26.220  28.339 -10.648  0.00  0.00    -0.572 OA
ATOM     55  N   ASG d 608      21.298  26.607 -12.341  0.00  0.00    -0.349 N 
ATOM     56  O6  ASG d 608      22.434  31.862  -8.595  0.00  0.00    -0.398 OA
ATOM     57  O5  ASG d 608      21.413  30.276 -11.728  0.00  0.00    -0.349 OA
ATOM     58  C1  ASG d 608      20.896  29.017 -12.204  0.00  0.00     0.151 C 
ATOM     59  C4  ASG d 608      22.873  29.194 -10.119  0.00  0.00     0.114 C 
ATOM     60  OSB ASG d 608      25.339  29.616  -8.857  0.00  0.00    -0.572 OA
ATOM     61  C3  ASG d 608      22.340  27.837 -10.525  0.00  0.00     0.094 C 
ATOM     62  O4  ASG d 608      23.999  29.597 -10.918  0.00  0.00    -0.246 OA
ATOM     63  C5  ASG d 608      21.791  30.253 -10.332  0.00  0.00     0.090 C 
ATOM     64  O1  ASG d 608      20.648  29.146 -13.560  0.00  0.00    -0.369 OA
ATOM     65  C7  ASG d 608      21.959  25.712 -13.076  0.00  0.00     0.214 C 
ATOM     66  C2  ASG d 608      21.911  27.877 -11.986  0.00  0.00     0.087 C 
ATOM     67  O3  ASG d 608      23.350  26.828 -10.330  0.00  0.00    -0.348 OA
ATOM     68  OSA ASG d 608      26.112  30.820 -10.799  0.00  0.00    -0.572 OA
ATOM     69  H   ASG d 608      21.902  23.760 -13.935  0.00  0.00     0.040 H 
ATOM     70  H   ASG d 608      20.347  24.552 -13.856  0.00  0.00     0.040 H 
ATOM     71  H   ASG d 608      21.067  23.893 -12.407  0.00  0.00     0.040 H 
ATOM     72  H   ASG d 608      21.572  32.376 -10.370  0.00  0.00     0.078 H 
ATOM     73  H   ASG d 608      23.239  31.802 -10.457  0.00  0.00     0.078 H 
ATOM     74  H   ASG d 608      20.385  26.404 -12.035  0.00  0.00     0.163 HD
ATOM     75  H   ASG d 608      21.577  31.744  -8.157  0.00  0.00     0.209 HD
ATOM     76  H   ASG d 608      20.005  28.776 -11.663  0.00  0.00     0.132 H 
ATOM     77  H   ASG d 608      23.169  29.112  -9.093  0.00  0.00     0.093 H 
ATOM     78  H   ASG d 608      21.495  27.593  -9.916  0.00  0.00     0.091 H 
ATOM     79  H   ASG d 608      20.978  29.993  -9.687  0.00  0.00     0.090 H 
ATOM     80  H   ASG d 608      21.473  29.363 -14.020  0.00  0.00     0.212 HD
ATOM     81  H   ASG d 608      22.768  28.050 -12.604  0.00  0.00     0.084 H 
ATOM     82  O6B GCD d 611      31.249  24.142  -0.063  0.00  0.00    -0.642 OA
ATOM     83  C6  GCD d 611      30.654  23.084   0.386  0.00  0.00     0.233 C 
ATOM     84  C5  GCD d 611      29.189  23.205   0.721  0.00  0.00     0.147 C 
ATOM     85  C2  GCD d 611      26.215  23.031   0.793  0.00  0.00     0.111 C 
ATOM     86  O6A GCD d 611      31.083  21.875   0.537  0.00  0.00    -0.642 OA
ATOM     87  C4  GCD d 611      28.627  23.768   1.821  0.00  0.00    -0.034 C 
ATOM     88  C1  GCD d 611      26.944  23.323  -0.480  0.00  0.00     0.165 C 
ATOM     89  O3  GCD d 611      26.401  23.366   3.128  0.00  0.00    -0.389 OA
ATOM     90  O5  GCD d 611      28.288  22.651  -0.310  0.00  0.00    -0.311 OA
ATOM     91  O2  GCD d 611      24.884  23.624   0.757  0.00  0.00    -0.388 OA
ATOM     92  C3  GCD d 611      27.056  23.756   1.912  0.00  0.00     0.084 C 
ATOM     93  H   GCD d 611      26.109  21.979   0.958  0.00  0.00     0.095 H 
ATOM     94  H   GCD d 611      29.205  24.186   2.566  0.00  0.00     0.085 H 
ATOM     95  H   GCD d 611      26.970  24.378  -0.662  0.00  0.00     0.134 H 
ATOM     96  H   GCD d 611      25.440  23.416   3.009  0.00  0.00     0.210 HD
ATOM     97  H   GCD d 611      24.959  24.579   0.608  0.00  0.00     0.210 HD
ATOM     98  H   GCD d 611      27.043  24.820   1.796  0.00  0.00     0.093 H 
ENDROOT
TORSDOF 25
ENDMDL
MODEL 65
REMARK VINA RESULT:      -6.0      4.752      9.492
REMARK  0 active torsions:
REMARK  status: ('A' for Active; 'I' for Inactive)
REMARK       I    between atoms: O3_1  and  C3_6 
REMARK       I    between atoms: O3_3  and  C3_16 
REMARK       I    between atoms: O3_3  and  C1_32 
REMARK       I    between atoms: C8_5  and  C7_53 
REMARK       I    between atoms: C6_7  and  C5_47 
REMARK       I    between atoms: C6_7  and  O6_29 
REMARK       I    between atoms: O4_8  and  C4_45 
REMARK       I    between atoms: O4_8  and  C1_39 
REMARK       I    between atoms: N_10  and  C2_35 
REMARK       I    between atoms: N_10  and  C7_17 
REMARK       I    between atoms: C5_12  and  C6_42 
REMARK       I    between atoms: C1_14  and  O3_57 
REMARK       I    between atoms: C6_15  and  C5_20 
REMARK       I    between atoms: C7_17  and  C8_54 
REMARK       I    between atoms: O6_18  and  C6_42 
REMARK       I    between atoms: S_19  and  O4_46 
REMARK       I    between atoms: C4_22  and  O4_50 
REMARK       I    between atoms: C2_23  and  O2_51 
REMARK       I    between atoms: S_26  and  O4_50 
REMARK       I    between atoms: N_27  and  C2_56 
REMARK       I    between atoms: N_27  and  C7_53 
REMARK       I    between atoms: C5_31  and  C6_55 
REMARK       I    between atoms: C1_33  and  O1_48 
REMARK       I    between atoms: C4_34  and  O4_46 
REMARK       I    between atoms: C3_40  and  O3_57 
REMARK       I    between atoms: C2_41  and  O2_60 
REMARK       I    between atoms: O3_43  and  C3_52 
ROOT
ATOM      1  O3  BDP d 609      25.098  26.070  -8.349  0.00  0.00    -0.390 OA
ATOM      2  C3  BDP d 609      25.576  26.845  -7.258  0.00  0.00     0.092 C 
ATOM      3  O4  BDP d 609      27.259  25.228  -6.756  0.00  0.00    -0.348 OA
ATOM      4  C1  BDP d 609      25.993  29.181  -6.447  0.00  0.00     0.160 C 
ATOM      5  C5  BDP d 609      27.649  27.500  -6.024  0.00  0.00     0.152 C 
ATOM      6  O5  BDP d 609      27.401  28.877  -6.364  0.00  0.00    -0.340 OA
ATOM      7  O6B BDP d 609      29.872  27.597  -6.859  0.00  0.00    -0.646 OA
ATOM      8  C2  BDP d 609      25.315  28.321  -7.522  0.00  0.00     0.110 C 
ATOM      9  C4  BDP d 609      27.065  26.599  -7.106  0.00  0.00     0.103 C 
ATOM     10  C6  BDP d 609      29.151  27.339  -5.873  0.00  0.00     0.206 C 
ATOM     11  O6A BDP d 609      29.563  26.928  -4.766  0.00  0.00    -0.646 OA
ATOM     12  O2  BDP d 609      23.916  28.564  -7.502  0.00  0.00    -0.388 OA
ATOM     13  H   BDP d 609      24.144  26.217  -8.458  0.00  0.00     0.210 HD
ATOM     14  H   BDP d 609      25.069  26.564  -6.358  0.00  0.00     0.091 H 
ATOM     15  H   BDP d 609      25.531  28.972  -5.504  0.00  0.00     0.133 H 
ATOM     16  H   BDP d 609      27.178  27.219  -5.106  0.00  0.00     0.104 H 
ATOM     17  H   BDP d 609      25.716  28.577  -8.480  0.00  0.00     0.094 H 
ATOM     18  H   BDP d 609      27.563  26.822  -8.026  0.00  0.00     0.092 H 
ATOM     19  H   BDP d 609      23.560  28.329  -6.630  0.00  0.00     0.210 HD
ATOM     20  O7  ASG d 610      27.423  22.294  -4.459  0.00  0.00    -0.274 OA
ATOM     21  O3  ASG d 610      29.598  21.065  -7.104  0.00  0.00    -0.348 OA
ATOM     22  OSB ASG d 610      28.454  19.257  -9.463  0.00  0.00    -0.572 OA
ATOM     23  OSA ASG d 610      27.353  20.431 -11.255  0.00  0.00    -0.572 OA
ATOM     24  N   ASG d 610      29.068  23.399  -5.535  0.00  0.00    -0.349 N 
ATOM     25  C5  ASG d 610      28.604  23.640  -9.678  0.00  0.00     0.090 C 
ATOM     26  C3  ASG d 610      29.378  22.354  -7.711  0.00  0.00     0.094 C 
ATOM     27  C7  ASG d 610      28.454  22.972  -4.435  0.00  0.00     0.214 C 
ATOM     28  O6  ASG d 610      28.128  25.006 -11.627  0.00  0.00    -0.398 OA
ATOM     29  O5  ASG d 610      27.697  24.374  -8.832  0.00  0.00    -0.349 OA
ATOM     30  C4  ASG d 610      28.772  22.223  -9.121  0.00  0.00     0.114 C 
ATOM     31  S   ASG d 610      27.334  20.155  -9.810  0.00  0.00     0.252 S 
ATOM     32  C2  ASG d 610      28.458  23.191  -6.834  0.00  0.00     0.087 C 
ATOM     33  C1  ASG d 610      28.203  24.542  -7.494  0.00  0.00     0.154 C 
ATOM     34  C6  ASG d 610      28.048  23.693 -11.089  0.00  0.00     0.043 C 
ATOM     35  OSC ASG d 610      26.041  19.537  -9.456  0.00  0.00    -0.572 OA
ATOM     36  O4  ASG d 610      27.485  21.569  -9.061  0.00  0.00    -0.246 OA
ATOM     37  C8  ASG d 610      29.085  23.353  -3.100  0.00  0.00    -0.003 C 
ATOM     38  H   ASG d 610      29.936  23.858  -5.466  0.00  0.00     0.163 HD
ATOM     39  H   ASG d 610      29.586  24.063  -9.701  0.00  0.00     0.090 H 
ATOM     40  H   ASG d 610      30.328  22.837  -7.804  0.00  0.00     0.091 H 
ATOM     41  H   ASG d 610      27.767  25.009 -12.527  0.00  0.00     0.209 HD
ATOM     42  H   ASG d 610      29.410  21.635  -9.747  0.00  0.00     0.093 H 
ATOM     43  H   ASG d 610      27.531  22.672  -6.711  0.00  0.00     0.084 H 
ATOM     44  H   ASG d 610      29.127  25.079  -7.535  0.00  0.00     0.132 H 
ATOM     45  H   ASG d 610      27.024  23.384 -11.073  0.00  0.00     0.078 H 
ATOM     46  H   ASG d 610      28.630  23.040 -11.705  0.00  0.00     0.078 H 
ATOM     47  H   ASG d 610      28.499  22.951  -2.301  0.00  0.00     0.040 H 
ATOM     48  H   ASG d 610      29.121  24.419  -3.015  0.00  0.00     0.040 H 
ATOM     49  H   ASG d 610      30.077  22.957  -3.049  0.00  0.00     0.040 H 
ATOM     50  C8  ASG d 608      21.500  31.173  -6.813  0.00  0.00    -0.003 C 
ATOM     51  C6  ASG d 608      28.760  33.742  -4.366  0.00  0.00     0.043 C 
ATOM     52  O7  ASG d 608      23.246  32.211  -8.055  0.00  0.00    -0.274 OA
ATOM     53  S   ASG d 608      28.683  32.201  -7.877  0.00  0.00     0.252 S 
ATOM     54  OSC ASG d 608      28.024  31.502  -8.997  0.00  0.00    -0.572 OA
ATOM     55  N   ASG d 608      23.573  32.003  -5.830  0.00  0.00    -0.349 N 
ATOM     56  O6  ASG d 608      29.775  32.860  -3.894  0.00  0.00    -0.398 OA
ATOM     57  O5  ASG d 608      26.422  34.098  -4.671  0.00  0.00    -0.349 OA
ATOM     58  C1  ASG d 608      25.066  33.617  -4.754  0.00  0.00     0.151 C 
ATOM     59  C4  ASG d 608      27.324  32.053  -5.619  0.00  0.00     0.114 C 
ATOM     60  OSB ASG d 608      29.497  31.198  -7.167  0.00  0.00    -0.572 OA
ATOM     61  C3  ASG d 608      25.935  31.455  -5.688  0.00  0.00     0.094 C 
ATOM     62  O4  ASG d 608      27.658  32.790  -6.808  0.00  0.00    -0.246 OA
ATOM     63  C5  ASG d 608      27.395  33.049  -4.459  0.00  0.00     0.090 C 
ATOM     64  O1  ASG d 608      24.248  34.698  -5.034  0.00  0.00    -0.369 OA
ATOM     65  C7  ASG d 608      22.863  31.840  -6.946  0.00  0.00     0.214 C 
ATOM     66  C2  ASG d 608      24.912  32.569  -5.875  0.00  0.00     0.087 C 
ATOM     67  O3  ASG d 608      25.852  30.516  -6.776  0.00  0.00    -0.348 OA
ATOM     68  OSA ASG d 608      29.534  33.341  -8.274  0.00  0.00    -0.572 OA
ATOM     69  H   ASG d 608      21.040  31.104  -7.776  0.00  0.00     0.040 H 
ATOM     70  H   ASG d 608      20.881  31.754  -6.162  0.00  0.00     0.040 H 
ATOM     71  H   ASG d 608      21.622  30.191  -6.406  0.00  0.00     0.040 H 
ATOM     72  H   ASG d 608      28.681  34.570  -3.693  0.00  0.00     0.078 H 
ATOM     73  H   ASG d 608      29.034  34.067  -5.348  0.00  0.00     0.078 H 
ATOM     74  H   ASG d 608      23.186  31.736  -4.965  0.00  0.00     0.163 HD
ATOM     75  H   ASG d 608      29.547  32.553  -3.004  0.00  0.00     0.209 HD
ATOM     76  H   ASG d 608      24.800  33.153  -3.828  0.00  0.00     0.132 H 
ATOM     77  H   ASG d 608      28.003  31.235  -5.497  0.00  0.00     0.093 H 
ATOM     78  H   ASG d 608      25.729  30.937  -4.775  0.00  0.00     0.091 H 
ATOM     79  H   ASG d 608      27.214  32.490  -3.565  0.00  0.00     0.090 H 
ATOM     80  H   ASG d 608      24.514  35.095  -5.878  0.00  0.00     0.212 HD
ATOM     81  H   ASG d 608      25.072  33.043  -6.821  0.00  0.00     0.084 H 
ATOM     82  O6B GCD d 611      33.740  20.534 -10.408  0.00  0.00    -0.642 OA
ATOM     83  C6  GCD d 611      33.017  19.540 -10.004  0.00  0.00     0.233 C 
ATOM     84  C5  GCD d 611      32.602  19.532  -8.554  0.00  0.00     0.147 C 
ATOM     85  C2  GCD d 611      31.129  19.659  -5.967  0.00  0.00     0.111 C 
ATOM     86  O6A GCD d 611      32.502  18.551 -10.656  0.00  0.00    -0.642 OA
ATOM     87  C4  GCD d 611      33.350  19.194  -7.473  0.00  0.00    -0.034 C 
ATOM     88  C1  GCD d 611      30.928  20.696  -7.025  0.00  0.00     0.165 C 
ATOM     89  O3  GCD d 611      32.793  18.207  -5.119  0.00  0.00    -0.389 OA
ATOM     90  O5  GCD d 611      31.211  19.974  -8.324  0.00  0.00    -0.311 OA
ATOM     91  O2  GCD d 611      30.875  20.230  -4.650  0.00  0.00    -0.388 OA
ATOM     92  C3  GCD d 611      32.656  19.279  -6.062  0.00  0.00     0.084 C 
ATOM     93  H   GCD d 611      30.475  18.822  -6.102  0.00  0.00     0.095 H 
ATOM     94  H   GCD d 611      34.333  18.895  -7.571  0.00  0.00     0.085 H 
ATOM     95  H   GCD d 611      31.535  21.555  -6.827  0.00  0.00     0.134 H 
ATOM     96  H   GCD d 611      32.305  18.423  -4.309  0.00  0.00     0.210 HD
ATOM     97  H   GCD d 611      31.460  20.991  -4.509  0.00  0.00     0.210 HD
ATOM     98  H   GCD d 611      33.289  20.101  -5.802  0.00  0.00     0.093 H 
ENDROOT
TORSDOF 25
ENDMDL
MODEL 66
REMARK VINA RESULT:      -5.9      4.984     12.072
REMARK  0 active torsions:
REMARK  status: ('A' for Active; 'I' for Inactive)
REMARK       I    between atoms: O3_1  and  C3_6 
REMARK       I    between atoms: O3_3  and  C3_16 
REMARK       I    between atoms: O3_3  and  C1_32 
REMARK       I    between atoms: C8_5  and  C7_53 
REMARK       I    between atoms: C6_7  and  C5_47 
REMARK       I    between atoms: C6_7  and  O6_29 
REMARK       I    between atoms: O4_8  and  C4_45 
REMARK       I    between atoms: O4_8  and  C1_39 
REMARK       I    between atoms: N_10  and  C2_35 
REMARK       I    between atoms: N_10  and  C7_17 
REMARK       I    between atoms: C5_12  and  C6_42 
REMARK       I    between atoms: C1_14  and  O3_57 
REMARK       I    between atoms: C6_15  and  C5_20 
REMARK       I    between atoms: C7_17  and  C8_54 
REMARK       I    between atoms: O6_18  and  C6_42 
REMARK       I    between atoms: S_19  and  O4_46 
REMARK       I    between atoms: C4_22  and  O4_50 
REMARK       I    between atoms: C2_23  and  O2_51 
REMARK       I    between atoms: S_26  and  O4_50 
REMARK       I    between atoms: N_27  and  C2_56 
REMARK       I    between atoms: N_27  and  C7_53 
REMARK       I    between atoms: C5_31  and  C6_55 
REMARK       I    between atoms: C1_33  and  O1_48 
REMARK       I    between atoms: C4_34  and  O4_46 
REMARK       I    between atoms: C3_40  and  O3_57 
REMARK       I    between atoms: C2_41  and  O2_60 
REMARK       I    between atoms: O3_43  and  C3_52 
ROOT
ATOM      1  O3  BDP d 609      26.868  24.355  -8.282  0.00  0.00    -0.390 OA
ATOM      2  C3  BDP d 609      25.687  25.141  -8.373  0.00  0.00     0.092 C 
ATOM      3  O4  BDP d 609      24.676  23.958  -6.562  0.00  0.00    -0.348 OA
ATOM      4  C1  BDP d 609      24.802  27.440  -8.839  0.00  0.00     0.160 C 
ATOM      5  C5  BDP d 609      23.875  26.195  -7.012  0.00  0.00     0.152 C 
ATOM      6  O5  BDP d 609      24.284  27.489  -7.493  0.00  0.00    -0.340 OA
ATOM      7  O6B BDP d 609      23.977  26.901  -4.745  0.00  0.00    -0.646 OA
ATOM      8  C2  BDP d 609      26.029  26.522  -8.914  0.00  0.00     0.110 C 
ATOM      9  C4  BDP d 609      25.078  25.261  -6.989  0.00  0.00     0.103 C 
ATOM     10  C6  BDP d 609      23.263  26.401  -5.638  0.00  0.00     0.206 C 
ATOM     11  O6A BDP d 609      22.080  26.023  -5.488  0.00  0.00    -0.646 OA
ATOM     12  O2  BDP d 609      26.446  26.409 -10.267  0.00  0.00    -0.388 OA
ATOM     13  H   BDP d 609      27.268  24.269  -9.163  0.00  0.00     0.210 HD
ATOM     14  H   BDP d 609      24.988  24.677  -9.037  0.00  0.00     0.091 H 
ATOM     15  H   BDP d 609      24.048  27.055  -9.493  0.00  0.00     0.133 H 
ATOM     16  H   BDP d 609      23.146  25.739  -7.649  0.00  0.00     0.104 H 
ATOM     17  H   BDP d 609      26.817  26.940  -8.323  0.00  0.00     0.094 H 
ATOM     18  H   BDP d 609      25.800  25.668  -6.312  0.00  0.00     0.092 H 
ATOM     19  H   BDP d 609      25.727  26.029 -10.796  0.00  0.00     0.210 HD
ATOM     20  O7  ASG d 610      22.423  20.994  -6.347  0.00  0.00    -0.274 OA
ATOM     21  O3  ASG d 610      24.253  20.542  -3.235  0.00  0.00    -0.348 OA
ATOM     22  OSB ASG d 610      26.839  18.687  -3.106  0.00  0.00    -0.572 OA
ATOM     23  OSA ASG d 610      28.892  19.682  -3.879  0.00  0.00    -0.572 OA
ATOM     24  N   ASG d 610      22.942  22.549  -4.799  0.00  0.00    -0.349 N 
ATOM     25  C5  ASG d 610      27.026  22.974  -4.036  0.00  0.00     0.090 C 
ATOM     26  C3  ASG d 610      24.907  21.778  -3.587  0.00  0.00     0.094 C 
ATOM     27  C7  ASG d 610      22.085  21.902  -5.584  0.00  0.00     0.214 C 
ATOM     28  O6  ASG d 610      29.035  24.321  -4.238  0.00  0.00    -0.398 OA
ATOM     29  O5  ASG d 610      26.508  23.396  -5.314  0.00  0.00    -0.349 OA
ATOM     30  C4  ASG d 610      26.435  21.606  -3.684  0.00  0.00     0.114 C 
ATOM     31  S   ASG d 610      27.523  19.303  -4.261  0.00  0.00     0.252 S 
ATOM     32  C2  ASG d 610      24.364  22.293  -4.912  0.00  0.00     0.087 C 
ATOM     33  C1  ASG d 610      25.080  23.584  -5.296  0.00  0.00     0.154 C 
ATOM     34  C6  ASG d 610      28.539  22.992  -4.134  0.00  0.00     0.043 C 
ATOM     35  OSC ASG d 610      27.584  18.360  -5.395  0.00  0.00    -0.572 OA
ATOM     36  O4  ASG d 610      26.773  20.651  -4.714  0.00  0.00    -0.246 OA
ATOM     37  C8  ASG d 610      20.622  22.328  -5.506  0.00  0.00    -0.003 C 
ATOM     38  H   ASG d 610      22.610  23.202  -4.141  0.00  0.00     0.163 HD
ATOM     39  H   ASG d 610      26.745  23.628  -3.237  0.00  0.00     0.090 H 
ATOM     40  H   ASG d 610      24.703  22.486  -2.812  0.00  0.00     0.091 H 
ATOM     41  H   ASG d 610      30.002  24.301  -4.299  0.00  0.00     0.209 HD
ATOM     42  H   ASG d 610      26.827  21.242  -2.757  0.00  0.00     0.093 H 
ATOM     43  H   ASG d 610      24.533  21.553  -5.666  0.00  0.00     0.084 H 
ATOM     44  H   ASG d 610      24.835  24.335  -4.575  0.00  0.00     0.132 H 
ATOM     45  H   ASG d 610      28.840  22.440  -4.999  0.00  0.00     0.078 H 
ATOM     46  H   ASG d 610      28.940  22.551  -3.245  0.00  0.00     0.078 H 
ATOM     47  H   ASG d 610      20.042  21.735  -6.181  0.00  0.00     0.040 H 
ATOM     48  H   ASG d 610      20.537  23.360  -5.773  0.00  0.00     0.040 H 
ATOM     49  H   ASG d 610      20.263  22.187  -4.509  0.00  0.00     0.040 H 
ATOM     50  C8  ASG d 608      26.559  28.280 -13.366  0.00  0.00    -0.003 C 
ATOM     51  C6  ASG d 608      21.994  32.377  -8.106  0.00  0.00     0.043 C 
ATOM     52  O7  ASG d 608      27.204  29.807 -11.657  0.00  0.00    -0.274 OA
ATOM     53  S   ASG d 608      25.345  31.130  -6.719  0.00  0.00     0.252 S 
ATOM     54  OSC ASG d 608      26.610  30.375  -6.805  0.00  0.00    -0.572 OA
ATOM     55  N   ASG d 608      24.986  29.522 -11.975  0.00  0.00    -0.349 N 
ATOM     56  O6  ASG d 608      21.225  31.742  -7.089  0.00  0.00    -0.398 OA
ATOM     57  O5  ASG d 608      23.013  32.165 -10.251  0.00  0.00    -0.349 OA
ATOM     58  C1  ASG d 608      23.510  31.371 -11.346  0.00  0.00     0.151 C 
ATOM     59  C4  ASG d 608      23.620  30.483  -8.610  0.00  0.00     0.114 C 
ATOM     60  OSB ASG d 608      24.411  30.310  -5.928  0.00  0.00    -0.572 OA
ATOM     61  C3  ASG d 608      24.113  29.567  -9.709  0.00  0.00     0.094 C 
ATOM     62  O4  ASG d 608      24.651  31.366  -8.134  0.00  0.00    -0.246 OA
ATOM     63  C5  ASG d 608      22.502  31.376  -9.151  0.00  0.00     0.090 C 
ATOM     64  O1  ASG d 608      24.037  32.234 -12.292  0.00  0.00    -0.369 OA
ATOM     65  C7  ASG d 608      26.267  29.272 -12.247  0.00  0.00     0.214 C 
ATOM     66  C2  ASG d 608      24.616  30.404 -10.879  0.00  0.00     0.087 C 
ATOM     67  O3  ASG d 608      25.167  28.720  -9.213  0.00  0.00    -0.348 OA
ATOM     68  OSA ASG d 608      25.465  32.472  -6.112  0.00  0.00    -0.572 OA
ATOM     69  H   ASG d 608      27.617  28.171 -13.480  0.00  0.00     0.040 H 
ATOM     70  H   ASG d 608      26.136  28.640 -14.281  0.00  0.00     0.040 H 
ATOM     71  H   ASG d 608      26.128  27.331 -13.123  0.00  0.00     0.040 H 
ATOM     72  H   ASG d 608      21.385  33.108  -8.595  0.00  0.00     0.078 H 
ATOM     73  H   ASG d 608      22.845  32.832  -7.642  0.00  0.00     0.078 H 
ATOM     74  H   ASG d 608      24.282  29.104 -12.522  0.00  0.00     0.163 HD
ATOM     75  H   ASG d 608      20.447  31.322  -7.488  0.00  0.00     0.209 HD
ATOM     76  H   ASG d 608      22.709  30.788 -11.750  0.00  0.00     0.132 H 
ATOM     77  H   ASG d 608      23.288  29.853  -7.811  0.00  0.00     0.093 H 
ATOM     78  H   ASG d 608      23.306  28.947 -10.040  0.00  0.00     0.091 H 
ATOM     79  H   ASG d 608      21.705  30.725  -9.443  0.00  0.00     0.090 H 
ATOM     80  H   ASG d 608      24.759  32.745 -11.895  0.00  0.00     0.212 HD
ATOM     81  H   ASG d 608      25.469  30.971 -10.569  0.00  0.00     0.084 H 
ATOM     82  O6B GCD d 611      26.103  21.299   1.700  0.00  0.00    -0.642 OA
ATOM     83  C6  GCD d 611      25.937  20.130   1.172  0.00  0.00     0.233 C 
ATOM     84  C5  GCD d 611      24.688  19.912   0.355  0.00  0.00     0.147 C 
ATOM     85  C2  GCD d 611      22.688  19.478  -1.810  0.00  0.00     0.111 C 
ATOM     86  O6A GCD d 611      26.710  19.096   1.152  0.00  0.00    -0.642 OA
ATOM     87  C4  GCD d 611      23.425  19.691   0.803  0.00  0.00    -0.034 C 
ATOM     88  C1  GCD d 611      23.763  20.509  -1.944  0.00  0.00     0.165 C 
ATOM     89  O3  GCD d 611      21.355  18.424  -0.164  0.00  0.00    -0.389 OA
ATOM     90  O5  GCD d 611      24.904  19.977  -1.105  0.00  0.00    -0.311 OA
ATOM     91  O2  GCD d 611      21.518  19.868  -2.588  0.00  0.00    -0.388 OA
ATOM     92  C3  GCD d 611      22.301  19.496  -0.282  0.00  0.00     0.084 C 
ATOM     93  H   GCD d 611      23.013  18.518  -2.154  0.00  0.00     0.095 H 
ATOM     94  H   GCD d 611      23.211  19.652   1.811  0.00  0.00     0.085 H 
ATOM     95  H   GCD d 611      23.391  21.474  -1.668  0.00  0.00     0.134 H 
ATOM     96  H   GCD d 611      20.738  18.452  -0.912  0.00  0.00     0.210 HD
ATOM     97  H   GCD d 611      21.208  20.738  -2.291  0.00  0.00     0.210 HD
ATOM     98  H   GCD d 611      21.862  20.427   0.008  0.00  0.00     0.093 H 
ENDROOT
TORSDOF 25
ENDMDL
