REMARK  0 active torsions:
REMARK  status: ('A' for Active; 'I' for Inactive)
REMARK       I    between atoms: O3_1  and  C3_6 
REMARK       I    between atoms: O3_3  and  C3_16 
REMARK       I    between atoms: O3_3  and  C1_32 
REMARK       I    between atoms: C8_5  and  C7_53 
REMARK       I    between atoms: C6_7  and  C5_47 
REMARK       I    between atoms: C6_7  and  O6_29 
REMARK       I    between atoms: O4_8  and  C4_45 
REMARK       I    between atoms: O4_8  and  C1_39 
REMARK       I    between atoms: N_10  and  C2_35 
REMARK       I    between atoms: N_10  and  C7_17 
REMARK       I    between atoms: C5_12  and  C6_42 
REMARK       I    between atoms: C1_14  and  O3_57 
REMARK       I    between atoms: C6_15  and  C5_20 
REMARK       I    between atoms: C7_17  and  C8_54 
REMARK       I    between atoms: O6_18  and  C6_42 
REMARK       I    between atoms: S_19  and  O4_46 
REMARK       I    between atoms: C4_22  and  O4_50 
REMARK       I    between atoms: C2_23  and  O2_51 
REMARK       I    between atoms: S_26  and  O4_50 
REMARK       I    between atoms: N_27  and  C2_56 
REMARK       I    between atoms: N_27  and  C7_53 
REMARK       I    between atoms: C5_31  and  C6_55 
REMARK       I    between atoms: C1_33  and  O1_48 
REMARK       I    between atoms: C4_34  and  O4_46 
REMARK       I    between atoms: C3_40  and  O3_57 
REMARK       I    between atoms: C2_41  and  O2_60 
REMARK       I    between atoms: O3_43  and  C3_52 
ROOT
ATOM      1  O3  BDP d 609      26.174  24.823  -5.892  0.00  0.00    -0.390 OA
ATOM      2  C3  BDP d 609      26.930  24.303  -4.806  0.00  0.00     0.092 C 
ATOM      3  O4  BDP d 609      28.861  25.542  -5.466  0.00  0.00    -0.348 OA
ATOM      4  C1  BDP d 609      26.822  23.598  -2.402  0.00  0.00     0.160 C 
ATOM      5  C5  BDP d 609      28.705  24.882  -3.144  0.00  0.00     0.152 C 
ATOM      6  O5  BDP d 609      27.769  24.637  -2.078  0.00  0.00    -0.340 OA
ATOM      7  O6B BDP d 609      29.258  27.030  -2.291  0.00  0.00    -0.646 OA
ATOM      8  C2  BDP d 609      26.003  23.979  -3.643  0.00  0.00     0.110 C 
ATOM      9  C4  BDP d 609      27.949  25.344  -4.384  0.00  0.00     0.103 C 
ATOM     10  C6  BDP d 609      29.697  25.915  -2.641  0.00  0.00     0.206 C 
ATOM     11  O6A BDP d 609      30.902  25.582  -2.639  0.00  0.00    -0.646 OA
ATOM     12  O2  BDP d 609      25.161  22.892  -3.999  0.00  0.00    -0.388 OA
ATOM     13  H   BDP d 609      25.517  24.166  -6.173  0.00  0.00     0.210 HD
ATOM     14  H   BDP d 609      27.431  23.406  -5.104  0.00  0.00     0.091 H 
ATOM     15  H   BDP d 609      27.350  22.691  -2.609  0.00  0.00     0.133 H 
ATOM     16  H   BDP d 609      29.240  23.999  -3.424  0.00  0.00     0.104 H 
ATOM     17  H   BDP d 609      25.411  24.842  -3.421  0.00  0.00     0.094 H 
ATOM     18  H   BDP d 609      27.451  26.260  -4.145  0.00  0.00     0.092 H 
ATOM     19  H   BDP d 609      25.705  22.114  -4.199  0.00  0.00     0.210 HD
ATOM     20  O7  ASG d 610      31.819  24.776  -7.605  0.00  0.00    -0.274 OA
ATOM     21  O3  ASG d 610      31.538  28.340  -8.281  0.00  0.00    -0.348 OA
ATOM     22  OSB ASG d 610      29.898  29.410 -10.792  0.00  0.00    -0.572 OA
ATOM     23  OSA ASG d 610      27.507  29.527 -10.520  0.00  0.00    -0.572 OA
ATOM     24  N   ASG d 610      31.476  26.449  -6.133  0.00  0.00    -0.349 N 
ATOM     25  C5  ASG d 610      28.068  28.753  -6.855  0.00  0.00     0.090 C 
ATOM     26  C3  ASG d 610      30.455  28.307  -7.330  0.00  0.00     0.094 C 
ATOM     27  C7  ASG d 610      32.125  25.374  -6.570  0.00  0.00     0.214 C 
ATOM     28  O6  ASG d 610      25.825  29.389  -6.182  0.00  0.00    -0.398 OA
ATOM     29  O5  ASG d 610      27.907  27.388  -6.421  0.00  0.00    -0.349 OA
ATOM     30  C4  ASG d 610      29.137  28.807  -7.951  0.00  0.00     0.114 C 
ATOM     31  S   ASG d 610      28.674  28.631 -10.515  0.00  0.00     0.252 S 
ATOM     32  C2  ASG d 610      30.269  26.891  -6.804  0.00  0.00     0.087 C 
ATOM     33  C1  ASG d 610      29.103  26.854  -5.822  0.00  0.00     0.154 C 
ATOM     34  C6  ASG d 610      26.704  29.253  -7.291  0.00  0.00     0.043 C 
ATOM     35  OSC ASG d 610      28.480  27.583 -11.536  0.00  0.00    -0.572 OA
ATOM     36  O4  ASG d 610      28.744  27.962  -9.055  0.00  0.00    -0.246 OA
ATOM     37  C8  ASG d 610      33.301  24.889  -5.729  0.00  0.00    -0.003 C 
ATOM     38  H   ASG d 610      31.815  26.945  -5.353  0.00  0.00     0.163 HD
ATOM     39  H   ASG d 610      28.416  29.399  -6.076  0.00  0.00     0.090 H 
ATOM     40  H   ASG d 610      30.710  28.962  -6.524  0.00  0.00     0.091 H 
ATOM     41  H   ASG d 610      24.963  29.709  -6.490  0.00  0.00     0.209 HD
ATOM     42  H   ASG d 610      29.257  29.802  -8.325  0.00  0.00     0.093 H 
ATOM     43  H   ASG d 610      30.063  26.240  -7.628  0.00  0.00     0.084 H 
ATOM     44  H   ASG d 610      29.360  27.445  -4.968  0.00  0.00     0.132 H 
ATOM     45  H   ASG d 610      26.283  28.557  -7.986  0.00  0.00     0.078 H 
ATOM     46  H   ASG d 610      26.826  30.214  -7.745  0.00  0.00     0.078 H 
ATOM     47  H   ASG d 610      33.734  24.024  -6.186  0.00  0.00     0.040 H 
ATOM     48  H   ASG d 610      32.958  24.640  -4.747  0.00  0.00     0.040 H 
ATOM     49  H   ASG d 610      34.036  25.663  -5.664  0.00  0.00     0.040 H 
ATOM     50  C8  ASG d 608      23.315  20.138  -2.542  0.00  0.00    -0.003 C 
ATOM     51  C6  ASG d 608      28.038  23.326   3.187  0.00  0.00     0.043 C 
ATOM     52  O7  ASG d 608      22.931  22.008  -1.118  0.00  0.00    -0.274 OA
ATOM     53  S   ASG d 608      26.020  25.870   1.147  0.00  0.00     0.252 S 
ATOM     54  OSC ASG d 608      25.114  26.261   0.049  0.00  0.00    -0.572 OA
ATOM     55  N   ASG d 608      24.835  20.844  -0.769  0.00  0.00    -0.349 N 
ATOM     56  O6  ASG d 608      29.290  23.944   2.903  0.00  0.00    -0.398 OA
ATOM     57  O5  ASG d 608      26.401  21.741   2.486  0.00  0.00    -0.349 OA
ATOM     58  C1  ASG d 608      25.795  20.903   1.482  0.00  0.00     0.151 C 
ATOM     59  C4  ASG d 608      27.008  23.439   0.861  0.00  0.00     0.114 C 
ATOM     60  OSB ASG d 608      27.387  26.211   0.715  0.00  0.00    -0.572 OA
ATOM     61  C3  ASG d 608      26.442  22.592  -0.258  0.00  0.00     0.094 C 
ATOM     62  O4  ASG d 608      26.017  24.304   1.443  0.00  0.00    -0.246 OA
ATOM     63  C5  ASG d 608      27.505  22.532   1.988  0.00  0.00     0.090 C 
ATOM     64  O1  ASG d 608      24.712  20.263   2.060  0.00  0.00    -0.369 OA
ATOM     65  C7  ASG d 608      23.690  21.084  -1.408  0.00  0.00     0.214 C 
ATOM     66  C2  ASG d 608      25.303  21.735   0.281  0.00  0.00     0.087 C 
ATOM     67  O3  ASG d 608      25.969  23.433  -1.327  0.00  0.00    -0.348 OA
ATOM     68  OSA ASG d 608      25.734  26.515   2.445  0.00  0.00    -0.572 OA
ATOM     69  H   ASG d 608      22.381  20.442  -2.966  0.00  0.00     0.040 H 
ATOM     70  H   ASG d 608      23.227  19.142  -2.161  0.00  0.00     0.040 H 
ATOM     71  H   ASG d 608      24.074  20.166  -3.295  0.00  0.00     0.040 H 
ATOM     72  H   ASG d 608      28.161  22.660   4.015  0.00  0.00     0.078 H 
ATOM     73  H   ASG d 608      27.332  24.098   3.413  0.00  0.00     0.078 H 
ATOM     74  H   ASG d 608      25.370  20.054  -1.011  0.00  0.00     0.163 HD
ATOM     75  H   ASG d 608      29.947  23.262   2.695  0.00  0.00     0.209 HD
ATOM     76  H   ASG d 608      26.520  20.202   1.125  0.00  0.00     0.132 H 
ATOM     77  H   ASG d 608      27.794  24.026   0.433  0.00  0.00     0.093 H 
ATOM     78  H   ASG d 608      27.211  21.955  -0.642  0.00  0.00     0.091 H 
ATOM     79  H   ASG d 608      28.290  21.934   1.575  0.00  0.00     0.090 H 
ATOM     80  H   ASG d 608      24.075  20.924   2.372  0.00  0.00     0.212 HD
ATOM     81  H   ASG d 608      24.502  22.369   0.600  0.00  0.00     0.084 H 
ATOM     82  O6B GCD d 611      31.561  33.626  -7.642  0.00  0.00    -0.642 OA
ATOM     83  C6  GCD d 611      31.864  33.040  -8.755  0.00  0.00     0.233 C 
ATOM     84  C5  GCD d 611      32.712  31.796  -8.672  0.00  0.00     0.147 C 
ATOM     85  C2  GCD d 611      33.771  29.011  -8.701  0.00  0.00     0.111 C 
ATOM     86  O6A GCD d 611      31.498  33.292  -9.968  0.00  0.00    -0.642 OA
ATOM     87  C4  GCD d 611      34.052  31.710  -8.471  0.00  0.00    -0.034 C 
ATOM     88  C1  GCD d 611      32.466  29.337  -8.048  0.00  0.00     0.165 C 
ATOM     89  O3  GCD d 611      35.882  29.977  -9.159  0.00  0.00    -0.389 OA
ATOM     90  O5  GCD d 611      31.950  30.538  -8.810  0.00  0.00    -0.311 OA
ATOM     91  O2  GCD d 611      34.378  27.851  -8.059  0.00  0.00    -0.388 OA
ATOM     92  C3  GCD d 611      34.682  30.268  -8.428  0.00  0.00     0.084 C 
ATOM     93  H   GCD d 611      33.651  28.793  -9.742  0.00  0.00     0.095 H 
ATOM     94  H   GCD d 611      34.633  32.554  -8.351  0.00  0.00     0.085 H 
ATOM     95  H   GCD d 611      32.599  29.475  -6.995  0.00  0.00     0.134 H 
ATOM     96  H   GCD d 611      36.128  29.049  -9.021  0.00  0.00     0.210 HD
ATOM     97  H   GCD d 611      34.495  28.030  -7.113  0.00  0.00     0.210 HD
ATOM     98  H   GCD d 611      34.890  30.392  -7.386  0.00  0.00     0.093 H 
ENDROOT
TORSDOF 25
