MODEL 1
REMARK VINA RESULT:     -17.7      0.000      0.000
REMARK  0 active torsions:
REMARK  status: ('A' for Active; 'I' for Inactive)
REMARK       I    between atoms: N_2  and  C2_29 
REMARK       I    between atoms: N_2  and  S1_49 
REMARK       I    between atoms: S_3  and  O2_103 
REMARK       I    between atoms: C5_6  and  C6_92 
REMARK       I    between atoms: C4_8  and  O4_100 
REMARK       I    between atoms: C2_9  and  O2_103 
REMARK       I    between atoms: O1S_10  and  S1_36 
REMARK       I    between atoms: O2S_11  and  S1_93 
REMARK       I    between atoms: C3_12  and  O3_54 
REMARK       I    between atoms: O4_13  and  C4_20 
REMARK       I    between atoms: O4_13  and  C1_26 
REMARK       I    between atoms: O6_15  and  C6_46 
REMARK       I    between atoms: O6_15  and  S2_104 
REMARK       I    between atoms: C5_16  and  C6_46 
REMARK       I    between atoms: C4_17  and  O4_90 
REMARK       I    between atoms: S_18  and  O2_62 
REMARK       I    between atoms: C3_19  and  O3_68 
REMARK       I    between atoms: S2_25  and  O6_53 
REMARK       I    between atoms: O4_27  and  C4_69 
REMARK       I    between atoms: O4_27  and  C1_89 
REMARK       I    between atoms: O3_28  and  C3_37 
REMARK       I    between atoms: C1_30  and  O4_73 
REMARK       I    between atoms: O2S_32  and  S1_49 
REMARK       I    between atoms: S_33  and  O2_48 
REMARK       I    between atoms: C6_34  and  C5_43 
REMARK       I    between atoms: C6_34  and  O6_60 
REMARK       I    between atoms: S1_36  and  N_85 
REMARK       I    between atoms: S1_36  and  O2S_63 
REMARK       I    between atoms: S1_36  and  O3S_74 
REMARK       I    between atoms: C6_40  and  C5_94 
REMARK       I    between atoms: O3S_42  and  S1_49 
REMARK       I    between atoms: C5_44  and  C6_99 
REMARK       I    between atoms: C1_47  and  O4_106 
REMARK       I    between atoms: O2_48  and  C2_57 
REMARK       I    between atoms: S1_49  and  O1S_55 
REMARK       I    between atoms: O1S_51  and  S1_93 
REMARK       I    between atoms: C3_52  and  O3_87 
REMARK       I    between atoms: O6_53  and  C6_92 
REMARK       I    between atoms: O3S_56  and  S1_93 
REMARK       I    between atoms: O3_58  and  C3_98 
REMARK       I    between atoms: C1_59  and  O1_81 
REMARK       I    between atoms: O6_60  and  S2_65 
REMARK       I    between atoms: O2_62  and  C2_77 
REMARK       I    between atoms: O3_64  and  C3_75 
REMARK       I    between atoms: C5_67  and  C6_101 
REMARK       I    between atoms: O4_73  and  C4_96 
REMARK       I    between atoms: C2_76  and  N_85 
REMARK       I    between atoms: N_78  and  C2_91 
REMARK       I    between atoms: N_78  and  S1_93 
REMARK       I    between atoms: C1_80  and  O4_100 
REMARK       I    between atoms: C4_102  and  O4_106 
ROOT
ATOM      1  O5S SGN d 305     -14.455  52.909  13.601  0.00  0.00    -0.572 OA
ATOM      2  C5  SGN d 305     -17.778  55.997  14.206  0.00  0.00     0.091 C 
ATOM      3  O1S SGN d 305     -18.643  54.381  18.953  0.00  0.00    -0.296 OA
ATOM      4  O4  SGN d 305     -16.474  57.904  14.502  0.00  0.00    -0.348 OA
ATOM      5  C4  SGN d 305     -17.052  56.856  15.191  0.00  0.00     0.095 C 
ATOM      6  O5  SGN d 305     -18.274  54.881  14.855  0.00  0.00    -0.349 OA
ATOM      7  S2  SGN d 305     -14.905  53.993  12.760  0.00  0.00     0.251 S 
ATOM      8  O3  SGN d 305     -17.582  58.251  17.045  0.00  0.00    -0.391 OA
ATOM      9  C1  SGN d 305     -19.221  55.190  15.857  0.00  0.00     0.150 C 
ATOM     10  S1  SGN d 305     -19.657  55.372  19.100  0.00  0.00     0.156 S 
ATOM     11  C3  SGN d 305     -18.120  57.359  16.129  0.00  0.00     0.083 C 
ATOM     12  O6  SGN d 305     -15.875  54.828  13.607  0.00  0.00    -0.254 OA
ATOM     13  O2S SGN d 305     -19.454  56.154  20.249  0.00  0.00    -0.296 OA
ATOM     14  O4S SGN d 305     -13.861  54.921  12.402  0.00  0.00    -0.572 OA
ATOM     15  O3S SGN d 305     -20.947  54.803  19.004  0.00  0.00    -0.296 OA
ATOM     16  C2  SGN d 305     -18.599  56.144  16.852  0.00  0.00     0.081 C 
ATOM     17  N   SGN d 305     -19.540  56.443  17.890  0.00  0.00    -0.210 NA
ATOM     18  C6  SGN d 305     -16.950  55.507  13.073  0.00  0.00     0.067 C 
ATOM     19  O6S SGN d 305     -15.700  53.522  11.631  0.00  0.00    -0.572 OA
ATOM     20  H   SGN d 305     -18.541  56.625  13.796  0.00  0.00     0.090 H 
ATOM     21  H   SGN d 305     -17.771  54.797  19.023  0.00  0.00     0.231 HD
ATOM     22  H   SGN d 305     -16.281  56.340  15.724  0.00  0.00     0.091 H 
ATOM     23  H   SGN d 305     -17.269  59.043  16.580  0.00  0.00     0.210 HD
ATOM     24  H   SGN d 305     -19.503  54.285  16.354  0.00  0.00     0.131 H 
ATOM     25  H   SGN d 305     -18.901  57.867  15.602  0.00  0.00     0.089 H 
ATOM     26  H   SGN d 305     -18.551  56.508  20.244  0.00  0.00     0.231 HD
ATOM     27  H   SGN d 305     -21.010  54.280  18.190  0.00  0.00     0.231 HD
ATOM     28  H   SGN d 305     -17.750  55.700  17.326  0.00  0.00     0.076 H 
ATOM     29  H   SGN d 305     -19.277  57.341  18.296  0.00  0.00     0.140 HD
ATOM     30  H   SGN d 305     -16.605  56.334  12.487  0.00  0.00     0.080 H 
ATOM     31  H   SGN d 305     -17.523  54.864  12.438  0.00  0.00     0.080 H 
ATOM     32  N   SGN d 303     -25.485  54.619   8.648  0.00  0.00    -0.210 NA
ATOM     33  C4  SGN d 303     -25.011  55.819  12.222  0.00  0.00     0.095 C 
ATOM     34  C2  SGN d 303     -25.640  55.480   9.808  0.00  0.00     0.081 C 
ATOM     35  O5S SGN d 303     -25.605  60.285  13.277  0.00  0.00    -0.572 OA
ATOM     36  O2S SGN d 303     -24.962  55.958   6.651  0.00  0.00    -0.296 OA
ATOM     37  C6  SGN d 303     -26.862  56.820  13.643  0.00  0.00     0.067 C 
ATOM     38  O3S SGN d 303     -26.184  53.913   6.432  0.00  0.00    -0.296 OA
ATOM     39  C5  SGN d 303     -26.509  55.891  12.495  0.00  0.00     0.091 C 
ATOM     40  S1  SGN d 303     -26.000  55.122   7.178  0.00  0.00     0.156 S 
ATOM     41  O6S SGN d 303     -27.910  59.635  13.091  0.00  0.00    -0.572 OA
ATOM     42  O1S SGN d 303     -27.220  55.858   7.359  0.00  0.00    -0.296 OA
ATOM     43  O3  SGN d 303     -23.433  55.030  10.609  0.00  0.00    -0.391 OA
ATOM     44  O6  SGN d 303     -26.209  58.022  13.375  0.00  0.00    -0.254 OA
ATOM     45  S2  SGN d 303     -26.662  59.443  13.742  0.00  0.00     0.251 S 
ATOM     46  O5  SGN d 303     -27.213  56.367  11.354  0.00  0.00    -0.349 OA
ATOM     47  C1  SGN d 303     -27.096  55.541  10.217  0.00  0.00     0.150 C 
ATOM     48  O4S SGN d 303     -26.806  59.485  15.158  0.00  0.00    -0.572 OA
ATOM     49  C3  SGN d 303     -24.797  54.965  10.967  0.00  0.00     0.083 C 
ATOM     50  O4  SGN d 303     -24.399  55.190  13.314  0.00  0.00    -0.348 OA
ATOM     51  H   SGN d 303     -25.985  53.754   8.854  0.00  0.00     0.140 HD
ATOM     52  H   SGN d 303     -24.597  56.796  12.080  0.00  0.00     0.091 H 
ATOM     53  H   SGN d 303     -25.306  56.463   9.550  0.00  0.00     0.076 H 
ATOM     54  H   SGN d 303     -24.152  55.436   6.540  0.00  0.00     0.231 HD
ATOM     55  H   SGN d 303     -26.523  56.410  14.572  0.00  0.00     0.080 H 
ATOM     56  H   SGN d 303     -27.920  56.957  13.728  0.00  0.00     0.080 H 
ATOM     57  H   SGN d 303     -25.333  53.458   6.339  0.00  0.00     0.231 HD
ATOM     58  H   SGN d 303     -26.793  54.891  12.745  0.00  0.00     0.090 H 
ATOM     59  H   SGN d 303     -27.038  56.663   7.868  0.00  0.00     0.231 HD
ATOM     60  H   SGN d 303     -22.890  54.703  11.343  0.00  0.00     0.210 HD
ATOM     61  H   SGN d 303     -27.688  55.968   9.435  0.00  0.00     0.131 H 
ATOM     62  H   SGN d 303     -25.090  53.958  11.178  0.00  0.00     0.089 H 
ATOM     63  S   IDS d 302     -26.890  50.569   8.608  0.00  0.00     0.252 S 
ATOM     64  O2S IDS d 302     -25.520  50.948   8.675  0.00  0.00    -0.572 OA
ATOM     65  O62 IDS d 302     -29.850  55.746  12.687  0.00  0.00    -0.646 OA
ATOM     66  C2  IDS d 302     -28.995  51.674   9.647  0.00  0.00     0.134 C 
ATOM     67  O5  IDS d 302     -28.945  52.351  11.940  0.00  0.00    -0.340 OA
ATOM     68  O1S IDS d 302     -27.468  50.718   7.314  0.00  0.00    -0.572 OA
ATOM     69  O4  IDS d 302     -27.598  54.238  10.434  0.00  0.00    -0.348 OA
ATOM     70  O3S IDS d 302     -27.125  49.287   9.167  0.00  0.00    -0.572 OA
ATOM     71  C5  IDS d 302     -29.533  53.606  11.644  0.00  0.00     0.152 C 
ATOM     72  C1  IDS d 302     -29.336  51.310  11.061  0.00  0.00     0.161 C 
ATOM     73  C3  IDS d 302     -29.379  53.105   9.271  0.00  0.00     0.094 C 
ATOM     74  C4  IDS d 302     -28.999  54.110  10.340  0.00  0.00     0.103 C 
ATOM     75  O3  IDS d 302     -30.773  53.153   9.117  0.00  0.00    -0.390 OA
ATOM     76  O61 IDS d 302     -28.821  54.286  13.837  0.00  0.00    -0.646 OA
ATOM     77  C6  IDS d 302     -29.390  54.602  12.792  0.00  0.00     0.206 C 
ATOM     78  O2  IDS d 302     -27.641  51.566   9.492  0.00  0.00    -0.244 OA
ATOM     79  H   IDS d 302     -29.547  51.010   9.015  0.00  0.00     0.097 H 
ATOM     80  H   IDS d 302     -30.590  53.480  11.533  0.00  0.00     0.104 H 
ATOM     81  H   IDS d 302     -28.799  50.431  11.349  0.00  0.00     0.133 H 
ATOM     82  H   IDS d 302     -28.856  53.359   8.373  0.00  0.00     0.091 H 
ATOM     83  H   IDS d 302     -29.406  55.069  10.094  0.00  0.00     0.092 H 
ATOM     84  H   IDS d 302     -31.200  52.915   9.955  0.00  0.00     0.210 HD
ATOM     85  O5  IDS d 306     -14.222  58.030  15.044  0.00  0.00    -0.340 OA
ATOM     86  C4  IDS d 306     -14.102  60.366  14.431  0.00  0.00     0.097 C 
ATOM     87  C3  IDS d 306     -14.721  60.008  13.031  0.00  0.00     0.094 C 
ATOM     88  C1  IDS d 306     -15.161  57.668  14.058  0.00  0.00     0.161 C 
ATOM     89  S   IDS d 306     -13.378  58.476  10.734  0.00  0.00     0.252 S 
ATOM     90  O3S IDS d 306     -12.746  57.322  10.130  0.00  0.00    -0.572 OA
ATOM     91  C6  IDS d 306     -13.763  59.507  16.881  0.00  0.00     0.206 C 
ATOM     92  O61 IDS d 306     -13.627  58.550  17.637  0.00  0.00    -0.646 OA
ATOM     93  O2  IDS d 306     -13.800  58.031  12.152  0.00  0.00    -0.244 OA
ATOM     94  C2  IDS d 306     -14.932  58.490  12.809  0.00  0.00     0.134 C 
ATOM     95  O62 IDS d 306     -13.358  60.603  17.251  0.00  0.00    -0.646 OA
ATOM     96  O3  IDS d 306     -15.985  60.636  12.862  0.00  0.00    -0.390 OA
ATOM     97  O2S IDS d 306     -12.472  59.595  10.910  0.00  0.00    -0.572 OA
ATOM     98  O4  IDS d 306     -12.692  60.385  14.279  0.00  0.00    -0.390 OA
ATOM     99  C5  IDS d 306     -14.446  59.328  15.523  0.00  0.00     0.152 C 
ATOM    100  O1S IDS d 306     -14.631  58.866  10.108  0.00  0.00    -0.572 OA
ATOM    101  H   IDS d 306     -14.503  61.309  14.740  0.00  0.00     0.091 H 
ATOM    102  H   IDS d 306     -14.005  60.359  12.318  0.00  0.00     0.091 H 
ATOM    103  H   IDS d 306     -15.035  56.625  13.854  0.00  0.00     0.133 H 
ATOM    104  H   IDS d 306     -15.837  58.370  12.250  0.00  0.00     0.097 H 
ATOM    105  H   IDS d 306     -16.607  60.294  13.523  0.00  0.00     0.210 HD
ATOM    106  H   IDS d 306     -12.385  59.508  13.998  0.00  0.00     0.210 HD
ATOM    107  H   IDS d 306     -15.483  59.500  15.725  0.00  0.00     0.104 H 
ATOM    108  O2S SGN d 301     -32.686  51.958  17.607  0.00  0.00    -0.296 OA
ATOM    109  C3  SGN d 301     -32.059  51.168  13.166  0.00  0.00     0.083 C 
ATOM    110  O6S SGN d 301     -29.577  45.168  11.548  0.00  0.00    -0.572 OA
ATOM    111  O6  SGN d 301     -29.982  47.515  11.890  0.00  0.00    -0.254 OA
ATOM    112  C5  SGN d 301     -31.836  49.030  11.901  0.00  0.00     0.091 C 
ATOM    113  O5  SGN d 301     -32.326  48.329  13.046  0.00  0.00    -0.350 OA
ATOM    114  O5S SGN d 301     -27.786  46.595  12.329  0.00  0.00    -0.572 OA
ATOM    115  C6  SGN d 301     -31.031  48.012  11.095  0.00  0.00     0.067 C 
ATOM    116  O1S SGN d 301     -31.978  49.732  17.068  0.00  0.00    -0.296 OA
ATOM    117  O3  SGN d 301     -31.425  52.345  13.592  0.00  0.00    -0.391 OA
ATOM    118  O3S SGN d 301     -34.295  50.176  17.442  0.00  0.00    -0.296 OA
ATOM    119  C1  SGN d 301     -33.183  49.104  13.867  0.00  0.00     0.147 C 
ATOM    120  N   SGN d 301     -33.266  51.053  15.365  0.00  0.00    -0.210 NA
ATOM    121  O1  SGN d 301     -34.342  49.532  13.112  0.00  0.00    -0.369 OA
ATOM    122  O4S SGN d 301     -28.583  46.784  10.065  0.00  0.00    -0.572 OA
ATOM    123  C2  SGN d 301     -32.444  50.328  14.385  0.00  0.00     0.081 C 
ATOM    124  S1  SGN d 301     -33.040  50.712  16.972  0.00  0.00     0.156 S 
ATOM    125  C4  SGN d 301     -31.073  50.321  12.318  0.00  0.00     0.095 C 
ATOM    126  S2  SGN d 301     -28.916  46.450  11.436  0.00  0.00     0.251 S 
ATOM    127  O4  SGN d 301     -30.698  51.029  11.157  0.00  0.00    -0.348 OA
ATOM    128  H   SGN d 301     -32.544  51.808  18.555  0.00  0.00     0.231 HD
ATOM    129  H   SGN d 301     -32.923  51.433  12.593  0.00  0.00     0.089 H 
ATOM    130  H   SGN d 301     -32.616  49.410  11.275  0.00  0.00     0.090 H 
ATOM    131  H   SGN d 301     -31.670  47.206  10.800  0.00  0.00     0.080 H 
ATOM    132  H   SGN d 301     -30.628  48.484  10.223  0.00  0.00     0.080 H 
ATOM    133  H   SGN d 301     -31.824  49.513  18.000  0.00  0.00     0.231 HD
ATOM    134  H   SGN d 301     -30.639  52.117  14.112  0.00  0.00     0.210 HD
ATOM    135  H   SGN d 301     -34.221  49.958  18.384  0.00  0.00     0.231 HD
ATOM    136  H   SGN d 301     -33.498  48.502  14.693  0.00  0.00     0.131 H 
ATOM    137  H   SGN d 301     -34.243  50.856  15.148  0.00  0.00     0.140 HD
ATOM    138  H   SGN d 301     -34.056  50.078  12.362  0.00  0.00     0.212 HD
ATOM    139  H   SGN d 301     -31.553  50.061  14.914  0.00  0.00     0.076 H 
ATOM    140  H   SGN d 301     -30.189  50.096  12.877  0.00  0.00     0.091 H 
ATOM    141  S   IDS d 304     -24.042  57.041  17.270  0.00  0.00     0.252 S 
ATOM    142  O62 IDS d 304     -19.883  55.324  11.608  0.00  0.00    -0.646 OA
ATOM    143  O1S IDS d 304     -25.323  56.762  16.732  0.00  0.00    -0.572 OA
ATOM    144  O2  IDS d 304     -23.048  56.209  16.453  0.00  0.00    -0.244 OA
ATOM    145  O3  IDS d 304     -22.644  53.068  14.803  0.00  0.00    -0.390 OA
ATOM    146  C5  IDS d 304     -21.583  55.489  13.251  0.00  0.00     0.152 C 
ATOM    147  O5  IDS d 304     -22.488  56.488  13.561  0.00  0.00    -0.340 OA
ATOM    148  O3S IDS d 304     -23.635  58.368  17.053  0.00  0.00    -0.572 OA
ATOM    149  O4  IDS d 304     -20.375  55.747  15.307  0.00  0.00    -0.348 OA
ATOM    150  C3  IDS d 304     -22.197  54.273  15.382  0.00  0.00     0.094 C 
ATOM    151  C2  IDS d 304     -23.370  55.272  15.465  0.00  0.00     0.134 C 
ATOM    152  C1  IDS d 304     -23.680  56.019  14.167  0.00  0.00     0.161 C 
ATOM    153  O2S IDS d 304     -23.921  56.643  18.635  0.00  0.00    -0.572 OA
ATOM    154  O61 IDS d 304     -20.234  57.208  12.292  0.00  0.00    -0.646 OA
ATOM    155  C4  IDS d 304     -21.068  54.822  14.534  0.00  0.00     0.103 C 
ATOM    156  C6  IDS d 304     -20.509  56.039  12.326  0.00  0.00     0.206 C 
ATOM    157  H   IDS d 304     -23.368  52.703  15.335  0.00  0.00     0.210 HD
ATOM    158  H   IDS d 304     -22.052  54.699  12.702  0.00  0.00     0.104 H 
ATOM    159  H   IDS d 304     -21.837  54.104  16.376  0.00  0.00     0.091 H 
ATOM    160  H   IDS d 304     -24.249  54.702  15.684  0.00  0.00     0.097 H 
ATOM    161  H   IDS d 304     -24.279  56.877  14.387  0.00  0.00     0.133 H 
ATOM    162  H   IDS d 304     -20.432  54.018  14.228  0.00  0.00     0.092 H 
ENDROOT
TORSDOF 51
ENDMDL
MODEL 2
REMARK VINA RESULT:     -12.8      3.961      6.006
REMARK  0 active torsions:
REMARK  status: ('A' for Active; 'I' for Inactive)
REMARK       I    between atoms: N_2  and  C2_29 
REMARK       I    between atoms: N_2  and  S1_49 
REMARK       I    between atoms: S_3  and  O2_103 
REMARK       I    between atoms: C5_6  and  C6_92 
REMARK       I    between atoms: C4_8  and  O4_100 
REMARK       I    between atoms: C2_9  and  O2_103 
REMARK       I    between atoms: O1S_10  and  S1_36 
REMARK       I    between atoms: O2S_11  and  S1_93 
REMARK       I    between atoms: C3_12  and  O3_54 
REMARK       I    between atoms: O4_13  and  C4_20 
REMARK       I    between atoms: O4_13  and  C1_26 
REMARK       I    between atoms: O6_15  and  C6_46 
REMARK       I    between atoms: O6_15  and  S2_104 
REMARK       I    between atoms: C5_16  and  C6_46 
REMARK       I    between atoms: C4_17  and  O4_90 
REMARK       I    between atoms: S_18  and  O2_62 
REMARK       I    between atoms: C3_19  and  O3_68 
REMARK       I    between atoms: S2_25  and  O6_53 
REMARK       I    between atoms: O4_27  and  C4_69 
REMARK       I    between atoms: O4_27  and  C1_89 
REMARK       I    between atoms: O3_28  and  C3_37 
REMARK       I    between atoms: C1_30  and  O4_73 
REMARK       I    between atoms: O2S_32  and  S1_49 
REMARK       I    between atoms: S_33  and  O2_48 
REMARK       I    between atoms: C6_34  and  C5_43 
REMARK       I    between atoms: C6_34  and  O6_60 
REMARK       I    between atoms: S1_36  and  N_85 
REMARK       I    between atoms: S1_36  and  O2S_63 
REMARK       I    between atoms: S1_36  and  O3S_74 
REMARK       I    between atoms: C6_40  and  C5_94 
REMARK       I    between atoms: O3S_42  and  S1_49 
REMARK       I    between atoms: C5_44  and  C6_99 
REMARK       I    between atoms: C1_47  and  O4_106 
REMARK       I    between atoms: O2_48  and  C2_57 
REMARK       I    between atoms: S1_49  and  O1S_55 
REMARK       I    between atoms: O1S_51  and  S1_93 
REMARK       I    between atoms: C3_52  and  O3_87 
REMARK       I    between atoms: O6_53  and  C6_92 
REMARK       I    between atoms: O3S_56  and  S1_93 
REMARK       I    between atoms: O3_58  and  C3_98 
REMARK       I    between atoms: C1_59  and  O1_81 
REMARK       I    between atoms: O6_60  and  S2_65 
REMARK       I    between atoms: O2_62  and  C2_77 
REMARK       I    between atoms: O3_64  and  C3_75 
REMARK       I    between atoms: C5_67  and  C6_101 
REMARK       I    between atoms: O4_73  and  C4_96 
REMARK       I    between atoms: C2_76  and  N_85 
REMARK       I    between atoms: N_78  and  C2_91 
REMARK       I    between atoms: N_78  and  S1_93 
REMARK       I    between atoms: C1_80  and  O4_100 
REMARK       I    between atoms: C4_102  and  O4_106 
ROOT
ATOM      1  O5S SGN d 305     -14.439  50.946  20.143  0.00  0.00    -0.572 OA
ATOM      2  C5  SGN d 305     -16.723  52.789  16.632  0.00  0.00     0.091 C 
ATOM      3  O1S SGN d 305     -19.361  55.841  19.734  0.00  0.00    -0.296 OA
ATOM      4  O4  SGN d 305     -15.057  54.175  15.781  0.00  0.00    -0.348 OA
ATOM      5  C4  SGN d 305     -16.093  54.143  16.694  0.00  0.00     0.095 C 
ATOM      6  O5  SGN d 305     -17.694  52.695  17.614  0.00  0.00    -0.349 OA
ATOM      7  S2  SGN d 305     -14.285  50.774  18.718  0.00  0.00     0.251 S 
ATOM      8  O3  SGN d 305     -16.696  56.396  16.222  0.00  0.00    -0.391 OA
ATOM      9  C1  SGN d 305     -18.753  53.614  17.446  0.00  0.00     0.150 C 
ATOM     10  S1  SGN d 305     -20.032  56.399  18.607  0.00  0.00     0.156 S 
ATOM     11  C3  SGN d 305     -17.186  55.100  16.293  0.00  0.00     0.083 C 
ATOM     12  O6  SGN d 305     -15.165  51.840  18.053  0.00  0.00    -0.254 OA
ATOM     13  O2S SGN d 305     -19.947  57.800  18.594  0.00  0.00    -0.296 OA
ATOM     14  O4S SGN d 305     -12.956  51.064  18.239  0.00  0.00    -0.572 OA
ATOM     15  O3S SGN d 305     -21.347  55.894  18.494  0.00  0.00    -0.296 OA
ATOM     16  C2  SGN d 305     -18.191  55.017  17.394  0.00  0.00     0.081 C 
ATOM     17  N   SGN d 305     -19.259  55.962  17.252  0.00  0.00    -0.210 NA
ATOM     18  C6  SGN d 305     -15.788  51.652  16.837  0.00  0.00     0.067 C 
ATOM     19  O6S SGN d 305     -14.823  49.499  18.255  0.00  0.00    -0.572 OA
ATOM     20  H   SGN d 305     -17.113  52.708  15.639  0.00  0.00     0.090 H 
ATOM     21  H   SGN d 305     -18.463  56.204  19.788  0.00  0.00     0.231 HD
ATOM     22  H   SGN d 305     -15.697  54.388  17.658  0.00  0.00     0.091 H 
ATOM     23  H   SGN d 305     -16.043  56.456  15.508  0.00  0.00     0.210 HD
ATOM     24  H   SGN d 305     -19.422  53.524  18.276  0.00  0.00     0.131 H 
ATOM     25  H   SGN d 305     -17.594  54.854  15.335  0.00  0.00     0.089 H 
ATOM     26  H   SGN d 305     -19.019  58.069  18.675  0.00  0.00     0.231 HD
ATOM     27  H   SGN d 305     -21.325  54.925  18.511  0.00  0.00     0.231 HD
ATOM     28  H   SGN d 305     -17.686  55.259  18.306  0.00  0.00     0.076 H 
ATOM     29  H   SGN d 305     -18.871  56.806  16.832  0.00  0.00     0.140 HD
ATOM     30  H   SGN d 305     -15.060  51.632  16.052  0.00  0.00     0.080 H 
ATOM     31  H   SGN d 305     -16.317  50.722  16.825  0.00  0.00     0.080 H 
ATOM     32  N   SGN d 303     -22.544  46.660  12.077  0.00  0.00    -0.210 NA
ATOM     33  C4  SGN d 303     -22.788  50.351  12.951  0.00  0.00     0.095 C 
ATOM     34  C2  SGN d 303     -22.765  48.080  11.863  0.00  0.00     0.081 C 
ATOM     35  O5S SGN d 303     -22.309  53.561   9.653  0.00  0.00    -0.572 OA
ATOM     36  O2S SGN d 303     -21.095  45.742  10.315  0.00  0.00    -0.296 OA
ATOM     37  C6  SGN d 303     -24.588  51.906  12.061  0.00  0.00     0.067 C 
ATOM     38  O3S SGN d 303     -22.751  44.355  11.343  0.00  0.00    -0.296 OA
ATOM     39  C5  SGN d 303     -24.210  50.479  12.414  0.00  0.00     0.091 C 
ATOM     40  S1  SGN d 303     -22.440  45.643  10.799  0.00  0.00     0.156 S 
ATOM     41  O6S SGN d 303     -24.548  52.843   9.154  0.00  0.00    -0.572 OA
ATOM     42  O1S SGN d 303     -23.384  46.074   9.808  0.00  0.00    -0.296 OA
ATOM     43  O3  SGN d 303     -21.121  48.720  13.476  0.00  0.00    -0.391 OA
ATOM     44  O6  SGN d 303     -23.559  52.381  11.248  0.00  0.00    -0.254 OA
ATOM     45  S2  SGN d 303     -23.656  53.405  10.107  0.00  0.00     0.251 S 
ATOM     46  O5  SGN d 303     -24.380  49.707  11.232  0.00  0.00    -0.349 OA
ATOM     47  C1  SGN d 303     -24.190  48.321  11.415  0.00  0.00     0.150 C 
ATOM     48  O4S SGN d 303     -24.183  54.605  10.663  0.00  0.00    -0.572 OA
ATOM     49  C3  SGN d 303     -22.485  48.860  13.141  0.00  0.00     0.083 C 
ATOM     50  O4  SGN d 303     -22.733  50.991  14.195  0.00  0.00    -0.348 OA
ATOM     51  H   SGN d 303     -23.316  46.326  12.656  0.00  0.00     0.140 HD
ATOM     52  H   SGN d 303     -22.081  50.790  12.278  0.00  0.00     0.091 H 
ATOM     53  H   SGN d 303     -22.095  48.418  11.100  0.00  0.00     0.076 H 
ATOM     54  H   SGN d 303     -20.480  45.446  11.004  0.00  0.00     0.231 HD
ATOM     55  H   SGN d 303     -24.668  52.501  12.947  0.00  0.00     0.080 H 
ATOM     56  H   SGN d 303     -25.534  51.952  11.565  0.00  0.00     0.080 H 
ATOM     57  H   SGN d 303     -22.084  44.113  12.005  0.00  0.00     0.231 HD
ATOM     58  H   SGN d 303     -24.837  50.130  13.208  0.00  0.00     0.090 H 
ATOM     59  H   SGN d 303     -23.127  46.948   9.474  0.00  0.00     0.231 HD
ATOM     60  H   SGN d 303     -20.935  49.215  14.289  0.00  0.00     0.210 HD
ATOM     61  H   SGN d 303     -24.377  47.835  10.480  0.00  0.00     0.131 H 
ATOM     62  H   SGN d 303     -23.111  48.474  13.917  0.00  0.00     0.089 H 
ATOM     63  S   IDS d 302     -25.012  44.339  14.704  0.00  0.00     0.252 S 
ATOM     64  O2S IDS d 302     -23.672  44.725  14.986  0.00  0.00    -0.572 OA
ATOM     65  O62 IDS d 302     -27.349  50.251  11.271  0.00  0.00    -0.646 OA
ATOM     66  C2  IDS d 302     -26.901  45.605  13.454  0.00  0.00     0.134 C 
ATOM     67  O5  IDS d 302     -27.317  47.899  13.986  0.00  0.00    -0.340 OA
ATOM     68  O1S IDS d 302     -25.121  43.276  13.761  0.00  0.00    -0.572 OA
ATOM     69  O4  IDS d 302     -25.097  47.763  12.345  0.00  0.00    -0.348 OA
ATOM     70  O3S IDS d 302     -25.768  44.105  15.881  0.00  0.00    -0.572 OA
ATOM     71  C5  IDS d 302     -27.395  48.264  12.618  0.00  0.00     0.152 C 
ATOM     72  C1  IDS d 302     -27.727  46.569  14.252  0.00  0.00     0.161 C 
ATOM     73  C3  IDS d 302     -26.718  46.014  11.993  0.00  0.00     0.094 C 
ATOM     74  C4  IDS d 302     -26.383  47.485  11.838  0.00  0.00     0.103 C 
ATOM     75  O3  IDS d 302     -27.929  45.780  11.323  0.00  0.00    -0.390 OA
ATOM     76  O61 IDS d 302     -27.178  50.537  13.369  0.00  0.00    -0.646 OA
ATOM     77  C6  IDS d 302     -27.301  49.773  12.412  0.00  0.00     0.206 C 
ATOM     78  O2  IDS d 302     -25.656  45.544  14.015  0.00  0.00    -0.244 OA
ATOM     79  H   IDS d 302     -27.419  44.669  13.469  0.00  0.00     0.097 H 
ATOM     80  H   IDS d 302     -28.362  48.005  12.242  0.00  0.00     0.104 H 
ATOM     81  H   IDS d 302     -27.582  46.393  15.297  0.00  0.00     0.133 H 
ATOM     82  H   IDS d 302     -25.908  45.444  11.592  0.00  0.00     0.091 H 
ATOM     83  H   IDS d 302     -26.398  47.751  10.802  0.00  0.00     0.092 H 
ATOM     84  H   IDS d 302     -28.629  46.319  11.722  0.00  0.00     0.210 HD
ATOM     85  O5  IDS d 306     -13.126  54.908  16.837  0.00  0.00    -0.340 OA
ATOM     86  C4  IDS d 306     -12.146  55.648  14.752  0.00  0.00     0.097 C 
ATOM     87  C3  IDS d 306     -12.413  54.221  14.147  0.00  0.00     0.094 C 
ATOM     88  C1  IDS d 306     -13.803  53.799  16.295  0.00  0.00     0.161 C 
ATOM     89  S   IDS d 306     -10.981  51.599  14.853  0.00  0.00     0.252 S 
ATOM     90  O3S IDS d 306     -10.574  50.535  15.747  0.00  0.00    -0.572 OA
ATOM     91  C6  IDS d 306     -12.799  57.283  16.690  0.00  0.00     0.206 C 
ATOM     92  O61 IDS d 306     -13.178  57.422  17.849  0.00  0.00    -0.646 OA
ATOM     93  O2  IDS d 306     -11.906  52.515  15.684  0.00  0.00    -0.244 OA
ATOM     94  C2  IDS d 306     -12.991  53.207  15.164  0.00  0.00     0.134 C 
ATOM     95  O62 IDS d 306     -12.213  58.216  16.153  0.00  0.00    -0.646 OA
ATOM     96  O3  IDS d 306     -13.328  54.296  13.062  0.00  0.00    -0.390 OA
ATOM     97  O2S IDS d 306      -9.875  52.427  14.413  0.00  0.00    -0.572 OA
ATOM     98  O4  IDS d 306     -10.813  55.661  15.236  0.00  0.00    -0.390 OA
ATOM     99  C5  IDS d 306     -13.083  55.982  15.936  0.00  0.00     0.152 C 
ATOM    100  O1S IDS d 306     -11.826  51.163  13.753  0.00  0.00    -0.572 OA
ATOM    101  H   IDS d 306     -12.322  56.372  13.985  0.00  0.00     0.091 H 
ATOM    102  H   IDS d 306     -11.450  53.876  13.832  0.00  0.00     0.091 H 
ATOM    103  H   IDS d 306     -13.939  53.083  17.079  0.00  0.00     0.133 H 
ATOM    104  H   IDS d 306     -13.688  52.588  14.639  0.00  0.00     0.097 H 
ATOM    105  H   IDS d 306     -14.186  54.611  13.385  0.00  0.00     0.210 HD
ATOM    106  H   IDS d 306     -10.713  54.987  15.927  0.00  0.00     0.210 HD
ATOM    107  H   IDS d 306     -14.034  56.147  15.475  0.00  0.00     0.104 H 
ATOM    108  O2S SGN d 301     -32.475  52.109  15.380  0.00  0.00    -0.296 OA
ATOM    109  C3  SGN d 301     -30.856  48.010  14.228  0.00  0.00     0.083 C 
ATOM    110  O6S SGN d 301     -29.909  43.686  19.247  0.00  0.00    -0.572 OA
ATOM    111  O6  SGN d 301     -29.680  45.185  17.379  0.00  0.00    -0.254 OA
ATOM    112  C5  SGN d 301     -30.922  45.829  15.436  0.00  0.00     0.091 C 
ATOM    113  O5  SGN d 301     -31.907  46.373  16.318  0.00  0.00    -0.350 OA
ATOM    114  O5S SGN d 301     -28.080  45.271  19.195  0.00  0.00    -0.572 OA
ATOM    115  C6  SGN d 301     -30.259  44.684  16.199  0.00  0.00     0.067 C 
ATOM    116  O1S SGN d 301     -32.334  50.536  17.183  0.00  0.00    -0.296 OA
ATOM    117  O3  SGN d 301     -30.053  49.054  13.746  0.00  0.00    -0.391 OA
ATOM    118  O3S SGN d 301     -34.420  50.871  16.068  0.00  0.00    -0.296 OA
ATOM    119  C1  SGN d 301     -32.693  47.396  15.733  0.00  0.00     0.147 C 
ATOM    120  N   SGN d 301     -32.624  49.687  14.839  0.00  0.00    -0.210 NA
ATOM    121  O1  SGN d 301     -33.404  46.881  14.581  0.00  0.00    -0.369 OA
ATOM    122  O4S SGN d 301     -28.096  43.392  17.689  0.00  0.00    -0.572 OA
ATOM    123  C2  SGN d 301     -31.808  48.552  15.297  0.00  0.00     0.081 C 
ATOM    124  S1  SGN d 301     -32.983  50.878  15.934  0.00  0.00     0.156 S 
ATOM    125  C4  SGN d 301     -29.965  46.938  14.910  0.00  0.00     0.095 C 
ATOM    126  S2  SGN d 301     -28.894  44.336  18.446  0.00  0.00     0.251 S 
ATOM    127  O4  SGN d 301     -29.079  46.373  13.970  0.00  0.00    -0.348 OA
ATOM    128  H   SGN d 301     -32.663  52.840  15.989  0.00  0.00     0.231 HD
ATOM    129  H   SGN d 301     -31.399  47.589  13.408  0.00  0.00     0.089 H 
ATOM    130  H   SGN d 301     -31.339  45.432  14.534  0.00  0.00     0.090 H 
ATOM    131  H   SGN d 301     -30.994  43.946  16.445  0.00  0.00     0.080 H 
ATOM    132  H   SGN d 301     -29.500  44.239  15.589  0.00  0.00     0.080 H 
ATOM    133  H   SGN d 301     -32.528  51.218  17.845  0.00  0.00     0.231 HD
ATOM    134  H   SGN d 301     -29.555  49.444  14.481  0.00  0.00     0.210 HD
ATOM    135  H   SGN d 301     -34.689  51.554  16.702  0.00  0.00     0.231 HD
ATOM    136  H   SGN d 301     -33.397  47.741  16.461  0.00  0.00     0.131 H 
ATOM    137  H   SGN d 301     -33.509  49.308  14.502  0.00  0.00     0.140 HD
ATOM    138  H   SGN d 301     -32.766  46.567  13.921  0.00  0.00     0.212 HD
ATOM    139  H   SGN d 301     -31.228  48.939  16.109  0.00  0.00     0.076 H 
ATOM    140  H   SGN d 301     -29.389  47.371  15.700  0.00  0.00     0.091 H 
ATOM    141  S   IDS d 304     -23.001  55.338  14.680  0.00  0.00     0.252 S 
ATOM    142  O62 IDS d 304     -18.089  50.049  15.130  0.00  0.00    -0.646 OA
ATOM    143  O1S IDS d 304     -24.095  54.618  14.139  0.00  0.00    -0.572 OA
ATOM    144  O2  IDS d 304     -22.107  54.301  15.367  0.00  0.00    -0.244 OA
ATOM    145  O3  IDS d 304     -22.194  51.278  17.266  0.00  0.00    -0.390 OA
ATOM    146  C5  IDS d 304     -20.062  51.360  15.065  0.00  0.00     0.152 C 
ATOM    147  O5  IDS d 304     -20.680  52.068  14.050  0.00  0.00    -0.340 OA
ATOM    148  O3S IDS d 304     -22.175  55.901  13.693  0.00  0.00    -0.572 OA
ATOM    149  O4  IDS d 304     -19.480  53.340  16.287  0.00  0.00    -0.348 OA
ATOM    150  C3  IDS d 304     -21.597  52.448  16.755  0.00  0.00     0.094 C 
ATOM    151  C2  IDS d 304     -22.393  52.940  15.528  0.00  0.00     0.134 C 
ATOM    152  C1  IDS d 304     -22.079  52.217  14.218  0.00  0.00     0.161 C 
ATOM    153  O2S IDS d 304     -23.403  56.286  15.668  0.00  0.00    -0.572 OA
ATOM    154  O61 IDS d 304     -18.048  51.595  13.807  0.00  0.00    -0.646 OA
ATOM    155  C4  IDS d 304     -20.162  52.133  16.387  0.00  0.00     0.103 C 
ATOM    156  C6  IDS d 304     -18.655  50.975  14.639  0.00  0.00     0.206 C 
ATOM    157  H   IDS d 304     -23.115  51.463  17.507  0.00  0.00     0.210 HD
ATOM    158  H   IDS d 304     -20.566  50.434  15.251  0.00  0.00     0.104 H 
ATOM    159  H   IDS d 304     -21.607  53.228  17.488  0.00  0.00     0.091 H 
ATOM    160  H   IDS d 304     -23.425  52.740  15.726  0.00  0.00     0.097 H 
ATOM    161  H   IDS d 304     -22.434  52.804  13.396  0.00  0.00     0.133 H 
ATOM    162  H   IDS d 304     -19.733  51.506  17.142  0.00  0.00     0.092 H 
ENDROOT
TORSDOF 51
ENDMDL
MODEL 3
REMARK VINA RESULT:     -12.7      4.917     14.844
REMARK  0 active torsions:
REMARK  status: ('A' for Active; 'I' for Inactive)
REMARK       I    between atoms: N_2  and  C2_29 
REMARK       I    between atoms: N_2  and  S1_49 
REMARK       I    between atoms: S_3  and  O2_103 
REMARK       I    between atoms: C5_6  and  C6_92 
REMARK       I    between atoms: C4_8  and  O4_100 
REMARK       I    between atoms: C2_9  and  O2_103 
REMARK       I    between atoms: O1S_10  and  S1_36 
REMARK       I    between atoms: O2S_11  and  S1_93 
REMARK       I    between atoms: C3_12  and  O3_54 
REMARK       I    between atoms: O4_13  and  C4_20 
REMARK       I    between atoms: O4_13  and  C1_26 
REMARK       I    between atoms: O6_15  and  C6_46 
REMARK       I    between atoms: O6_15  and  S2_104 
REMARK       I    between atoms: C5_16  and  C6_46 
REMARK       I    between atoms: C4_17  and  O4_90 
REMARK       I    between atoms: S_18  and  O2_62 
REMARK       I    between atoms: C3_19  and  O3_68 
REMARK       I    between atoms: S2_25  and  O6_53 
REMARK       I    between atoms: O4_27  and  C4_69 
REMARK       I    between atoms: O4_27  and  C1_89 
REMARK       I    between atoms: O3_28  and  C3_37 
REMARK       I    between atoms: C1_30  and  O4_73 
REMARK       I    between atoms: O2S_32  and  S1_49 
REMARK       I    between atoms: S_33  and  O2_48 
REMARK       I    between atoms: C6_34  and  C5_43 
REMARK       I    between atoms: C6_34  and  O6_60 
REMARK       I    between atoms: S1_36  and  N_85 
REMARK       I    between atoms: S1_36  and  O2S_63 
REMARK       I    between atoms: S1_36  and  O3S_74 
REMARK       I    between atoms: C6_40  and  C5_94 
REMARK       I    between atoms: O3S_42  and  S1_49 
REMARK       I    between atoms: C5_44  and  C6_99 
REMARK       I    between atoms: C1_47  and  O4_106 
REMARK       I    between atoms: O2_48  and  C2_57 
REMARK       I    between atoms: S1_49  and  O1S_55 
REMARK       I    between atoms: O1S_51  and  S1_93 
REMARK       I    between atoms: C3_52  and  O3_87 
REMARK       I    between atoms: O6_53  and  C6_92 
REMARK       I    between atoms: O3S_56  and  S1_93 
REMARK       I    between atoms: O3_58  and  C3_98 
REMARK       I    between atoms: C1_59  and  O1_81 
REMARK       I    between atoms: O6_60  and  S2_65 
REMARK       I    between atoms: O2_62  and  C2_77 
REMARK       I    between atoms: O3_64  and  C3_75 
REMARK       I    between atoms: C5_67  and  C6_101 
REMARK       I    between atoms: O4_73  and  C4_96 
REMARK       I    between atoms: C2_76  and  N_85 
REMARK       I    between atoms: N_78  and  C2_91 
REMARK       I    between atoms: N_78  and  S1_93 
REMARK       I    between atoms: C1_80  and  O4_100 
REMARK       I    between atoms: C4_102  and  O4_106 
ROOT
ATOM      1  O5S SGN d 305     -30.919  47.474   9.819  0.00  0.00    -0.572 OA
ATOM      2  C5  SGN d 305     -28.653  50.927  11.790  0.00  0.00     0.091 C 
ATOM      3  O1S SGN d 305     -27.307  52.842   7.272  0.00  0.00    -0.296 OA
ATOM      4  O4  SGN d 305     -30.459  52.248  12.433  0.00  0.00    -0.348 OA
ATOM      5  C4  SGN d 305     -29.591  52.017  11.384  0.00  0.00     0.095 C 
ATOM      6  O5  SGN d 305     -27.843  50.602  10.717  0.00  0.00    -0.349 OA
ATOM      7  S2  SGN d 305     -30.817  47.872  11.204  0.00  0.00     0.251 S 
ATOM      8  O3  SGN d 305     -29.482  54.334  10.848  0.00  0.00    -0.391 OA
ATOM      9  C1  SGN d 305     -27.022  51.669  10.290  0.00  0.00     0.150 C 
ATOM     10  S1  SGN d 305     -26.632  53.910   7.931  0.00  0.00     0.156 S 
ATOM     11  C3  SGN d 305     -28.712  53.218  11.145  0.00  0.00     0.083 C 
ATOM     12  O6  SGN d 305     -30.130  49.244  11.212  0.00  0.00    -0.254 OA
ATOM     13  O2S SGN d 305     -27.046  55.162   7.450  0.00  0.00    -0.296 OA
ATOM     14  O4S SGN d 305     -32.091  48.112  11.833  0.00  0.00    -0.572 OA
ATOM     15  O3S SGN d 305     -25.231  53.716   7.916  0.00  0.00    -0.296 OA
ATOM     16  C2  SGN d 305     -27.890  52.860   9.953  0.00  0.00     0.081 C 
ATOM     17  N   SGN d 305     -27.069  53.941   9.491  0.00  0.00    -0.210 NA
ATOM     18  C6  SGN d 305     -29.309  49.669  12.235  0.00  0.00     0.067 C 
ATOM     19  O6S SGN d 305     -29.927  47.001  11.964  0.00  0.00    -0.572 OA
ATOM     20  H   SGN d 305     -28.113  51.320  12.626  0.00  0.00     0.090 H 
ATOM     21  H   SGN d 305     -28.264  53.001   7.297  0.00  0.00     0.231 HD
ATOM     22  H   SGN d 305     -30.171  51.783  10.516  0.00  0.00     0.091 H 
ATOM     23  H   SGN d 305     -30.019  54.571  11.620  0.00  0.00     0.210 HD
ATOM     24  H   SGN d 305     -26.480  51.359   9.420  0.00  0.00     0.131 H 
ATOM     25  H   SGN d 305     -28.121  53.452  12.006  0.00  0.00     0.089 H 
ATOM     26  H   SGN d 305     -28.013  55.220   7.492  0.00  0.00     0.231 HD
ATOM     27  H   SGN d 305     -25.024  52.833   8.260  0.00  0.00     0.231 HD
ATOM     28  H   SGN d 305     -28.565  52.626   9.157  0.00  0.00     0.076 H 
ATOM     29  H   SGN d 305     -27.583  54.808   9.650  0.00  0.00     0.140 HD
ATOM     30  H   SGN d 305     -29.887  49.852  13.117  0.00  0.00     0.080 H 
ATOM     31  H   SGN d 305     -28.577  48.924  12.464  0.00  0.00     0.080 H 
ATOM     32  N   SGN d 303     -20.930  48.206  16.806  0.00  0.00    -0.210 NA
ATOM     33  C4  SGN d 303     -21.708  51.211  14.613  0.00  0.00     0.095 C 
ATOM     34  C2  SGN d 303     -21.027  49.606  16.430  0.00  0.00     0.081 C 
ATOM     35  O5S SGN d 303     -22.452  55.358  16.525  0.00  0.00    -0.572 OA
ATOM     36  O2S SGN d 303     -21.843  47.860  19.063  0.00  0.00    -0.296 OA
ATOM     37  C6  SGN d 303     -20.223  53.263  14.435  0.00  0.00     0.067 C 
ATOM     38  O3S SGN d 303     -20.073  46.464  18.263  0.00  0.00    -0.296 OA
ATOM     39  C5  SGN d 303     -20.295  51.775  14.725  0.00  0.00     0.091 C 
ATOM     40  S1  SGN d 303     -20.600  47.793  18.355  0.00  0.00     0.156 S 
ATOM     41  O6S SGN d 303     -20.059  55.278  16.725  0.00  0.00    -0.572 OA
ATOM     42  O1S SGN d 303     -19.651  48.736  18.875  0.00  0.00    -0.296 OA
ATOM     43  O3  SGN d 303     -22.995  49.261  15.117  0.00  0.00    -0.391 OA
ATOM     44  O6  SGN d 303     -21.204  53.853  15.230  0.00  0.00    -0.254 OA
ATOM     45  S2  SGN d 303     -21.189  55.253  15.864  0.00  0.00     0.251 S 
ATOM     46  O5  SGN d 303     -19.774  51.587  16.035  0.00  0.00    -0.349 OA
ATOM     47  C1  SGN d 303     -19.651  50.236  16.420  0.00  0.00     0.150 C 
ATOM     48  O4S SGN d 303     -21.052  56.192  14.804  0.00  0.00    -0.572 OA
ATOM     49  C3  SGN d 303     -21.670  49.744  15.056  0.00  0.00     0.083 C 
ATOM     50  O4  SGN d 303     -22.097  51.274  13.269  0.00  0.00    -0.348 OA
ATOM     51  H   SGN d 303     -20.195  47.796  16.229  0.00  0.00     0.140 HD
ATOM     52  H   SGN d 303     -22.393  51.764  15.221  0.00  0.00     0.091 H 
ATOM     53  H   SGN d 303     -21.639  50.111  17.148  0.00  0.00     0.076 H 
ATOM     54  H   SGN d 303     -22.464  47.214  18.691  0.00  0.00     0.231 HD
ATOM     55  H   SGN d 303     -20.418  53.452  13.400  0.00  0.00     0.080 H 
ATOM     56  H   SGN d 303     -19.253  53.659  14.650  0.00  0.00     0.080 H 
ATOM     57  H   SGN d 303     -20.752  45.870  17.908  0.00  0.00     0.231 HD
ATOM     58  H   SGN d 303     -19.726  51.241  13.992  0.00  0.00     0.090 H 
ATOM     59  H   SGN d 303     -20.058  49.615  18.915  0.00  0.00     0.231 HD
ATOM     60  H   SGN d 303     -23.411  49.346  14.246  0.00  0.00     0.210 HD
ATOM     61  H   SGN d 303     -19.218  50.208  17.398  0.00  0.00     0.131 H 
ATOM     62  H   SGN d 303     -21.091  49.183  14.353  0.00  0.00     0.089 H 
ATOM     63  S   IDS d 302     -18.392  45.453  14.719  0.00  0.00     0.252 S 
ATOM     64  O2S IDS d 302     -19.812  45.469  14.630  0.00  0.00    -0.572 OA
ATOM     65  O62 IDS d 302     -17.060  52.544  15.120  0.00  0.00    -0.646 OA
ATOM     66  C2  IDS d 302     -16.699  47.406  14.951  0.00  0.00     0.134 C 
ATOM     67  O5  IDS d 302     -16.926  49.321  13.538  0.00  0.00    -0.340 OA
ATOM     68  O1S IDS d 302     -17.894  44.897  15.933  0.00  0.00    -0.572 OA
ATOM     69  O4  IDS d 302     -18.784  49.504  15.577  0.00  0.00    -0.348 OA
ATOM     70  O3S IDS d 302     -17.783  44.888  13.569  0.00  0.00    -0.572 OA
ATOM     71  C5  IDS d 302     -16.738  50.216  14.621  0.00  0.00     0.152 C 
ATOM     72  C1  IDS d 302     -16.253  48.084  13.690  0.00  0.00     0.161 C 
ATOM     73  C3  IDS d 302     -16.757  48.337  16.161  0.00  0.00     0.094 C 
ATOM     74  C4  IDS d 302     -17.409  49.668  15.841  0.00  0.00     0.103 C 
ATOM     75  O3  IDS d 302     -15.441  48.595  16.574  0.00  0.00    -0.390 OA
ATOM     76  O61 IDS d 302     -17.601  51.922  13.163  0.00  0.00    -0.646 OA
ATOM     77  C6  IDS d 302     -17.160  51.643  14.277  0.00  0.00     0.206 C 
ATOM     78  O2  IDS d 302     -17.961  46.921  14.753  0.00  0.00    -0.244 OA
ATOM     79  H   IDS d 302     -15.980  46.642  15.161  0.00  0.00     0.097 H 
ATOM     80  H   IDS d 302     -15.693  50.294  14.833  0.00  0.00     0.104 H 
ATOM     81  H   IDS d 302     -16.504  47.478  12.844  0.00  0.00     0.133 H 
ATOM     82  H   IDS d 302     -17.340  47.855  16.918  0.00  0.00     0.091 H 
ATOM     83  H   IDS d 302     -17.305  50.330  16.675  0.00  0.00     0.092 H 
ATOM     84  H   IDS d 302     -14.957  49.032  15.857  0.00  0.00     0.210 HD
ATOM     85  O5  IDS d 306     -32.643  52.166  11.655  0.00  0.00    -0.340 OA
ATOM     86  C4  IDS d 306     -33.454  53.518  13.490  0.00  0.00     0.097 C 
ATOM     87  C3  IDS d 306     -32.768  52.523  14.496  0.00  0.00     0.094 C 
ATOM     88  C1  IDS d 306     -31.648  51.498  12.394  0.00  0.00     0.161 C 
ATOM     89  S   IDS d 306     -33.618  49.646  15.146  0.00  0.00     0.252 S 
ATOM     90  O3S IDS d 306     -33.886  48.260  14.821  0.00  0.00    -0.572 OA
ATOM     91  C6  IDS d 306     -33.503  54.309  10.994  0.00  0.00     0.206 C 
ATOM     92  O61 IDS d 306     -33.343  54.026   9.811  0.00  0.00    -0.646 OA
ATOM     93  O2  IDS d 306     -33.071  50.283  13.849  0.00  0.00    -0.244 OA
ATOM     94  C2  IDS d 306     -32.120  51.292  13.817  0.00  0.00     0.134 C 
ATOM     95  O62 IDS d 306     -34.210  55.270  11.272  0.00  0.00    -0.646 OA
ATOM     96  O3  IDS d 306     -31.749  53.179  15.238  0.00  0.00    -0.390 OA
ATOM     97  O2S IDS d 306     -34.813  50.390  15.494  0.00  0.00    -0.572 OA
ATOM     98  O4  IDS d 306     -34.808  53.117  13.354  0.00  0.00    -0.390 OA
ATOM     99  C5  IDS d 306     -32.809  53.490  12.085  0.00  0.00     0.152 C 
ATOM    100  O1S IDS d 306     -32.542  49.836  16.104  0.00  0.00    -0.572 OA
ATOM    101  H   IDS d 306     -33.347  54.509  13.877  0.00  0.00     0.091 H 
ATOM    102  H   IDS d 306     -33.563  52.184  15.128  0.00  0.00     0.091 H 
ATOM    103  H   IDS d 306     -31.461  50.558  11.917  0.00  0.00     0.133 H 
ATOM    104  H   IDS d 306     -31.225  51.062  14.357  0.00  0.00     0.097 H 
ATOM    105  H   IDS d 306     -31.048  53.471  14.635  0.00  0.00     0.210 HD
ATOM    106  H   IDS d 306     -34.844  52.214  13.000  0.00  0.00     0.210 HD
ATOM    107  H   IDS d 306     -31.868  53.980  12.224  0.00  0.00     0.104 H 
ATOM    108  O2S SGN d 301     -13.188  53.380   9.560  0.00  0.00    -0.296 OA
ATOM    109  C3  SGN d 301     -13.591  49.898  12.467  0.00  0.00     0.083 C 
ATOM    110  O6S SGN d 301     -14.202  43.819   9.736  0.00  0.00    -0.572 OA
ATOM    111  O6  SGN d 301     -14.506  45.888  10.927  0.00  0.00    -0.254 OA
ATOM    112  C5  SGN d 301     -13.184  47.457  12.160  0.00  0.00     0.091 C 
ATOM    113  O5  SGN d 301     -12.498  47.748  10.940  0.00  0.00    -0.350 OA
ATOM    114  O5S SGN d 301     -16.329  44.968   9.624  0.00  0.00    -0.572 OA
ATOM    115  C6  SGN d 301     -13.658  46.010  12.042  0.00  0.00     0.067 C 
ATOM    116  O1S SGN d 301     -13.211  51.211   8.540  0.00  0.00    -0.296 OA
ATOM    117  O3  SGN d 301     -14.542  50.902  12.705  0.00  0.00    -0.391 OA
ATOM    118  O3S SGN d 301     -11.126  52.303   8.946  0.00  0.00    -0.296 OA
ATOM    119  C1  SGN d 301     -11.902  49.033  10.914  0.00  0.00     0.147 C 
ATOM    120  N   SGN d 301     -12.386  51.445  10.899  0.00  0.00    -0.210 NA
ATOM    121  O1  SGN d 301     -10.928  49.152  11.978  0.00  0.00    -0.369 OA
ATOM    122  O4S SGN d 301     -15.643  43.892  11.666  0.00  0.00    -0.572 OA
ATOM    123  C2  SGN d 301     -12.965  50.106  11.087  0.00  0.00     0.081 C 
ATOM    124  S1  SGN d 301     -12.487  52.131   9.393  0.00  0.00     0.156 S 
ATOM    125  C4  SGN d 301     -14.290  48.512  12.449  0.00  0.00     0.095 C 
ATOM    126  S2  SGN d 301     -15.214  44.564  10.455  0.00  0.00     0.251 S 
ATOM    127  O4  SGN d 301     -14.868  48.241  13.706  0.00  0.00    -0.348 OA
ATOM    128  H   SGN d 301     -13.272  53.821   8.700  0.00  0.00     0.231 HD
ATOM    129  H   SGN d 301     -12.850  49.939  13.237  0.00  0.00     0.089 H 
ATOM    130  H   SGN d 301     -12.556  47.533  13.023  0.00  0.00     0.090 H 
ATOM    131  H   SGN d 301     -12.812  45.365  11.921  0.00  0.00     0.080 H 
ATOM    132  H   SGN d 301     -14.190  45.733  12.929  0.00  0.00     0.080 H 
ATOM    133  H   SGN d 301     -13.286  51.587   7.649  0.00  0.00     0.231 HD
ATOM    134  H   SGN d 301     -15.221  50.874  12.013  0.00  0.00     0.210 HD
ATOM    135  H   SGN d 301     -11.124  52.704   8.063  0.00  0.00     0.231 HD
ATOM    136  H   SGN d 301     -11.416  49.163   9.970  0.00  0.00     0.131 H 
ATOM    137  H   SGN d 301     -11.396  51.384  11.139  0.00  0.00     0.140 HD
ATOM    138  H   SGN d 301     -11.369  49.035  12.835  0.00  0.00     0.212 HD
ATOM    139  H   SGN d 301     -13.733  50.031  10.346  0.00  0.00     0.076 H 
ATOM    140  H   SGN d 301     -15.063  48.488  11.709  0.00  0.00     0.091 H 
ATOM    141  S   IDS d 304     -22.951  55.031  11.182  0.00  0.00     0.252 S 
ATOM    142  O62 IDS d 304     -26.465  49.293  13.834  0.00  0.00    -0.646 OA
ATOM    143  O1S IDS d 304     -21.650  54.780  11.682  0.00  0.00    -0.572 OA
ATOM    144  O2  IDS d 304     -23.662  53.674  11.146  0.00  0.00    -0.244 OA
ATOM    145  O3  IDS d 304     -23.134  50.199  10.517  0.00  0.00    -0.390 OA
ATOM    146  C5  IDS d 304     -24.876  50.819  12.961  0.00  0.00     0.152 C 
ATOM    147  O5  IDS d 304     -24.304  51.968  13.477  0.00  0.00    -0.340 OA
ATOM    148  O3S IDS d 304     -23.734  55.803  12.056  0.00  0.00    -0.572 OA
ATOM    149  O4  IDS d 304     -26.088  52.010  11.269  0.00  0.00    -0.348 OA
ATOM    150  C3  IDS d 304     -23.911  51.361  10.687  0.00  0.00     0.094 C 
ATOM    151  C2  IDS d 304     -23.085  52.431  11.432  0.00  0.00     0.134 C 
ATOM    152  C1  IDS d 304     -23.021  52.261  12.950  0.00  0.00     0.161 C 
ATOM    153  O2S IDS d 304     -22.937  55.548   9.852  0.00  0.00    -0.572 OA
ATOM    154  O61 IDS d 304     -26.681  51.213  14.472  0.00  0.00    -0.646 OA
ATOM    155  C4  IDS d 304     -25.159  50.994  11.463  0.00  0.00     0.103 C 
ATOM    156  C6  IDS d 304     -26.072  50.417  13.809  0.00  0.00     0.206 C 
ATOM    157  H   IDS d 304     -22.329  50.417  10.021  0.00  0.00     0.210 HD
ATOM    158  H   IDS d 304     -24.198  49.992  13.017  0.00  0.00     0.104 H 
ATOM    159  H   IDS d 304     -24.197  51.767   9.739  0.00  0.00     0.091 H 
ATOM    160  H   IDS d 304     -22.076  52.338  11.091  0.00  0.00     0.097 H 
ATOM    161  H   IDS d 304     -22.701  53.179  13.396  0.00  0.00     0.133 H 
ATOM    162  H   IDS d 304     -25.532  50.055  11.110  0.00  0.00     0.092 H 
ENDROOT
TORSDOF 51
ENDMDL
MODEL 4
REMARK VINA RESULT:     -12.3      3.746      6.292
REMARK  0 active torsions:
REMARK  status: ('A' for Active; 'I' for Inactive)
REMARK       I    between atoms: N_2  and  C2_29 
REMARK       I    between atoms: N_2  and  S1_49 
REMARK       I    between atoms: S_3  and  O2_103 
REMARK       I    between atoms: C5_6  and  C6_92 
REMARK       I    between atoms: C4_8  and  O4_100 
REMARK       I    between atoms: C2_9  and  O2_103 
REMARK       I    between atoms: O1S_10  and  S1_36 
REMARK       I    between atoms: O2S_11  and  S1_93 
REMARK       I    between atoms: C3_12  and  O3_54 
REMARK       I    between atoms: O4_13  and  C4_20 
REMARK       I    between atoms: O4_13  and  C1_26 
REMARK       I    between atoms: O6_15  and  C6_46 
REMARK       I    between atoms: O6_15  and  S2_104 
REMARK       I    between atoms: C5_16  and  C6_46 
REMARK       I    between atoms: C4_17  and  O4_90 
REMARK       I    between atoms: S_18  and  O2_62 
REMARK       I    between atoms: C3_19  and  O3_68 
REMARK       I    between atoms: S2_25  and  O6_53 
REMARK       I    between atoms: O4_27  and  C4_69 
REMARK       I    between atoms: O4_27  and  C1_89 
REMARK       I    between atoms: O3_28  and  C3_37 
REMARK       I    between atoms: C1_30  and  O4_73 
REMARK       I    between atoms: O2S_32  and  S1_49 
REMARK       I    between atoms: S_33  and  O2_48 
REMARK       I    between atoms: C6_34  and  C5_43 
REMARK       I    between atoms: C6_34  and  O6_60 
REMARK       I    between atoms: S1_36  and  N_85 
REMARK       I    between atoms: S1_36  and  O2S_63 
REMARK       I    between atoms: S1_36  and  O3S_74 
REMARK       I    between atoms: C6_40  and  C5_94 
REMARK       I    between atoms: O3S_42  and  S1_49 
REMARK       I    between atoms: C5_44  and  C6_99 
REMARK       I    between atoms: C1_47  and  O4_106 
REMARK       I    between atoms: O2_48  and  C2_57 
REMARK       I    between atoms: S1_49  and  O1S_55 
REMARK       I    between atoms: O1S_51  and  S1_93 
REMARK       I    between atoms: C3_52  and  O3_87 
REMARK       I    between atoms: O6_53  and  C6_92 
REMARK       I    between atoms: O3S_56  and  S1_93 
REMARK       I    between atoms: O3_58  and  C3_98 
REMARK       I    between atoms: C1_59  and  O1_81 
REMARK       I    between atoms: O6_60  and  S2_65 
REMARK       I    between atoms: O2_62  and  C2_77 
REMARK       I    between atoms: O3_64  and  C3_75 
REMARK       I    between atoms: C5_67  and  C6_101 
REMARK       I    between atoms: O4_73  and  C4_96 
REMARK       I    between atoms: C2_76  and  N_85 
REMARK       I    between atoms: N_78  and  C2_91 
REMARK       I    between atoms: N_78  and  S1_93 
REMARK       I    between atoms: C1_80  and  O4_100 
REMARK       I    between atoms: C4_102  and  O4_106 
ROOT
ATOM      1  O5S SGN d 305     -16.038  50.095  21.178  0.00  0.00    -0.572 OA
ATOM      2  C5  SGN d 305     -17.524  51.983  17.284  0.00  0.00     0.091 C 
ATOM      3  O1S SGN d 305     -19.841  55.751  19.800  0.00  0.00    -0.296 OA
ATOM      4  O4  SGN d 305     -15.538  52.951  16.549  0.00  0.00    -0.348 OA
ATOM      5  C4  SGN d 305     -16.654  53.197  17.325  0.00  0.00     0.095 C 
ATOM      6  O5  SGN d 305     -18.596  52.163  18.140  0.00  0.00    -0.349 OA
ATOM      7  S2  SGN d 305     -15.766  49.762  19.800  0.00  0.00     0.251 S 
ATOM      8  O3  SGN d 305     -16.753  55.467  16.617  0.00  0.00    -0.391 OA
ATOM      9  C1  SGN d 305     -19.432  53.241  17.774  0.00  0.00     0.150 C 
ATOM     10  S1  SGN d 305     -20.264  56.312  18.560  0.00  0.00     0.156 S 
ATOM     11  C3  SGN d 305     -17.490  54.296  16.721  0.00  0.00     0.083 C 
ATOM     12  O6  SGN d 305     -16.344  50.904  18.954  0.00  0.00    -0.254 OA
ATOM     13  O2S SGN d 305     -19.909  57.666  18.455  0.00  0.00    -0.296 OA
ATOM     14  O4S SGN d 305     -14.362  49.756  19.471  0.00  0.00    -0.572 OA
ATOM     15  O3S SGN d 305     -21.633  56.050  18.320  0.00  0.00    -0.296 OA
ATOM     16  C2  SGN d 305     -18.606  54.505  17.691  0.00  0.00     0.081 C 
ATOM     17  N   SGN d 305     -19.448  55.613  17.347  0.00  0.00    -0.210 NA
ATOM     18  C6  SGN d 305     -16.855  50.718  17.686  0.00  0.00     0.067 C 
ATOM     19  O6S SGN d 305     -16.487  48.570  19.368  0.00  0.00    -0.572 OA
ATOM     20  H   SGN d 305     -17.812  51.880  16.259  0.00  0.00     0.090 H 
ATOM     21  H   SGN d 305     -18.901  55.945  19.939  0.00  0.00     0.231 HD
ATOM     22  H   SGN d 305     -16.326  53.457  18.310  0.00  0.00     0.091 H 
ATOM     23  H   SGN d 305     -16.027  55.337  15.988  0.00  0.00     0.210 HD
ATOM     24  H   SGN d 305     -20.192  53.356  18.519  0.00  0.00     0.131 H 
ATOM     25  H   SGN d 305     -17.831  54.040  15.740  0.00  0.00     0.089 H 
ATOM     26  H   SGN d 305     -18.960  57.766  18.632  0.00  0.00     0.231 HD
ATOM     27  H   SGN d 305     -21.801  55.099  18.411  0.00  0.00     0.231 HD
ATOM     28  H   SGN d 305     -18.166  54.736  18.638  0.00  0.00     0.076 H 
ATOM     29  H   SGN d 305     -18.860  56.327  16.919  0.00  0.00     0.140 HD
ATOM     30  H   SGN d 305     -16.064  50.490  17.003  0.00  0.00     0.080 H 
ATOM     31  H   SGN d 305     -17.550  49.905  17.677  0.00  0.00     0.080 H 
ATOM     32  N   SGN d 303     -23.893  46.623  12.497  0.00  0.00    -0.210 NA
ATOM     33  C4  SGN d 303     -23.510  50.362  13.061  0.00  0.00     0.095 C 
ATOM     34  C2  SGN d 303     -23.809  48.032  12.154  0.00  0.00     0.081 C 
ATOM     35  O5S SGN d 303     -22.061  53.099   9.623  0.00  0.00    -0.572 OA
ATOM     36  O2S SGN d 303     -22.466  45.290  11.002  0.00  0.00    -0.296 OA
ATOM     37  C6  SGN d 303     -24.865  52.130  11.841  0.00  0.00     0.067 C 
ATOM     38  O3S SGN d 303     -24.461  44.336  11.913  0.00  0.00    -0.296 OA
ATOM     39  C5  SGN d 303     -24.812  50.698  12.343  0.00  0.00     0.091 C 
ATOM     40  S1  SGN d 303     -23.849  45.487  11.320  0.00  0.00     0.156 S 
ATOM     41  O6S SGN d 303     -24.328  52.761   8.902  0.00  0.00    -0.572 OA
ATOM     42  O1S SGN d 303     -24.578  45.987  10.189  0.00  0.00    -0.296 OA
ATOM     43  O3  SGN d 303     -22.258  48.510  13.908  0.00  0.00    -0.391 OA
ATOM     44  O6  SGN d 303     -23.681  52.328  11.131  0.00  0.00    -0.254 OA
ATOM     45  S2  SGN d 303     -23.453  53.238   9.915  0.00  0.00     0.251 S 
ATOM     46  O5  SGN d 303     -24.999  49.861  11.208  0.00  0.00    -0.349 OA
ATOM     47  C1  SGN d 303     -25.103  48.488  11.514  0.00  0.00     0.150 C 
ATOM     48  O4S SGN d 303     -23.794  54.561  10.311  0.00  0.00    -0.572 OA
ATOM     49  C3  SGN d 303     -23.524  48.866  13.396  0.00  0.00     0.083 C 
ATOM     50  O4  SGN d 303     -23.467  51.097  14.252  0.00  0.00    -0.348 OA
ATOM     51  H   SGN d 303     -24.773  46.494  12.998  0.00  0.00     0.140 HD
ATOM     52  H   SGN d 303     -22.662  50.597  12.452  0.00  0.00     0.091 H 
ATOM     53  H   SGN d 303     -23.007  48.167  11.458  0.00  0.00     0.076 H 
ATOM     54  H   SGN d 303     -21.999  44.953  11.782  0.00  0.00     0.231 HD
ATOM     55  H   SGN d 303     -24.924  52.811  12.664  0.00  0.00     0.080 H 
ATOM     56  H   SGN d 303     -25.725  52.301  11.229  0.00  0.00     0.080 H 
ATOM     57  H   SGN d 303     -23.930  44.040  12.669  0.00  0.00     0.231 HD
ATOM     58  H   SGN d 303     -25.578  50.548  13.075  0.00  0.00     0.090 H 
ATOM     59  H   SGN d 303     -24.122  46.763   9.828  0.00  0.00     0.231 HD
ATOM     60  H   SGN d 303     -22.069  49.038  14.700  0.00  0.00     0.210 HD
ATOM     61  H   SGN d 303     -25.278  47.957  10.601  0.00  0.00     0.131 H 
ATOM     62  H   SGN d 303     -24.294  48.677  14.114  0.00  0.00     0.089 H 
ATOM     63  S   IDS d 302     -27.035  45.058  14.957  0.00  0.00     0.252 S 
ATOM     64  O2S IDS d 302     -25.684  45.216  15.376  0.00  0.00    -0.572 OA
ATOM     65  O62 IDS d 302     -27.792  50.944  10.835  0.00  0.00    -0.646 OA
ATOM     66  C2  IDS d 302     -28.495  46.525  13.391  0.00  0.00     0.134 C 
ATOM     67  O5  IDS d 302     -28.513  48.896  13.698  0.00  0.00    -0.340 OA
ATOM     68  O1S IDS d 302     -27.245  43.948  14.088  0.00  0.00    -0.572 OA
ATOM     69  O4  IDS d 302     -26.196  48.198  12.361  0.00  0.00    -0.348 OA
ATOM     70  O3S IDS d 302     -27.946  45.081  16.044  0.00  0.00    -0.572 OA
ATOM     71  C5  IDS d 302     -28.369  49.136  12.308  0.00  0.00     0.152 C 
ATOM     72  C1  IDS d 302     -29.201  47.696  14.007  0.00  0.00     0.161 C 
ATOM     73  C3  IDS d 302     -28.078  46.752  11.939  0.00  0.00     0.094 C 
ATOM     74  C4  IDS d 302     -27.449  48.114  11.720  0.00  0.00     0.103 C 
ATOM     75  O3  IDS d 302     -29.231  46.682  11.141  0.00  0.00    -0.390 OA
ATOM     76  O61 IDS d 302     -27.799  51.392  12.911  0.00  0.00    -0.646 OA
ATOM     77  C6  IDS d 302     -27.962  50.576  12.005  0.00  0.00     0.206 C 
ATOM     78  O2  IDS d 302     -27.354  46.289  14.107  0.00  0.00    -0.244 OA
ATOM     79  H   IDS d 302     -29.183  45.706  13.410  0.00  0.00     0.097 H 
ATOM     80  H   IDS d 302     -29.322  49.026  11.833  0.00  0.00     0.104 H 
ATOM     81  H   IDS d 302     -29.207  47.597  15.072  0.00  0.00     0.133 H 
ATOM     82  H   IDS d 302     -27.355  46.006  11.685  0.00  0.00     0.091 H 
ATOM     83  H   IDS d 302     -27.300  48.277  10.673  0.00  0.00     0.092 H 
ATOM     84  H   IDS d 302     -29.853  47.376  11.409  0.00  0.00     0.210 HD
ATOM     85  O5  IDS d 306     -13.628  53.413  17.781  0.00  0.00    -0.340 OA
ATOM     86  C4  IDS d 306     -12.303  53.757  15.787  0.00  0.00     0.097 C 
ATOM     87  C3  IDS d 306     -12.773  52.353  15.260  0.00  0.00     0.094 C 
ATOM     88  C1  IDS d 306     -14.445  52.401  17.242  0.00  0.00     0.161 C 
ATOM     89  S   IDS d 306     -11.963  49.592  16.329  0.00  0.00     0.252 S 
ATOM     90  O3S IDS d 306     -11.870  48.562  17.342  0.00  0.00    -0.572 OA
ATOM     91  C6  IDS d 306     -12.833  55.662  17.503  0.00  0.00     0.206 C 
ATOM     92  O61 IDS d 306     -13.302  55.979  18.593  0.00  0.00    -0.646 OA
ATOM     93  O2  IDS d 306     -12.778  50.738  16.969  0.00  0.00    -0.244 OA
ATOM     94  C2  IDS d 306     -13.644  51.564  16.268  0.00  0.00     0.134 C 
ATOM     95  O62 IDS d 306     -12.022  56.416  16.977  0.00  0.00    -0.646 OA
ATOM     96  O3  IDS d 306     -13.533  52.490  14.066  0.00  0.00    -0.390 OA
ATOM     97  O2S IDS d 306     -10.676  50.157  15.971  0.00  0.00    -0.572 OA
ATOM     98  O4  IDS d 306     -11.053  53.572  16.432  0.00  0.00    -0.390 OA
ATOM     99  C5  IDS d 306     -13.280  54.370  16.817  0.00  0.00     0.152 C 
ATOM    100  O1S IDS d 306     -12.752  49.215  15.167  0.00  0.00    -0.572 OA
ATOM    101  H   IDS d 306     -12.249  54.425  14.953  0.00  0.00     0.091 H 
ATOM    102  H   IDS d 306     -11.868  51.808  15.093  0.00  0.00     0.091 H 
ATOM    103  H   IDS d 306     -14.802  51.801  18.053  0.00  0.00     0.133 H 
ATOM    104  H   IDS d 306     -14.387  51.037  15.706  0.00  0.00     0.097 H 
ATOM    105  H   IDS d 306     -14.343  52.988  14.255  0.00  0.00     0.210 HD
ATOM    106  H   IDS d 306     -11.162  52.960  17.177  0.00  0.00     0.210 HD
ATOM    107  H   IDS d 306     -14.125  54.662  16.229  0.00  0.00     0.104 H 
ATOM    108  O2S SGN d 301     -32.877  54.097  14.124  0.00  0.00    -0.296 OA
ATOM    109  C3  SGN d 301     -31.969  49.680  13.487  0.00  0.00     0.083 C 
ATOM    110  O6S SGN d 301     -32.431  45.755  18.888  0.00  0.00    -0.572 OA
ATOM    111  O6  SGN d 301     -31.714  47.001  16.958  0.00  0.00    -0.254 OA
ATOM    112  C5  SGN d 301     -32.588  47.673  14.833  0.00  0.00     0.091 C 
ATOM    113  O5  SGN d 301     -33.538  48.471  15.542  0.00  0.00    -0.350 OA
ATOM    114  O5S SGN d 301     -30.335  46.963  18.948  0.00  0.00    -0.572 OA
ATOM    115  C6  SGN d 301     -32.246  46.504  15.754  0.00  0.00     0.067 C 
ATOM    116  O1S SGN d 301     -33.241  52.705  16.041  0.00  0.00    -0.296 OA
ATOM    117  O3  SGN d 301     -30.930  50.507  13.034  0.00  0.00    -0.391 OA
ATOM    118  O3S SGN d 301     -35.088  53.310  14.652  0.00  0.00    -0.296 OA
ATOM    119  C1  SGN d 301     -34.043  49.561  14.790  0.00  0.00     0.147 C 
ATOM    120  N   SGN d 301     -33.433  51.703  13.747  0.00  0.00    -0.210 NA
ATOM    121  O1  SGN d 301     -34.710  49.077  13.600  0.00  0.00    -0.369 OA
ATOM    122  O4S SGN d 301     -30.551  44.985  17.594  0.00  0.00    -0.572 OA
ATOM    123  C2  SGN d 301     -32.907  50.487  14.385  0.00  0.00     0.081 C 
ATOM    124  S1  SGN d 301     -33.671  53.040  14.699  0.00  0.00     0.156 S 
ATOM    125  C4  SGN d 301     -31.382  48.531  14.351  0.00  0.00     0.095 C 
ATOM    126  S2  SGN d 301     -31.228  46.127  18.174  0.00  0.00     0.251 S 
ATOM    127  O4  SGN d 301     -30.525  47.726  13.573  0.00  0.00    -0.348 OA
ATOM    128  H   SGN d 301     -32.985  54.905  14.650  0.00  0.00     0.231 HD
ATOM    129  H   SGN d 301     -32.490  49.289  12.638  0.00  0.00     0.089 H 
ATOM    130  H   SGN d 301     -32.973  47.275  13.918  0.00  0.00     0.090 H 
ATOM    131  H   SGN d 301     -33.133  45.941  15.961  0.00  0.00     0.080 H 
ATOM    132  H   SGN d 301     -31.527  45.871  15.278  0.00  0.00     0.080 H 
ATOM    133  H   SGN d 301     -33.370  53.471  16.622  0.00  0.00     0.231 HD
ATOM    134  H   SGN d 301     -30.449  50.867  13.795  0.00  0.00     0.210 HD
ATOM    135  H   SGN d 301     -35.287  54.088  15.195  0.00  0.00     0.231 HD
ATOM    136  H   SGN d 301     -34.741  50.097  15.397  0.00  0.00     0.131 H 
ATOM    137  H   SGN d 301     -34.333  51.463  13.331  0.00  0.00     0.140 HD
ATOM    138  H   SGN d 301     -34.077  48.590  13.049  0.00  0.00     0.212 HD
ATOM    139  H   SGN d 301     -32.356  50.836  15.233  0.00  0.00     0.076 H 
ATOM    140  H   SGN d 301     -30.822  48.925  15.173  0.00  0.00     0.091 H 
ATOM    141  S   IDS d 304     -22.938  55.446  14.380  0.00  0.00     0.252 S 
ATOM    142  O62 IDS d 304     -19.224  49.410  15.827  0.00  0.00    -0.646 OA
ATOM    143  O1S IDS d 304     -24.085  54.890  13.761  0.00  0.00    -0.572 OA
ATOM    144  O2  IDS d 304     -22.342  54.332  15.248  0.00  0.00    -0.244 OA
ATOM    145  O3  IDS d 304     -23.220  51.572  17.337  0.00  0.00    -0.390 OA
ATOM    146  C5  IDS d 304     -20.887  51.049  15.420  0.00  0.00     0.152 C 
ATOM    147  O5  IDS d 304     -21.241  51.759  14.286  0.00  0.00    -0.340 OA
ATOM    148  O3S IDS d 304     -21.915  55.749  13.466  0.00  0.00    -0.572 OA
ATOM    149  O4  IDS d 304     -20.067  52.997  16.557  0.00  0.00    -0.348 OA
ATOM    150  C3  IDS d 304     -22.356  52.558  16.821  0.00  0.00     0.094 C 
ATOM    151  C2  IDS d 304     -22.903  53.069  15.471  0.00  0.00     0.134 C 
ATOM    152  C1  IDS d 304     -22.594  52.178  14.267  0.00  0.00     0.161 C 
ATOM    153  O2S IDS d 304     -23.253  56.541  15.238  0.00  0.00    -0.572 OA
ATOM    154  O61 IDS d 304     -18.740  50.788  14.410  0.00  0.00    -0.646 OA
ATOM    155  C4  IDS d 304     -20.978  51.950  16.659  0.00  0.00     0.103 C 
ATOM    156  C6  IDS d 304     -19.543  50.373  15.202  0.00  0.00     0.206 C 
ATOM    157  H   IDS d 304     -24.108  51.946  17.446  0.00  0.00     0.210 HD
ATOM    158  H   IDS d 304     -21.577  50.254  15.609  0.00  0.00     0.104 H 
ATOM    159  H   IDS d 304     -22.293  53.393  17.488  0.00  0.00     0.091 H 
ATOM    160  H   IDS d 304     -23.969  53.081  15.552  0.00  0.00     0.097 H 
ATOM    161  H   IDS d 304     -22.736  52.739  13.367  0.00  0.00     0.133 H 
ATOM    162  H   IDS d 304     -20.763  51.331  17.505  0.00  0.00     0.092 H 
ENDROOT
TORSDOF 51
ENDMDL
MODEL 5
REMARK VINA RESULT:     -12.1      3.486      5.912
REMARK  0 active torsions:
REMARK  status: ('A' for Active; 'I' for Inactive)
REMARK       I    between atoms: N_2  and  C2_29 
REMARK       I    between atoms: N_2  and  S1_49 
REMARK       I    between atoms: S_3  and  O2_103 
REMARK       I    between atoms: C5_6  and  C6_92 
REMARK       I    between atoms: C4_8  and  O4_100 
REMARK       I    between atoms: C2_9  and  O2_103 
REMARK       I    between atoms: O1S_10  and  S1_36 
REMARK       I    between atoms: O2S_11  and  S1_93 
REMARK       I    between atoms: C3_12  and  O3_54 
REMARK       I    between atoms: O4_13  and  C4_20 
REMARK       I    between atoms: O4_13  and  C1_26 
REMARK       I    between atoms: O6_15  and  C6_46 
REMARK       I    between atoms: O6_15  and  S2_104 
REMARK       I    between atoms: C5_16  and  C6_46 
REMARK       I    between atoms: C4_17  and  O4_90 
REMARK       I    between atoms: S_18  and  O2_62 
REMARK       I    between atoms: C3_19  and  O3_68 
REMARK       I    between atoms: S2_25  and  O6_53 
REMARK       I    between atoms: O4_27  and  C4_69 
REMARK       I    between atoms: O4_27  and  C1_89 
REMARK       I    between atoms: O3_28  and  C3_37 
REMARK       I    between atoms: C1_30  and  O4_73 
REMARK       I    between atoms: O2S_32  and  S1_49 
REMARK       I    between atoms: S_33  and  O2_48 
REMARK       I    between atoms: C6_34  and  C5_43 
REMARK       I    between atoms: C6_34  and  O6_60 
REMARK       I    between atoms: S1_36  and  N_85 
REMARK       I    between atoms: S1_36  and  O2S_63 
REMARK       I    between atoms: S1_36  and  O3S_74 
REMARK       I    between atoms: C6_40  and  C5_94 
REMARK       I    between atoms: O3S_42  and  S1_49 
REMARK       I    between atoms: C5_44  and  C6_99 
REMARK       I    between atoms: C1_47  and  O4_106 
REMARK       I    between atoms: O2_48  and  C2_57 
REMARK       I    between atoms: S1_49  and  O1S_55 
REMARK       I    between atoms: O1S_51  and  S1_93 
REMARK       I    between atoms: C3_52  and  O3_87 
REMARK       I    between atoms: O6_53  and  C6_92 
REMARK       I    between atoms: O3S_56  and  S1_93 
REMARK       I    between atoms: O3_58  and  C3_98 
REMARK       I    between atoms: C1_59  and  O1_81 
REMARK       I    between atoms: O6_60  and  S2_65 
REMARK       I    between atoms: O2_62  and  C2_77 
REMARK       I    between atoms: O3_64  and  C3_75 
REMARK       I    between atoms: C5_67  and  C6_101 
REMARK       I    between atoms: O4_73  and  C4_96 
REMARK       I    between atoms: C2_76  and  N_85 
REMARK       I    between atoms: N_78  and  C2_91 
REMARK       I    between atoms: N_78  and  S1_93 
REMARK       I    between atoms: C1_80  and  O4_100 
REMARK       I    between atoms: C4_102  and  O4_106 
ROOT
ATOM      1  O5S SGN d 305     -16.484  52.580  19.738  0.00  0.00    -0.572 OA
ATOM      2  C5  SGN d 305     -18.904  53.771  16.041  0.00  0.00     0.091 C 
ATOM      3  O1S SGN d 305     -22.065  56.626  18.826  0.00  0.00    -0.296 OA
ATOM      4  O4  SGN d 305     -17.437  55.321  15.111  0.00  0.00    -0.348 OA
ATOM      5  C4  SGN d 305     -18.485  55.205  16.002  0.00  0.00     0.095 C 
ATOM      6  O5  SGN d 305     -19.881  53.609  17.008  0.00  0.00    -0.349 OA
ATOM      7  S2  SGN d 305     -16.260  52.320  18.335  0.00  0.00     0.251 S 
ATOM      8  O3  SGN d 305     -19.403  57.297  15.333  0.00  0.00    -0.391 OA
ATOM      9  C1  SGN d 305     -21.059  54.341  16.743  0.00  0.00     0.150 C 
ATOM     10  S1  SGN d 305     -22.776  56.984  17.643  0.00  0.00     0.156 S 
ATOM     11  C3  SGN d 305     -19.696  55.951  15.502  0.00  0.00     0.083 C 
ATOM     12  O6  SGN d 305     -17.268  53.185  17.566  0.00  0.00    -0.254 OA
ATOM     13  O2S SGN d 305     -22.901  58.376  17.515  0.00  0.00    -0.296 OA
ATOM     14  O4S SGN d 305     -14.975  52.769  17.860  0.00  0.00    -0.572 OA
ATOM     15  O3S SGN d 305     -23.997  56.279  17.547  0.00  0.00    -0.296 OA
ATOM     16  C2  SGN d 305     -20.711  55.805  16.586  0.00  0.00     0.081 C 
ATOM     17  N   SGN d 305     -21.904  56.562  16.344  0.00  0.00    -0.210 NA
ATOM     18  C6  SGN d 305     -17.817  52.809  16.358  0.00  0.00     0.067 C 
ATOM     19  O6S SGN d 305     -16.587  50.946  17.970  0.00  0.00    -0.572 OA
ATOM     20  H   SGN d 305     -19.246  53.553  15.051  0.00  0.00     0.090 H 
ATOM     21  H   SGN d 305     -21.234  57.123  18.867  0.00  0.00     0.231 HD
ATOM     22  H   SGN d 305     -18.162  55.583  16.950  0.00  0.00     0.091 H 
ATOM     23  H   SGN d 305     -18.743  57.397  14.629  0.00  0.00     0.210 HD
ATOM     24  H   SGN d 305     -21.733  54.217  17.565  0.00  0.00     0.131 H 
ATOM     25  H   SGN d 305     -20.032  55.571  14.559  0.00  0.00     0.089 H 
ATOM     26  H   SGN d 305     -22.026  58.788  17.592  0.00  0.00     0.231 HD
ATOM     27  H   SGN d 305     -23.831  55.329  17.645  0.00  0.00     0.231 HD
ATOM     28  H   SGN d 305     -20.278  56.192  17.484  0.00  0.00     0.076 H 
ATOM     29  H   SGN d 305     -21.632  57.419  15.863  0.00  0.00     0.140 HD
ATOM     30  H   SGN d 305     -17.069  52.837  15.592  0.00  0.00     0.080 H 
ATOM     31  H   SGN d 305     -18.200  51.811  16.414  0.00  0.00     0.080 H 
ATOM     32  N   SGN d 303     -23.597  46.489  11.900  0.00  0.00    -0.210 NA
ATOM     33  C4  SGN d 303     -24.417  50.158  12.458  0.00  0.00     0.095 C 
ATOM     34  C2  SGN d 303     -24.020  47.838  11.564  0.00  0.00     0.081 C 
ATOM     35  O5S SGN d 303     -24.317  53.131   8.914  0.00  0.00    -0.572 OA
ATOM     36  O2S SGN d 303     -21.972  45.665  10.249  0.00  0.00    -0.296 OA
ATOM     37  C6  SGN d 303     -26.399  51.348  11.406  0.00  0.00     0.067 C 
ATOM     38  O3S SGN d 303     -23.434  44.129  11.356  0.00  0.00    -0.296 OA
ATOM     39  C5  SGN d 303     -25.824  50.027  11.885  0.00  0.00     0.091 C 
ATOM     40  S1  SGN d 303     -23.301  45.402  10.713  0.00  0.00     0.156 S 
ATOM     41  O6S SGN d 303     -26.406  52.046   8.433  0.00  0.00    -0.572 OA
ATOM     42  O1S SGN d 303     -24.268  45.605   9.671  0.00  0.00    -0.296 OA
ATOM     43  O3  SGN d 303     -22.543  48.846  13.149  0.00  0.00    -0.391 OA
ATOM     44  O6  SGN d 303     -25.427  51.907  10.577  0.00  0.00    -0.254 OA
ATOM     45  S2  SGN d 303     -25.639  52.811   9.353  0.00  0.00     0.251 S 
ATOM     46  O5  SGN d 303     -25.839  49.146  10.768  0.00  0.00    -0.349 OA
ATOM     47  C1  SGN d 303     -25.451  47.824  11.069  0.00  0.00     0.150 C 
ATOM     48  O4S SGN d 303     -26.357  53.957   9.796  0.00  0.00    -0.572 OA
ATOM     49  C3  SGN d 303     -23.901  48.751  12.777  0.00  0.00     0.083 C 
ATOM     50  O4  SGN d 303     -24.497  50.896  13.645  0.00  0.00    -0.348 OA
ATOM     51  H   SGN d 303     -24.328  46.090  12.489  0.00  0.00     0.140 HD
ATOM     52  H   SGN d 303     -23.762  50.645  11.765  0.00  0.00     0.091 H 
ATOM     53  H   SGN d 303     -23.384  48.212  10.788  0.00  0.00     0.076 H 
ATOM     54  H   SGN d 303     -21.342  45.520  10.972  0.00  0.00     0.231 HD
ATOM     55  H   SGN d 303     -26.595  51.992  12.238  0.00  0.00     0.080 H 
ATOM     56  H   SGN d 303     -27.325  51.210  10.889  0.00  0.00     0.080 H 
ATOM     57  H   SGN d 303     -22.760  44.044  12.049  0.00  0.00     0.231 HD
ATOM     58  H   SGN d 303     -26.417  49.651  12.692  0.00  0.00     0.090 H 
ATOM     59  H   SGN d 303     -24.133  46.478   9.271  0.00  0.00     0.231 HD
ATOM     60  H   SGN d 303     -22.459  49.426  13.922  0.00  0.00     0.210 HD
ATOM     61  H   SGN d 303     -25.533  47.243  10.175  0.00  0.00     0.131 H 
ATOM     62  H   SGN d 303     -24.487  48.337  13.571  0.00  0.00     0.089 H 
ATOM     63  S   IDS d 302     -25.774  44.038  14.662  0.00  0.00     0.252 S 
ATOM     64  O2S IDS d 302     -24.516  44.643  14.937  0.00  0.00    -0.572 OA
ATOM     65  O62 IDS d 302     -28.856  49.237  10.703  0.00  0.00    -0.646 OA
ATOM     66  C2  IDS d 302     -27.790  44.900  13.274  0.00  0.00     0.134 C 
ATOM     67  O5  IDS d 302     -28.560  47.140  13.604  0.00  0.00    -0.340 OA
ATOM     68  O1S IDS d 302     -25.693  42.899  13.809  0.00  0.00    -0.572 OA
ATOM     69  O4  IDS d 302     -26.293  47.211  12.024  0.00  0.00    -0.348 OA
ATOM     70  O3S IDS d 302     -26.524  43.786  15.839  0.00  0.00    -0.572 OA
ATOM     71  C5  IDS d 302     -28.647  47.378  12.210  0.00  0.00     0.152 C 
ATOM     72  C1  IDS d 302     -28.776  45.788  13.972  0.00  0.00     0.161 C 
ATOM     73  C3  IDS d 302     -27.624  45.215  11.788  0.00  0.00     0.094 C 
ATOM     74  C4  IDS d 302     -27.507  46.703  11.517  0.00  0.00     0.103 C 
ATOM     75  O3  IDS d 302     -28.764  44.748  11.116  0.00  0.00    -0.390 OA
ATOM     76  O61 IDS d 302     -28.797  49.710  12.772  0.00  0.00    -0.646 OA
ATOM     77  C6  IDS d 302     -28.773  48.864  11.880  0.00  0.00     0.206 C 
ATOM     78  O2  IDS d 302     -26.568  45.073  13.862  0.00  0.00    -0.244 OA
ATOM     79  H   IDS d 302     -28.162  43.901  13.357  0.00  0.00     0.097 H 
ATOM     80  H   IDS d 302     -29.553  46.948  11.837  0.00  0.00     0.104 H 
ATOM     81  H   IDS d 302     -28.639  45.720  15.031  0.00  0.00     0.133 H 
ATOM     82  H   IDS d 302     -26.724  44.743  11.452  0.00  0.00     0.091 H 
ATOM     83  H   IDS d 302     -27.528  46.879  10.462  0.00  0.00     0.092 H 
ATOM     84  H   IDS d 302     -29.549  45.205  11.455  0.00  0.00     0.210 HD
ATOM     85  O5  IDS d 306     -15.672  56.419  16.139  0.00  0.00    -0.340 OA
ATOM     86  C4  IDS d 306     -14.747  57.131  14.020  0.00  0.00     0.097 C 
ATOM     87  C3  IDS d 306     -14.778  55.637  13.531  0.00  0.00     0.094 C 
ATOM     88  C1  IDS d 306     -16.158  55.181  15.678  0.00  0.00     0.161 C 
ATOM     89  S   IDS d 306     -12.995  53.326  14.481  0.00  0.00     0.252 S 
ATOM     90  O3S IDS d 306     -12.462  52.410  15.468  0.00  0.00    -0.572 OA
ATOM     91  C6  IDS d 306     -15.699  58.797  15.802  0.00  0.00     0.206 C 
ATOM     92  O61 IDS d 306     -16.131  58.969  16.937  0.00  0.00    -0.646 OA
ATOM     93  O2  IDS d 306     -14.073  54.155  15.214  0.00  0.00    -0.244 OA
ATOM     94  C2  IDS d 306     -15.231  54.631  14.617  0.00  0.00     0.134 C 
ATOM     95  O62 IDS d 306     -15.242  59.762  15.200  0.00  0.00    -0.646 OA
ATOM     96  O3  IDS d 306     -15.659  55.486  12.426  0.00  0.00    -0.390 OA
ATOM     97  O2S IDS d 306     -12.012  54.274  13.994  0.00  0.00    -0.572 OA
ATOM     98  O4  IDS d 306     -13.447  57.384  14.527  0.00  0.00    -0.390 OA
ATOM     99  C5  IDS d 306     -15.761  57.412  15.153  0.00  0.00     0.152 C 
ATOM    100  O1S IDS d 306     -13.730  52.681  13.405  0.00  0.00    -0.572 OA
ATOM    101  H   IDS d 306     -15.004  57.757  13.192  0.00  0.00     0.091 H 
ATOM    102  H   IDS d 306     -13.766  55.417  13.264  0.00  0.00     0.091 H 
ATOM    103  H   IDS d 306     -16.211  54.517  16.517  0.00  0.00     0.133 H 
ATOM    104  H   IDS d 306     -15.811  53.874  14.132  0.00  0.00     0.097 H 
ATOM    105  H   IDS d 306     -16.565  55.692  12.704  0.00  0.00     0.210 HD
ATOM    106  H   IDS d 306     -13.270  56.790  15.273  0.00  0.00     0.210 HD
ATOM    107  H   IDS d 306     -16.711  57.394  14.661  0.00  0.00     0.104 H 
ATOM    108  O2S SGN d 301     -34.330  50.618  14.541  0.00  0.00    -0.296 OA
ATOM    109  C3  SGN d 301     -32.082  46.733  13.767  0.00  0.00     0.083 C 
ATOM    110  O6S SGN d 301     -30.661  43.015  19.147  0.00  0.00    -0.572 OA
ATOM    111  O6  SGN d 301     -30.599  44.378  17.165  0.00  0.00    -0.254 OA
ATOM    112  C5  SGN d 301     -31.860  44.670  15.151  0.00  0.00     0.091 C 
ATOM    113  O5  SGN d 301     -32.943  45.127  15.965  0.00  0.00    -0.350 OA
ATOM    114  O5S SGN d 301     -29.089  44.848  18.998  0.00  0.00    -0.572 OA
ATOM    115  C6  SGN d 301     -31.058  43.703  16.019  0.00  0.00     0.067 C 
ATOM    116  O1S SGN d 301     -34.014  49.233  16.472  0.00  0.00    -0.296 OA
ATOM    117  O3  SGN d 301     -31.429  47.845  13.216  0.00  0.00    -0.391 OA
ATOM    118  O3S SGN d 301     -36.090  49.158  15.292  0.00  0.00    -0.296 OA
ATOM    119  C1  SGN d 301     -33.854  45.969  15.281  0.00  0.00     0.147 C 
ATOM    120  N   SGN d 301     -34.099  48.166  14.201  0.00  0.00    -0.210 NA
ATOM    121  O1  SGN d 301     -34.443  45.263  14.163  0.00  0.00    -0.369 OA
ATOM    122  O4S SGN d 301     -28.776  42.875  17.654  0.00  0.00    -0.572 OA
ATOM    123  C2  SGN d 301     -33.138  47.208  14.768  0.00  0.00     0.081 C 
ATOM    124  S1  SGN d 301     -34.666  49.373  15.186  0.00  0.00     0.156 S 
ATOM    125  C4  SGN d 301     -31.063  45.865  14.553  0.00  0.00     0.095 C 
ATOM    126  S2  SGN d 301     -29.730  43.745  18.314  0.00  0.00     0.251 S 
ATOM    127  O4  SGN d 301     -30.073  45.369  13.681  0.00  0.00    -0.348 OA
ATOM    128  H   SGN d 301     -34.645  51.358  15.084  0.00  0.00     0.231 HD
ATOM    129  H   SGN d 301     -32.529  46.171  12.975  0.00  0.00     0.089 H 
ATOM    130  H   SGN d 301     -32.184  44.144  14.277  0.00  0.00     0.090 H 
ATOM    131  H   SGN d 301     -31.682  42.884  16.312  0.00  0.00     0.080 H 
ATOM    132  H   SGN d 301     -30.223  43.331  15.464  0.00  0.00     0.080 H 
ATOM    133  H   SGN d 301     -34.328  49.928  17.071  0.00  0.00     0.231 HD
ATOM    134  H   SGN d 301     -31.018  48.363  13.925  0.00  0.00     0.210 HD
ATOM    135  H   SGN d 301     -36.478  49.841  15.861  0.00  0.00     0.231 HD
ATOM    136  H   SGN d 301     -34.625  46.261  15.964  0.00  0.00     0.131 H 
ATOM    137  H   SGN d 301     -34.906  47.632  13.880  0.00  0.00     0.140 HD
ATOM    138  H   SGN d 301     -33.744  44.998  13.544  0.00  0.00     0.212 HD
ATOM    139  H   SGN d 301     -32.648  47.741  15.557  0.00  0.00     0.076 H 
ATOM    140  H   SGN d 301     -30.583  46.442  15.316  0.00  0.00     0.091 H 
ATOM    141  S   IDS d 304     -25.427  55.178  13.761  0.00  0.00     0.252 S 
ATOM    142  O62 IDS d 304     -19.798  50.745  14.746  0.00  0.00    -0.646 OA
ATOM    143  O1S IDS d 304     -26.383  54.259  13.260  0.00  0.00    -0.572 OA
ATOM    144  O2  IDS d 304     -24.410  54.345  14.549  0.00  0.00    -0.244 OA
ATOM    145  O3  IDS d 304     -24.106  51.505  16.691  0.00  0.00    -0.390 OA
ATOM    146  C5  IDS d 304     -21.941  51.733  14.533  0.00  0.00     0.152 C 
ATOM    147  O5  IDS d 304     -22.625  52.257  13.451  0.00  0.00    -0.340 OA
ATOM    148  O3S IDS d 304     -24.662  55.778  12.747  0.00  0.00    -0.572 OA
ATOM    149  O4  IDS d 304     -21.700  53.870  15.597  0.00  0.00    -0.348 OA
ATOM    150  C3  IDS d 304     -23.674  52.707  16.097  0.00  0.00     0.094 C 
ATOM    151  C2  IDS d 304     -24.495  52.974  14.818  0.00  0.00     0.134 C 
ATOM    152  C1  IDS d 304     -24.035  52.205  13.579  0.00  0.00     0.161 C 
ATOM    153  O2S IDS d 304     -25.997  56.129  14.658  0.00  0.00    -0.572 OA
ATOM    154  O61 IDS d 304     -19.945  52.169  13.300  0.00  0.00    -0.646 OA
ATOM    155  C4  IDS d 304     -22.197  52.584  15.784  0.00  0.00     0.103 C 
ATOM    156  C6  IDS d 304     -20.479  51.533  14.168  0.00  0.00     0.206 C 
ATOM    157  H   IDS d 304     -25.051  51.567  16.898  0.00  0.00     0.210 HD
ATOM    158  H   IDS d 304     -22.306  50.759  14.786  0.00  0.00     0.104 H 
ATOM    159  H   IDS d 304     -23.823  53.533  16.762  0.00  0.00     0.091 H 
ATOM    160  H   IDS d 304     -25.491  52.636  15.011  0.00  0.00     0.097 H 
ATOM    161  H   IDS d 304     -24.447  52.664  12.704  0.00  0.00     0.133 H 
ATOM    162  H   IDS d 304     -21.704  52.092  16.597  0.00  0.00     0.092 H 
ENDROOT
TORSDOF 51
ENDMDL
MODEL 6
REMARK VINA RESULT:     -11.4      3.999      6.390
REMARK  0 active torsions:
REMARK  status: ('A' for Active; 'I' for Inactive)
REMARK       I    between atoms: N_2  and  C2_29 
REMARK       I    between atoms: N_2  and  S1_49 
REMARK       I    between atoms: S_3  and  O2_103 
REMARK       I    between atoms: C5_6  and  C6_92 
REMARK       I    between atoms: C4_8  and  O4_100 
REMARK       I    between atoms: C2_9  and  O2_103 
REMARK       I    between atoms: O1S_10  and  S1_36 
REMARK       I    between atoms: O2S_11  and  S1_93 
REMARK       I    between atoms: C3_12  and  O3_54 
REMARK       I    between atoms: O4_13  and  C4_20 
REMARK       I    between atoms: O4_13  and  C1_26 
REMARK       I    between atoms: O6_15  and  C6_46 
REMARK       I    between atoms: O6_15  and  S2_104 
REMARK       I    between atoms: C5_16  and  C6_46 
REMARK       I    between atoms: C4_17  and  O4_90 
REMARK       I    between atoms: S_18  and  O2_62 
REMARK       I    between atoms: C3_19  and  O3_68 
REMARK       I    between atoms: S2_25  and  O6_53 
REMARK       I    between atoms: O4_27  and  C4_69 
REMARK       I    between atoms: O4_27  and  C1_89 
REMARK       I    between atoms: O3_28  and  C3_37 
REMARK       I    between atoms: C1_30  and  O4_73 
REMARK       I    between atoms: O2S_32  and  S1_49 
REMARK       I    between atoms: S_33  and  O2_48 
REMARK       I    between atoms: C6_34  and  C5_43 
REMARK       I    between atoms: C6_34  and  O6_60 
REMARK       I    between atoms: S1_36  and  N_85 
REMARK       I    between atoms: S1_36  and  O2S_63 
REMARK       I    between atoms: S1_36  and  O3S_74 
REMARK       I    between atoms: C6_40  and  C5_94 
REMARK       I    between atoms: O3S_42  and  S1_49 
REMARK       I    between atoms: C5_44  and  C6_99 
REMARK       I    between atoms: C1_47  and  O4_106 
REMARK       I    between atoms: O2_48  and  C2_57 
REMARK       I    between atoms: S1_49  and  O1S_55 
REMARK       I    between atoms: O1S_51  and  S1_93 
REMARK       I    between atoms: C3_52  and  O3_87 
REMARK       I    between atoms: O6_53  and  C6_92 
REMARK       I    between atoms: O3S_56  and  S1_93 
REMARK       I    between atoms: O3_58  and  C3_98 
REMARK       I    between atoms: C1_59  and  O1_81 
REMARK       I    between atoms: O6_60  and  S2_65 
REMARK       I    between atoms: O2_62  and  C2_77 
REMARK       I    between atoms: O3_64  and  C3_75 
REMARK       I    between atoms: C5_67  and  C6_101 
REMARK       I    between atoms: O4_73  and  C4_96 
REMARK       I    between atoms: C2_76  and  N_85 
REMARK       I    between atoms: N_78  and  C2_91 
REMARK       I    between atoms: N_78  and  S1_93 
REMARK       I    between atoms: C1_80  and  O4_100 
REMARK       I    between atoms: C4_102  and  O4_106 
ROOT
ATOM      1  O5S SGN d 305     -16.838  49.817  21.935  0.00  0.00    -0.572 OA
ATOM      2  C5  SGN d 305     -17.485  51.907  17.916  0.00  0.00     0.091 C 
ATOM      3  O1S SGN d 305     -19.907  55.792  20.137  0.00  0.00    -0.296 OA
ATOM      4  O4  SGN d 305     -15.334  52.727  17.564  0.00  0.00    -0.348 OA
ATOM      5  C4  SGN d 305     -16.545  53.045  18.148  0.00  0.00     0.095 C 
ATOM      6  O5  SGN d 305     -18.671  52.154  18.584  0.00  0.00    -0.349 OA
ATOM      7  S2  SGN d 305     -16.359  49.494  20.612  0.00  0.00     0.251 S 
ATOM      8  O3  SGN d 305     -16.348  55.332  17.516  0.00  0.00    -0.391 OA
ATOM      9  C1  SGN d 305     -19.347  53.304  18.121  0.00  0.00     0.150 C 
ATOM     10  S1  SGN d 305     -20.066  56.414  18.865  0.00  0.00     0.156 S 
ATOM     11  C3  SGN d 305     -17.179  54.222  17.451  0.00  0.00     0.083 C 
ATOM     12  O6  SGN d 305     -16.695  50.698  19.721  0.00  0.00    -0.254 OA
ATOM     13  O2S SGN d 305     -19.596  57.736  18.871  0.00  0.00    -0.296 OA
ATOM     14  O4S SGN d 305     -14.924  49.381  20.526  0.00  0.00    -0.572 OA
ATOM     15  O3S SGN d 305     -21.389  56.269  18.387  0.00  0.00    -0.296 OA
ATOM     16  C2  SGN d 305     -18.425  54.499  18.224  0.00  0.00     0.081 C 
ATOM     17  N   SGN d 305     -19.110  55.678  17.783  0.00  0.00    -0.210 NA
ATOM     18  C6  SGN d 305     -16.993  50.583  18.380  0.00  0.00     0.067 C 
ATOM     19  O6S SGN d 305     -17.084  48.374  20.021  0.00  0.00    -0.572 OA
ATOM     20  H   SGN d 305     -17.599  51.851  16.853  0.00  0.00     0.090 H 
ATOM     21  H   SGN d 305     -18.993  55.906  20.440  0.00  0.00     0.231 HD
ATOM     22  H   SGN d 305     -16.372  53.255  19.183  0.00  0.00     0.091 H 
ATOM     23  H   SGN d 305     -15.536  55.157  17.015  0.00  0.00     0.210 HD
ATOM     24  H   SGN d 305     -20.213  53.463  18.730  0.00  0.00     0.131 H 
ATOM     25  H   SGN d 305     -17.365  54.016  16.418  0.00  0.00     0.089 H 
ATOM     26  H   SGN d 305     -18.687  57.755  19.209  0.00  0.00     0.231 HD
ATOM     27  H   SGN d 305     -21.642  55.333  18.413  0.00  0.00     0.231 HD
ATOM     28  H   SGN d 305     -18.139  54.672  19.240  0.00  0.00     0.076 H 
ATOM     29  H   SGN d 305     -18.404  56.352  17.487  0.00  0.00     0.140 HD
ATOM     30  H   SGN d 305     -16.116  50.307  17.832  0.00  0.00     0.080 H 
ATOM     31  H   SGN d 305     -17.736  49.829  18.223  0.00  0.00     0.080 H 
ATOM     32  N   SGN d 303     -23.325  47.191  11.927  0.00  0.00    -0.210 NA
ATOM     33  C4  SGN d 303     -22.761  50.873  12.683  0.00  0.00     0.095 C 
ATOM     34  C2  SGN d 303     -23.076  48.596  11.654  0.00  0.00     0.081 C 
ATOM     35  O5S SGN d 303     -20.538  53.560   9.642  0.00  0.00    -0.572 OA
ATOM     36  O2S SGN d 303     -21.767  45.781  10.648  0.00  0.00    -0.296 OA
ATOM     37  C6  SGN d 303     -23.748  52.772  11.316  0.00  0.00     0.067 C 
ATOM     38  O3S SGN d 303     -23.957  44.972  11.173  0.00  0.00    -0.296 OA
ATOM     39  C5  SGN d 303     -23.891  51.329  11.767  0.00  0.00     0.091 C 
ATOM     40  S1  SGN d 303     -23.165  46.082  10.734  0.00  0.00     0.156 S 
ATOM     41  O6S SGN d 303     -22.667  53.424   8.535  0.00  0.00    -0.572 OA
ATOM     42  O1S SGN d 303     -23.649  46.666   9.515  0.00  0.00    -0.296 OA
ATOM     43  O3  SGN d 303     -21.818  48.907  13.662  0.00  0.00    -0.391 OA
ATOM     44  O6  SGN d 303     -22.448  52.889  10.825  0.00  0.00    -0.254 OA
ATOM     45  S2  SGN d 303     -21.945  53.805   9.699  0.00  0.00     0.251 S 
ATOM     46  O5  SGN d 303     -23.943  50.536  10.587  0.00  0.00    -0.349 OA
ATOM     47  C1  SGN d 303     -24.202  49.170  10.821  0.00  0.00     0.150 C 
ATOM     48  O4S SGN d 303     -22.248  55.143  10.079  0.00  0.00    -0.572 OA
ATOM     49  C3  SGN d 303     -22.946  49.376  12.956  0.00  0.00     0.083 C 
ATOM     50  O4  SGN d 303     -22.868  51.575  13.890  0.00  0.00    -0.348 OA
ATOM     51  H   SGN d 303     -24.285  47.123  12.266  0.00  0.00     0.140 HD
ATOM     52  H   SGN d 303     -21.805  51.052  12.235  0.00  0.00     0.091 H 
ATOM     53  H   SGN d 303     -22.159  48.681  11.110  0.00  0.00     0.076 H 
ATOM     54  H   SGN d 303     -21.469  45.390  11.484  0.00  0.00     0.231 HD
ATOM     55  H   SGN d 303     -23.896  53.437  12.141  0.00  0.00     0.080 H 
ATOM     56  H   SGN d 303     -24.474  53.026  10.573  0.00  0.00     0.080 H 
ATOM     57  H   SGN d 303     -23.587  44.617  11.997  0.00  0.00     0.231 HD
ATOM     58  H   SGN d 303     -24.781  51.226  12.353  0.00  0.00     0.090 H 
ATOM     59  H   SGN d 303     -23.080  47.410   9.264  0.00  0.00     0.231 HD
ATOM     60  H   SGN d 303     -21.728  49.399  14.493  0.00  0.00     0.210 HD
ATOM     61  H   SGN d 303     -24.258  48.676   9.874  0.00  0.00     0.131 H 
ATOM     62  H   SGN d 303     -23.840  49.234  13.526  0.00  0.00     0.089 H 
ATOM     63  S   IDS d 302     -26.953  45.831  13.760  0.00  0.00     0.252 S 
ATOM     64  O2S IDS d 302     -25.686  45.869  14.408  0.00  0.00    -0.572 OA
ATOM     65  O62 IDS d 302     -26.540  51.851   9.785  0.00  0.00    -0.646 OA
ATOM     66  C2  IDS d 302     -28.006  47.446  12.024  0.00  0.00     0.134 C 
ATOM     67  O5  IDS d 302     -27.896  49.804  12.408  0.00  0.00    -0.340 OA
ATOM     68  O1S IDS d 302     -27.095  44.762  12.829  0.00  0.00    -0.572 OA
ATOM     69  O4  IDS d 302     -25.444  48.950  11.460  0.00  0.00    -0.348 OA
ATOM     70  O3S IDS d 302     -28.033  45.903  14.678  0.00  0.00    -0.572 OA
ATOM     71  C5  IDS d 302     -27.498  50.063  11.073  0.00  0.00     0.152 C 
ATOM     72  C1  IDS d 302     -28.716  48.657  12.552  0.00  0.00     0.161 C 
ATOM     73  C3  IDS d 302     -27.330  47.672  10.672  0.00  0.00     0.094 C 
ATOM     74  C4  IDS d 302     -26.570  48.983  10.612  0.00  0.00     0.103 C 
ATOM     75  O3  IDS d 302     -28.330  47.713   9.689  0.00  0.00    -0.390 OA
ATOM     76  O61 IDS d 302     -26.869  52.250  11.846  0.00  0.00    -0.646 OA
ATOM     77  C6  IDS d 302     -26.936  51.472  10.896  0.00  0.00     0.206 C 
ATOM     78  O2  IDS d 302     -27.027  47.103  12.913  0.00  0.00    -0.244 OA
ATOM     79  H   IDS d 302     -28.747  46.685  11.896  0.00  0.00     0.097 H 
ATOM     80  H   IDS d 302     -28.360  50.041  10.440  0.00  0.00     0.104 H 
ATOM     81  H   IDS d 302     -28.913  48.535  13.597  0.00  0.00     0.133 H 
ATOM     82  H   IDS d 302     -26.632  46.876  10.518  0.00  0.00     0.091 H 
ATOM     83  H   IDS d 302     -26.231  49.158   9.613  0.00  0.00     0.092 H 
ATOM     84  H   IDS d 302     -28.934  48.450   9.872  0.00  0.00     0.210 HD
ATOM     85  O5  IDS d 306     -13.635  53.005  19.118  0.00  0.00    -0.340 OA
ATOM     86  C4  IDS d 306     -11.964  53.285  17.392  0.00  0.00     0.097 C 
ATOM     87  C3  IDS d 306     -12.443  51.936  16.741  0.00  0.00     0.094 C 
ATOM     88  C1  IDS d 306     -14.421  52.074  18.412  0.00  0.00     0.161 C 
ATOM     89  S   IDS d 306     -12.041  49.095  17.832  0.00  0.00     0.252 S 
ATOM     90  O3S IDS d 306     -12.202  48.038  18.808  0.00  0.00    -0.572 OA
ATOM     91  C6  IDS d 306     -12.635  55.188  19.061  0.00  0.00     0.206 C 
ATOM     92  O61 IDS d 306     -13.259  55.517  20.066  0.00  0.00    -0.646 OA
ATOM     93  O2  IDS d 306     -12.864  50.288  18.365  0.00  0.00    -0.244 OA
ATOM     94  C2  IDS d 306     -13.531  51.198  17.558  0.00  0.00     0.134 C 
ATOM     95  O62 IDS d 306     -11.691  55.884  18.707  0.00  0.00    -0.646 OA
ATOM     96  O3  IDS d 306     -12.973  52.162  15.442  0.00  0.00    -0.390 OA
ATOM     97  O2S IDS d 306     -10.672  49.561  17.718  0.00  0.00    -0.572 OA
ATOM     98  O4  IDS d 306     -10.862  52.984  18.232  0.00  0.00    -0.390 OA
ATOM     99  C5  IDS d 306     -13.054  53.952  18.262  0.00  0.00     0.152 C 
ATOM    100  O1S IDS d 306     -12.644  48.810  16.540  0.00  0.00    -0.572 OA
ATOM    101  H   IDS d 306     -11.718  53.965  16.603  0.00  0.00     0.091 H 
ATOM    102  H   IDS d 306     -11.566  51.323  16.711  0.00  0.00     0.091 H 
ATOM    103  H   IDS d 306     -14.957  51.487  19.128  0.00  0.00     0.133 H 
ATOM    104  H   IDS d 306     -14.205  50.746  16.860  0.00  0.00     0.097 H 
ATOM    105  H   IDS d 306     -13.764  52.719  15.509  0.00  0.00     0.210 HD
ATOM    106  H   IDS d 306     -11.143  52.366  18.925  0.00  0.00     0.210 HD
ATOM    107  H   IDS d 306     -13.761  54.325  17.551  0.00  0.00     0.104 H 
ATOM    108  O2S SGN d 301     -31.860  55.331  12.276  0.00  0.00    -0.296 OA
ATOM    109  C3  SGN d 301     -31.194  50.870  11.643  0.00  0.00     0.083 C 
ATOM    110  O6S SGN d 301     -32.875  46.874  16.741  0.00  0.00    -0.572 OA
ATOM    111  O6  SGN d 301     -31.744  48.101  15.008  0.00  0.00    -0.254 OA
ATOM    112  C5  SGN d 301     -32.186  48.890  12.791  0.00  0.00     0.091 C 
ATOM    113  O5  SGN d 301     -33.181  49.746  13.357  0.00  0.00    -0.350 OA
ATOM    114  O5S SGN d 301     -30.735  47.907  17.201  0.00  0.00    -0.572 OA
ATOM    115  C6  SGN d 301     -32.098  47.677  13.714  0.00  0.00     0.067 C 
ATOM    116  O1S SGN d 301     -32.653  53.930  14.052  0.00  0.00    -0.296 OA
ATOM    117  O3  SGN d 301     -30.034  51.620  11.403  0.00  0.00    -0.391 OA
ATOM    118  O3S SGN d 301     -34.182  54.714  12.393  0.00  0.00    -0.296 OA
ATOM    119  C1  SGN d 301     -33.464  50.890  12.571  0.00  0.00     0.147 C 
ATOM    120  N   SGN d 301     -32.523  52.999  11.724  0.00  0.00    -0.210 NA
ATOM    121  O1  SGN d 301     -33.952  50.489  11.267  0.00  0.00    -0.369 OA
ATOM    122  O4S SGN d 301     -30.865  45.983  15.758  0.00  0.00    -0.572 OA
ATOM    123  C2  SGN d 301     -32.209  51.730  12.398  0.00  0.00     0.081 C 
ATOM    124  S1  SGN d 301     -32.819  54.328  12.669  0.00  0.00     0.156 S 
ATOM    125  C4  SGN d 301     -30.854  49.658  12.552  0.00  0.00     0.095 C 
ATOM    126  S2  SGN d 301     -31.543  47.164  16.256  0.00  0.00     0.251 S 
ATOM    127  O4  SGN d 301     -29.940  48.804  11.902  0.00  0.00    -0.348 OA
ATOM    128  H   SGN d 301     -31.995  56.133  12.805  0.00  0.00     0.231 HD
ATOM    129  H   SGN d 301     -31.590  50.542  10.704  0.00  0.00     0.089 H 
ATOM    130  H   SGN d 301     -32.437  48.546  11.810  0.00  0.00     0.090 H 
ATOM    131  H   SGN d 301     -33.047  47.183  13.746  0.00  0.00     0.080 H 
ATOM    132  H   SGN d 301     -31.358  46.998  13.344  0.00  0.00     0.080 H 
ATOM    133  H   SGN d 301     -32.821  54.690  14.630  0.00  0.00     0.231 HD
ATOM    134  H   SGN d 301     -29.665  51.923  12.247  0.00  0.00     0.210 HD
ATOM    135  H   SGN d 301     -34.412  55.493  12.923  0.00  0.00     0.231 HD
ATOM    136  H   SGN d 301     -34.214  51.467  13.069  0.00  0.00     0.131 H 
ATOM    137  H   SGN d 301     -33.354  52.842  11.153  0.00  0.00     0.140 HD
ATOM    138  H   SGN d 301     -33.272  49.965  10.815  0.00  0.00     0.212 HD
ATOM    139  H   SGN d 301     -31.787  52.014  13.339  0.00  0.00     0.076 H 
ATOM    140  H   SGN d 301     -30.415  49.986  13.471  0.00  0.00     0.091 H 
ATOM    141  S   IDS d 304     -22.039  55.862  14.263  0.00  0.00     0.252 S 
ATOM    142  O62 IDS d 304     -19.100  49.514  16.099  0.00  0.00    -0.646 OA
ATOM    143  O1S IDS d 304     -23.102  55.416  13.439  0.00  0.00    -0.572 OA
ATOM    144  O2  IDS d 304     -21.688  54.684  15.178  0.00  0.00    -0.244 OA
ATOM    145  O3  IDS d 304     -23.120  51.958  16.987  0.00  0.00    -0.390 OA
ATOM    146  C5  IDS d 304     -20.538  51.292  15.476  0.00  0.00     0.152 C 
ATOM    147  O5  IDS d 304     -20.637  52.053  14.325  0.00  0.00    -0.340 OA
ATOM    148  O3S IDS d 304     -20.855  56.103  13.547  0.00  0.00    -0.572 OA
ATOM    149  O4  IDS d 304     -19.781  53.140  16.805  0.00  0.00    -0.348 OA
ATOM    150  C3  IDS d 304     -22.107  52.883  16.661  0.00  0.00     0.094 C 
ATOM    151  C2  IDS d 304     -22.373  53.466  15.258  0.00  0.00     0.134 C 
ATOM    152  C1  IDS d 304     -21.931  52.581  14.092  0.00  0.00     0.161 C 
ATOM    153  O2S IDS d 304     -22.413  56.960  15.095  0.00  0.00    -0.572 OA
ATOM    154  O61 IDS d 304     -18.276  50.880  14.836  0.00  0.00    -0.646 OA
ATOM    155  C4  IDS d 304     -20.772  52.169  16.713  0.00  0.00     0.103 C 
ATOM    156  C6  IDS d 304     -19.232  50.514  15.465  0.00  0.00     0.206 C 
ATOM    157  H   IDS d 304     -23.982  52.400  16.958  0.00  0.00     0.210 HD
ATOM    158  H   IDS d 304     -21.309  50.551  15.516  0.00  0.00     0.104 H 
ATOM    159  H   IDS d 304     -22.097  53.694  17.359  0.00  0.00     0.091 H 
ATOM    160  H   IDS d 304     -23.434  53.564  15.157  0.00  0.00     0.097 H 
ATOM    161  H   IDS d 304     -21.873  53.172  13.201  0.00  0.00     0.133 H 
ATOM    162  H   IDS d 304     -20.754  51.515  17.561  0.00  0.00     0.092 H 
ENDROOT
TORSDOF 51
ENDMDL
MODEL 7
REMARK VINA RESULT:     -11.4      3.802      6.607
REMARK  0 active torsions:
REMARK  status: ('A' for Active; 'I' for Inactive)
REMARK       I    between atoms: N_2  and  C2_29 
REMARK       I    between atoms: N_2  and  S1_49 
REMARK       I    between atoms: S_3  and  O2_103 
REMARK       I    between atoms: C5_6  and  C6_92 
REMARK       I    between atoms: C4_8  and  O4_100 
REMARK       I    between atoms: C2_9  and  O2_103 
REMARK       I    between atoms: O1S_10  and  S1_36 
REMARK       I    between atoms: O2S_11  and  S1_93 
REMARK       I    between atoms: C3_12  and  O3_54 
REMARK       I    between atoms: O4_13  and  C4_20 
REMARK       I    between atoms: O4_13  and  C1_26 
REMARK       I    between atoms: O6_15  and  C6_46 
REMARK       I    between atoms: O6_15  and  S2_104 
REMARK       I    between atoms: C5_16  and  C6_46 
REMARK       I    between atoms: C4_17  and  O4_90 
REMARK       I    between atoms: S_18  and  O2_62 
REMARK       I    between atoms: C3_19  and  O3_68 
REMARK       I    between atoms: S2_25  and  O6_53 
REMARK       I    between atoms: O4_27  and  C4_69 
REMARK       I    between atoms: O4_27  and  C1_89 
REMARK       I    between atoms: O3_28  and  C3_37 
REMARK       I    between atoms: C1_30  and  O4_73 
REMARK       I    between atoms: O2S_32  and  S1_49 
REMARK       I    between atoms: S_33  and  O2_48 
REMARK       I    between atoms: C6_34  and  C5_43 
REMARK       I    between atoms: C6_34  and  O6_60 
REMARK       I    between atoms: S1_36  and  N_85 
REMARK       I    between atoms: S1_36  and  O2S_63 
REMARK       I    between atoms: S1_36  and  O3S_74 
REMARK       I    between atoms: C6_40  and  C5_94 
REMARK       I    between atoms: O3S_42  and  S1_49 
REMARK       I    between atoms: C5_44  and  C6_99 
REMARK       I    between atoms: C1_47  and  O4_106 
REMARK       I    between atoms: O2_48  and  C2_57 
REMARK       I    between atoms: S1_49  and  O1S_55 
REMARK       I    between atoms: O1S_51  and  S1_93 
REMARK       I    between atoms: C3_52  and  O3_87 
REMARK       I    between atoms: O6_53  and  C6_92 
REMARK       I    between atoms: O3S_56  and  S1_93 
REMARK       I    between atoms: O3_58  and  C3_98 
REMARK       I    between atoms: C1_59  and  O1_81 
REMARK       I    between atoms: O6_60  and  S2_65 
REMARK       I    between atoms: O2_62  and  C2_77 
REMARK       I    between atoms: O3_64  and  C3_75 
REMARK       I    between atoms: C5_67  and  C6_101 
REMARK       I    between atoms: O4_73  and  C4_96 
REMARK       I    between atoms: C2_76  and  N_85 
REMARK       I    between atoms: N_78  and  C2_91 
REMARK       I    between atoms: N_78  and  S1_93 
REMARK       I    between atoms: C1_80  and  O4_100 
REMARK       I    between atoms: C4_102  and  O4_106 
ROOT
ATOM      1  O5S SGN d 305     -18.510  48.711  20.495  0.00  0.00    -0.572 OA
ATOM      2  C5  SGN d 305     -19.134  51.130  16.660  0.00  0.00     0.091 C 
ATOM      3  O1S SGN d 305     -19.954  55.406  19.294  0.00  0.00    -0.296 OA
ATOM      4  O4  SGN d 305     -16.920  51.324  15.969  0.00  0.00    -0.348 OA
ATOM      5  C4  SGN d 305     -17.881  51.938  16.747  0.00  0.00     0.095 C 
ATOM      6  O5  SGN d 305     -20.080  51.664  17.517  0.00  0.00    -0.349 OA
ATOM      7  S2  SGN d 305     -18.355  48.343  19.107  0.00  0.00     0.251 S 
ATOM      8  O3  SGN d 305     -17.130  54.107  16.118  0.00  0.00    -0.391 OA
ATOM      9  C1  SGN d 305     -20.457  52.984  17.185  0.00  0.00     0.150 C 
ATOM     10  S1  SGN d 305     -20.121  56.121  18.072  0.00  0.00     0.156 S 
ATOM     11  C3  SGN d 305     -18.247  53.285  16.178  0.00  0.00     0.083 C 
ATOM     12  O6  SGN d 305     -18.460  49.643  18.298  0.00  0.00    -0.254 OA
ATOM     13  O2S SGN d 305     -19.293  57.253  18.015  0.00  0.00    -0.296 OA
ATOM     14  O4S SGN d 305     -17.045  47.833  18.786  0.00  0.00    -0.572 OA
ATOM     15  O3S SGN d 305     -21.486  56.386  17.817  0.00  0.00    -0.296 OA
ATOM     16  C2  SGN d 305     -19.224  53.859  17.149  0.00  0.00     0.081 C 
ATOM     17  N   SGN d 305     -19.597  55.208  16.840  0.00  0.00    -0.210 NA
ATOM     18  C6  SGN d 305     -18.982  49.696  17.022  0.00  0.00     0.067 C 
ATOM     19  O6S SGN d 305     -19.455  47.512  18.631  0.00  0.00    -0.572 OA
ATOM     20  H   SGN d 305     -19.423  51.171  15.631  0.00  0.00     0.090 H 
ATOM     21  H   SGN d 305     -19.011  55.238  19.443  0.00  0.00     0.231 HD
ATOM     22  H   SGN d 305     -17.497  52.029  17.742  0.00  0.00     0.091 H 
ATOM     23  H   SGN d 305     -16.491  53.739  15.488  0.00  0.00     0.210 HD
ATOM     24  H   SGN d 305     -21.135  53.346  17.929  0.00  0.00     0.131 H 
ATOM     25  H   SGN d 305     -18.641  53.201  15.187  0.00  0.00     0.089 H 
ATOM     26  H   SGN d 305     -18.377  56.992  18.200  0.00  0.00     0.231 HD
ATOM     27  H   SGN d 305     -21.992  55.560  17.873  0.00  0.00     0.231 HD
ATOM     28  H   SGN d 305     -18.747  53.884  18.106  0.00  0.00     0.076 H 
ATOM     29  H   SGN d 305     -18.781  55.669  16.439  0.00  0.00     0.140 HD
ATOM     30  H   SGN d 305     -18.318  49.214  16.335  0.00  0.00     0.080 H 
ATOM     31  H   SGN d 305     -19.926  49.194  16.981  0.00  0.00     0.080 H 
ATOM     32  N   SGN d 303     -26.940  48.624  11.661  0.00  0.00    -0.210 NA
ATOM     33  C4  SGN d 303     -25.225  51.943  12.355  0.00  0.00     0.095 C 
ATOM     34  C2  SGN d 303     -26.341  49.914  11.367  0.00  0.00     0.081 C 
ATOM     35  O5S SGN d 303     -22.816  54.061   9.021  0.00  0.00    -0.572 OA
ATOM     36  O2S SGN d 303     -26.075  46.907  10.128  0.00  0.00    -0.296 OA
ATOM     37  C6  SGN d 303     -25.818  54.121  11.191  0.00  0.00     0.067 C 
ATOM     38  O3S SGN d 303     -28.297  46.723  10.996  0.00  0.00    -0.296 OA
ATOM     39  C5  SGN d 303     -26.301  52.755  11.643  0.00  0.00     0.091 C 
ATOM     40  S1  SGN d 303     -27.295  47.587  10.446  0.00  0.00     0.156 S 
ATOM     41  O6S SGN d 303     -25.036  54.600   8.277  0.00  0.00    -0.572 OA
ATOM     42  O1S SGN d 303     -27.771  48.354   9.329  0.00  0.00    -0.296 OA
ATOM     43  O3  SGN d 303     -24.752  49.737  13.144  0.00  0.00    -0.391 OA
ATOM     44  O6  SGN d 303     -24.632  53.893  10.494  0.00  0.00    -0.254 OA
ATOM     45  S2  SGN d 303     -24.065  54.692   9.311  0.00  0.00     0.251 S 
ATOM     46  O5  SGN d 303     -26.762  52.079  10.479  0.00  0.00    -0.349 OA
ATOM     47  C1  SGN d 303     -27.367  50.831  10.737  0.00  0.00     0.150 C 
ATOM     48  O4S SGN d 303     -23.905  56.036   9.750  0.00  0.00    -0.572 OA
ATOM     49  C3  SGN d 303     -25.791  50.547  12.638  0.00  0.00     0.083 C 
ATOM     50  O4  SGN d 303     -24.936  52.575  13.571  0.00  0.00    -0.348 OA
ATOM     51  H   SGN d 303     -27.815  48.811  12.153  0.00  0.00     0.140 HD
ATOM     52  H   SGN d 303     -24.339  51.870  11.759  0.00  0.00     0.091 H 
ATOM     53  H   SGN d 303     -25.533  49.766  10.680  0.00  0.00     0.076 H 
ATOM     54  H   SGN d 303     -25.778  46.398  10.898  0.00  0.00     0.231 HD
ATOM     55  H   SGN d 303     -25.637  54.751  12.036  0.00  0.00     0.080 H 
ATOM     56  H   SGN d 303     -26.544  54.614  10.580  0.00  0.00     0.080 H 
ATOM     57  H   SGN d 303     -27.924  46.231  11.744  0.00  0.00     0.231 HD
ATOM     58  H   SGN d 303     -27.081  52.874  12.366  0.00  0.00     0.090 H 
ATOM     59  H   SGN d 303     -27.056  48.919   8.997  0.00  0.00     0.231 HD
ATOM     60  H   SGN d 303     -24.397  50.134  13.954  0.00  0.00     0.210 HD
ATOM     61  H   SGN d 303     -27.708  50.430   9.806  0.00  0.00     0.131 H 
ATOM     62  H   SGN d 303     -26.589  50.632  13.346  0.00  0.00     0.089 H 
ATOM     63  S   IDS d 302     -30.480  48.246  14.051  0.00  0.00     0.252 S 
ATOM     64  O2S IDS d 302     -29.172  47.885  14.481  0.00  0.00    -0.572 OA
ATOM     65  O62 IDS d 302     -28.958  54.121  10.130  0.00  0.00    -0.646 OA
ATOM     66  C2  IDS d 302     -31.274  50.192  12.529  0.00  0.00     0.134 C 
ATOM     67  O5  IDS d 302     -30.428  52.395  12.917  0.00  0.00    -0.340 OA
ATOM     68  O1S IDS d 302     -31.066  47.317  13.143  0.00  0.00    -0.572 OA
ATOM     69  O4  IDS d 302     -28.505  50.937  11.569  0.00  0.00    -0.348 OA
ATOM     70  O3S IDS d 302     -31.337  48.568  15.134  0.00  0.00    -0.572 OA
ATOM     71  C5  IDS d 302     -30.182  52.607  11.537  0.00  0.00     0.152 C 
ATOM     72  C1  IDS d 302     -31.512  51.522  13.181  0.00  0.00     0.161 C 
ATOM     73  C3  IDS d 302     -30.778  50.295  11.087  0.00  0.00     0.094 C 
ATOM     74  C4  IDS d 302     -29.690  51.337  10.918  0.00  0.00     0.103 C 
ATOM     75  O3  IDS d 302     -31.862  50.676  10.282  0.00  0.00    -0.390 OA
ATOM     76  O61 IDS d 302     -28.836  54.478  12.220  0.00  0.00    -0.646 OA
ATOM     77  C6  IDS d 302     -29.271  53.806  11.286  0.00  0.00     0.206 C 
ATOM     78  O2  IDS d 302     -30.311  49.534  13.241  0.00  0.00    -0.244 OA
ATOM     79  H   IDS d 302     -32.214  49.682  12.517  0.00  0.00     0.097 H 
ATOM     80  H   IDS d 302     -31.100  52.868  11.054  0.00  0.00     0.104 H 
ATOM     81  H   IDS d 302     -31.572  51.400  14.242  0.00  0.00     0.133 H 
ATOM     82  H   IDS d 302     -30.374  49.343  10.812  0.00  0.00     0.091 H 
ATOM     83  H   IDS d 302     -29.473  51.466   9.879  0.00  0.00     0.092 H 
ATOM     84  H   IDS d 302     -32.191  51.541  10.571  0.00  0.00     0.210 HD
ATOM     85  O5  IDS d 306     -14.994  51.017  17.226  0.00  0.00    -0.340 OA
ATOM     86  C4  IDS d 306     -13.601  50.911  15.251  0.00  0.00     0.097 C 
ATOM     87  C3  IDS d 306     -14.544  49.793  14.673  0.00  0.00     0.094 C 
ATOM     88  C1  IDS d 306     -16.116  50.391  16.648  0.00  0.00     0.161 C 
ATOM     89  S   IDS d 306     -14.820  46.897  15.651  0.00  0.00     0.252 S 
ATOM     90  O3S IDS d 306     -15.128  45.874  16.628  0.00  0.00    -0.572 OA
ATOM     91  C6  IDS d 306     -13.427  52.825  17.029  0.00  0.00     0.206 C 
ATOM     92  O61 IDS d 306     -13.765  53.259  18.127  0.00  0.00    -0.646 OA
ATOM     93  O2  IDS d 306     -15.169  48.242  16.326  0.00  0.00    -0.244 OA
ATOM     94  C2  IDS d 306     -15.661  49.349  15.650  0.00  0.00     0.134 C 
ATOM     95  O62 IDS d 306     -12.387  53.244  16.533  0.00  0.00    -0.646 OA
ATOM     96  O3  IDS d 306     -15.180  50.236  13.482  0.00  0.00    -0.390 OA
ATOM     97  O2S IDS d 306     -13.410  46.961  15.319  0.00  0.00    -0.572 OA
ATOM     98  O4  IDS d 306     -12.518  50.261  15.895  0.00  0.00    -0.390 OA
ATOM     99  C5  IDS d 306     -14.304  51.808  16.297  0.00  0.00     0.152 C 
ATOM    100  O1S IDS d 306     -15.671  46.870  14.473  0.00  0.00    -0.572 OA
ATOM    101  H   IDS d 306     -13.293  51.538  14.441  0.00  0.00     0.091 H 
ATOM    102  H   IDS d 306     -13.898  48.960  14.492  0.00  0.00     0.091 H 
ATOM    103  H   IDS d 306     -16.681  49.939  17.436  0.00  0.00     0.133 H 
ATOM    104  H   IDS d 306     -16.535  49.148  15.067  0.00  0.00     0.097 H 
ATOM    105  H   IDS d 306     -15.755  50.990  13.684  0.00  0.00     0.210 HD
ATOM    106  H   IDS d 306     -12.855  49.709  16.618  0.00  0.00     0.210 HD
ATOM    107  H   IDS d 306     -14.973  52.407  15.715  0.00  0.00     0.104 H 
ATOM    108  O2S SGN d 301     -32.590  58.818  13.501  0.00  0.00    -0.296 OA
ATOM    109  C3  SGN d 301     -33.352  54.396  12.716  0.00  0.00     0.083 C 
ATOM    110  O6S SGN d 301     -35.312  50.753  17.976  0.00  0.00    -0.572 OA
ATOM    111  O6  SGN d 301     -34.155  51.707  16.094  0.00  0.00    -0.254 OA
ATOM    112  C5  SGN d 301     -34.686  52.717  13.989  0.00  0.00     0.091 C 
ATOM    113  O5  SGN d 301     -35.290  53.786  14.721  0.00  0.00    -0.350 OA
ATOM    114  O5S SGN d 301     -32.920  51.106  18.089  0.00  0.00    -0.572 OA
ATOM    115  C6  SGN d 301     -34.812  51.477  14.872  0.00  0.00     0.067 C 
ATOM    116  O1S SGN d 301     -33.472  57.599  15.366  0.00  0.00    -0.296 OA
ATOM    117  O3  SGN d 301     -32.075  54.799  12.297  0.00  0.00    -0.391 OA
ATOM    118  O3S SGN d 301     -34.945  58.880  13.990  0.00  0.00    -0.296 OA
ATOM    119  C1  SGN d 301     -35.348  55.006  14.005  0.00  0.00     0.147 C 
ATOM    120  N   SGN d 301     -33.978  56.807  13.039  0.00  0.00    -0.210 NA
ATOM    121  O1  SGN d 301     -36.125  54.837  12.795  0.00  0.00    -0.369 OA
ATOM    122  O4S SGN d 301     -33.823  49.386  16.666  0.00  0.00    -0.572 OA
ATOM    123  C2  SGN d 301     -33.945  55.464  13.638  0.00  0.00     0.081 C 
ATOM    124  S1  SGN d 301     -33.727  58.108  14.035  0.00  0.00     0.156 S 
ATOM    125  C4  SGN d 301     -33.242  53.087  13.543  0.00  0.00     0.095 C 
ATOM    126  S2  SGN d 301     -34.044  50.680  17.282  0.00  0.00     0.251 S 
ATOM    127  O4  SGN d 301     -32.726  52.048  12.743  0.00  0.00    -0.348 OA
ATOM    128  H   SGN d 301     -32.404  59.593  14.054  0.00  0.00     0.231 HD
ATOM    129  H   SGN d 301     -33.966  54.250  11.852  0.00  0.00     0.089 H 
ATOM    130  H   SGN d 301     -35.174  52.515  13.059  0.00  0.00     0.090 H 
ATOM    131  H   SGN d 301     -35.846  51.272  15.054  0.00  0.00     0.080 H 
ATOM    132  H   SGN d 301     -34.366  50.638  14.378  0.00  0.00     0.080 H 
ATOM    133  H   SGN d 301     -33.321  58.341  15.973  0.00  0.00     0.231 HD
ATOM    134  H   SGN d 301     -31.509  54.934  13.072  0.00  0.00     0.210 HD
ATOM    135  H   SGN d 301     -34.855  59.661  14.559  0.00  0.00     0.231 HD
ATOM    136  H   SGN d 301     -35.812  55.743  14.626  0.00  0.00     0.131 H 
ATOM    137  H   SGN d 301     -34.896  56.926  12.610  0.00  0.00     0.140 HD
ATOM    138  H   SGN d 301     -35.705  54.169  12.231  0.00  0.00     0.212 HD
ATOM    139  H   SGN d 301     -33.319  55.561  14.500  0.00  0.00     0.076 H 
ATOM    140  H   SGN d 301     -32.591  53.223  14.381  0.00  0.00     0.091 H 
ATOM    141  S   IDS d 304     -22.854  56.421  13.852  0.00  0.00     0.252 S 
ATOM    142  O62 IDS d 304     -21.634  49.404  15.108  0.00  0.00    -0.646 OA
ATOM    143  O1S IDS d 304     -24.114  56.344  13.208  0.00  0.00    -0.572 OA
ATOM    144  O2  IDS d 304     -22.722  55.141  14.683  0.00  0.00    -0.244 OA
ATOM    145  O3  IDS d 304     -24.585  52.833  16.672  0.00  0.00    -0.390 OA
ATOM    146  C5  IDS d 304     -22.573  51.550  14.749  0.00  0.00     0.152 C 
ATOM    147  O5  IDS d 304     -22.623  52.374  13.639  0.00  0.00    -0.340 OA
ATOM    148  O3S IDS d 304     -21.776  56.356  12.953  0.00  0.00    -0.572 OA
ATOM    149  O4  IDS d 304     -21.117  53.026  15.957  0.00  0.00    -0.348 OA
ATOM    150  C3  IDS d 304     -23.411  53.449  16.194  0.00  0.00     0.094 C 
ATOM    151  C2  IDS d 304     -23.710  54.165  14.860  0.00  0.00     0.134 C 
ATOM    152  C1  IDS d 304     -23.728  53.261  13.628  0.00  0.00     0.161 C 
ATOM    153  O2S IDS d 304     -22.761  57.529  14.745  0.00  0.00    -0.572 OA
ATOM    154  O61 IDS d 304     -20.654  50.551  13.741  0.00  0.00    -0.646 OA
ATOM    155  C4  IDS d 304     -22.349  52.383  16.018  0.00  0.00     0.103 C 
ATOM    156  C6  IDS d 304     -21.566  50.435  14.515  0.00  0.00     0.206 C 
ATOM    157  H   IDS d 304     -25.277  53.503  16.790  0.00  0.00     0.210 HD
ATOM    158  H   IDS d 304     -23.510  51.058  14.907  0.00  0.00     0.104 H 
ATOM    159  H   IDS d 304     -23.059  54.182  16.890  0.00  0.00     0.091 H 
ATOM    160  H   IDS d 304     -24.699  54.565  14.936  0.00  0.00     0.097 H 
ATOM    161  H   IDS d 304     -23.640  53.861  12.746  0.00  0.00     0.133 H 
ATOM    162  H   IDS d 304     -22.391  51.703  16.844  0.00  0.00     0.092 H 
ENDROOT
TORSDOF 51
ENDMDL
MODEL 8
REMARK VINA RESULT:     -11.3      5.884     15.570
REMARK  0 active torsions:
REMARK  status: ('A' for Active; 'I' for Inactive)
REMARK       I    between atoms: N_2  and  C2_29 
REMARK       I    between atoms: N_2  and  S1_49 
REMARK       I    between atoms: S_3  and  O2_103 
REMARK       I    between atoms: C5_6  and  C6_92 
REMARK       I    between atoms: C4_8  and  O4_100 
REMARK       I    between atoms: C2_9  and  O2_103 
REMARK       I    between atoms: O1S_10  and  S1_36 
REMARK       I    between atoms: O2S_11  and  S1_93 
REMARK       I    between atoms: C3_12  and  O3_54 
REMARK       I    between atoms: O4_13  and  C4_20 
REMARK       I    between atoms: O4_13  and  C1_26 
REMARK       I    between atoms: O6_15  and  C6_46 
REMARK       I    between atoms: O6_15  and  S2_104 
REMARK       I    between atoms: C5_16  and  C6_46 
REMARK       I    between atoms: C4_17  and  O4_90 
REMARK       I    between atoms: S_18  and  O2_62 
REMARK       I    between atoms: C3_19  and  O3_68 
REMARK       I    between atoms: S2_25  and  O6_53 
REMARK       I    between atoms: O4_27  and  C4_69 
REMARK       I    between atoms: O4_27  and  C1_89 
REMARK       I    between atoms: O3_28  and  C3_37 
REMARK       I    between atoms: C1_30  and  O4_73 
REMARK       I    between atoms: O2S_32  and  S1_49 
REMARK       I    between atoms: S_33  and  O2_48 
REMARK       I    between atoms: C6_34  and  C5_43 
REMARK       I    between atoms: C6_34  and  O6_60 
REMARK       I    between atoms: S1_36  and  N_85 
REMARK       I    between atoms: S1_36  and  O2S_63 
REMARK       I    between atoms: S1_36  and  O3S_74 
REMARK       I    between atoms: C6_40  and  C5_94 
REMARK       I    between atoms: O3S_42  and  S1_49 
REMARK       I    between atoms: C5_44  and  C6_99 
REMARK       I    between atoms: C1_47  and  O4_106 
REMARK       I    between atoms: O2_48  and  C2_57 
REMARK       I    between atoms: S1_49  and  O1S_55 
REMARK       I    between atoms: O1S_51  and  S1_93 
REMARK       I    between atoms: C3_52  and  O3_87 
REMARK       I    between atoms: O6_53  and  C6_92 
REMARK       I    between atoms: O3S_56  and  S1_93 
REMARK       I    between atoms: O3_58  and  C3_98 
REMARK       I    between atoms: C1_59  and  O1_81 
REMARK       I    between atoms: O6_60  and  S2_65 
REMARK       I    between atoms: O2_62  and  C2_77 
REMARK       I    between atoms: O3_64  and  C3_75 
REMARK       I    between atoms: C5_67  and  C6_101 
REMARK       I    between atoms: O4_73  and  C4_96 
REMARK       I    between atoms: C2_76  and  N_85 
REMARK       I    between atoms: N_78  and  C2_91 
REMARK       I    between atoms: N_78  and  S1_93 
REMARK       I    between atoms: C1_80  and  O4_100 
REMARK       I    between atoms: C4_102  and  O4_106 
ROOT
ATOM      1  O5S SGN d 305     -30.300  45.998   8.642  0.00  0.00    -0.572 OA
ATOM      2  C5  SGN d 305     -28.229  48.750  11.656  0.00  0.00     0.091 C 
ATOM      3  O1S SGN d 305     -27.427  52.308   8.106  0.00  0.00    -0.296 OA
ATOM      4  O4  SGN d 305     -30.098  49.530  12.805  0.00  0.00    -0.348 OA
ATOM      5  C4  SGN d 305     -29.296  49.795  11.712  0.00  0.00     0.095 C 
ATOM      6  O5  SGN d 305     -27.477  48.931  10.508  0.00  0.00    -0.349 OA
ATOM      7  S2  SGN d 305     -30.130  45.880  10.072  0.00  0.00     0.251 S 
ATOM      8  O3  SGN d 305     -29.451  52.145  12.059  0.00  0.00    -0.391 OA
ATOM      9  C1  SGN d 305     -26.798  50.168  10.472  0.00  0.00     0.150 C 
ATOM     10  S1  SGN d 305     -26.808  53.138   9.085  0.00  0.00     0.156 S 
ATOM     11  C3  SGN d 305     -28.557  51.096  11.898  0.00  0.00     0.083 C 
ATOM     12  O6  SGN d 305     -29.579  47.227  10.557  0.00  0.00    -0.254 OA
ATOM     13  O2S SGN d 305     -27.376  54.421   9.112  0.00  0.00    -0.296 OA
ATOM     14  O4S SGN d 305     -31.368  45.725  10.792  0.00  0.00    -0.572 OA
ATOM     15  O3S SGN d 305     -25.401  53.128   8.948  0.00  0.00    -0.296 OA
ATOM     16  C2  SGN d 305     -27.799  51.291  10.627  0.00  0.00     0.081 C 
ATOM     17  N   SGN d 305     -27.125  52.554  10.563  0.00  0.00    -0.210 NA
ATOM     18  C6  SGN d 305     -28.725  47.349  11.633  0.00  0.00     0.067 C 
ATOM     19  O6S SGN d 305     -29.105  44.904  10.426  0.00  0.00    -0.572 OA
ATOM     20  H   SGN d 305     -27.667  48.876  12.557  0.00  0.00     0.090 H 
ATOM     21  H   SGN d 305     -28.390  52.333   8.223  0.00  0.00     0.231 HD
ATOM     22  H   SGN d 305     -29.916  49.823  10.841  0.00  0.00     0.091 H 
ATOM     23  H   SGN d 305     -29.947  52.023  12.883  0.00  0.00     0.210 HD
ATOM     24  H   SGN d 305     -26.298  50.259   9.529  0.00  0.00     0.131 H 
ATOM     25  H   SGN d 305     -27.927  51.072  12.762  0.00  0.00     0.089 H 
ATOM     26  H   SGN d 305     -28.339  54.346   9.208  0.00  0.00     0.231 HD
ATOM     27  H   SGN d 305     -25.083  52.211   8.937  0.00  0.00     0.231 HD
ATOM     28  H   SGN d 305     -28.509  51.281   9.827  0.00  0.00     0.076 H 
ATOM     29  H   SGN d 305     -27.704  53.238  11.048  0.00  0.00     0.140 HD
ATOM     30  H   SGN d 305     -29.249  47.132  12.541  0.00  0.00     0.080 H 
ATOM     31  H   SGN d 305     -27.909  46.662  11.546  0.00  0.00     0.080 H 
ATOM     32  N   SGN d 303     -19.917  45.333  15.034  0.00  0.00    -0.210 NA
ATOM     33  C4  SGN d 303     -21.146  48.812  14.126  0.00  0.00     0.095 C 
ATOM     34  C2  SGN d 303     -20.176  46.752  15.201  0.00  0.00     0.081 C 
ATOM     35  O5S SGN d 303     -22.133  51.875  17.450  0.00  0.00    -0.572 OA
ATOM     36  O2S SGN d 303     -20.615  44.093  17.041  0.00  0.00    -0.296 OA
ATOM     37  C6  SGN d 303     -19.882  50.950  14.657  0.00  0.00     0.067 C 
ATOM     38  O3S SGN d 303     -18.786  43.296  15.720  0.00  0.00    -0.296 OA
ATOM     39  C5  SGN d 303     -19.789  49.459  14.383  0.00  0.00     0.091 C 
ATOM     40  S1  SGN d 303     -19.429  44.432  16.311  0.00  0.00     0.156 S 
ATOM     41  O6S SGN d 303     -19.735  52.010  17.517  0.00  0.00    -0.572 OA
ATOM     42  O1S SGN d 303     -18.537  45.228  17.105  0.00  0.00    -0.296 OA
ATOM     43  O3  SGN d 303     -22.197  46.675  13.928  0.00  0.00    -0.391 OA
ATOM     44  O6  SGN d 303     -20.851  51.095  15.649  0.00  0.00    -0.254 OA
ATOM     45  S2  SGN d 303     -20.921  52.164  16.750  0.00  0.00     0.251 S 
ATOM     46  O5  SGN d 303     -19.152  48.876  15.513  0.00  0.00    -0.349 OA
ATOM     47  C1  SGN d 303     -18.871  47.501  15.372  0.00  0.00     0.150 C 
ATOM     48  O4S SGN d 303     -20.957  53.431  16.103  0.00  0.00    -0.572 OA
ATOM     49  C3  SGN d 303     -20.933  47.299  13.999  0.00  0.00     0.083 C 
ATOM     50  O4  SGN d 303     -21.642  49.308  12.914  0.00  0.00    -0.348 OA
ATOM     51  H   SGN d 303     -19.192  45.248  14.321  0.00  0.00     0.140 HD
ATOM     52  H   SGN d 303     -21.831  49.025  14.920  0.00  0.00     0.091 H 
ATOM     53  H   SGN d 303     -20.776  46.889  16.077  0.00  0.00     0.076 H 
ATOM     54  H   SGN d 303     -21.197  43.556  16.481  0.00  0.00     0.231 HD
ATOM     55  H   SGN d 303     -20.174  51.475  13.771  0.00  0.00     0.080 H 
ATOM     56  H   SGN d 303     -18.941  51.353  14.965  0.00  0.00     0.080 H 
ATOM     57  H   SGN d 303     -19.430  42.795  15.196  0.00  0.00     0.231 HD
ATOM     58  H   SGN d 303     -19.230  49.296  13.486  0.00  0.00     0.090 H 
ATOM     59  H   SGN d 303     -19.022  45.980  17.480  0.00  0.00     0.231 HD
ATOM     60  H   SGN d 303     -22.686  47.018  13.164  0.00  0.00     0.210 HD
ATOM     61  H   SGN d 303     -18.363  47.174  16.254  0.00  0.00     0.131 H 
ATOM     62  H   SGN d 303     -20.359  47.101  13.118  0.00  0.00     0.089 H 
ATOM     63  S   IDS d 302     -17.295  43.834  11.991  0.00  0.00     0.252 S 
ATOM     64  O2S IDS d 302     -18.713  43.714  11.967  0.00  0.00    -0.572 OA
ATOM     65  O62 IDS d 302     -16.622  50.409  14.913  0.00  0.00    -0.646 OA
ATOM     66  C2  IDS d 302     -15.784  45.757  12.860  0.00  0.00     0.134 C 
ATOM     67  O5  IDS d 302     -16.303  48.012  12.256  0.00  0.00    -0.340 OA
ATOM     68  O1S IDS d 302     -16.654  42.941  12.898  0.00  0.00    -0.572 OA
ATOM     69  O4  IDS d 302     -18.006  47.229  14.288  0.00  0.00    -0.348 OA
ATOM     70  O3S IDS d 302     -16.726  43.797  10.693  0.00  0.00    -0.572 OA
ATOM     71  C5  IDS d 302     -16.118  48.472  13.583  0.00  0.00     0.152 C 
ATOM     72  C1  IDS d 302     -15.504  46.891  11.919  0.00  0.00     0.161 C 
ATOM     73  C3  IDS d 302     -15.838  46.176  14.328  0.00  0.00     0.094 C 
ATOM     74  C4  IDS d 302     -16.636  47.447  14.542  0.00  0.00     0.103 C 
ATOM     75  O3  IDS d 302     -14.524  46.420  14.758  0.00  0.00    -0.390 OA
ATOM     76  O61 IDS d 302     -17.250  50.474  12.885  0.00  0.00    -0.646 OA
ATOM     77  C6  IDS d 302     -16.700  49.867  13.802  0.00  0.00     0.206 C 
ATOM     78  O2  IDS d 302     -17.006  45.232  12.545  0.00  0.00    -0.244 OA
ATOM     79  H   IDS d 302     -14.981  45.058  12.748  0.00  0.00     0.097 H 
ATOM     80  H   IDS d 302     -15.071  48.590  13.770  0.00  0.00     0.104 H 
ATOM     81  H   IDS d 302     -15.761  46.605  10.920  0.00  0.00     0.133 H 
ATOM     82  H   IDS d 302     -16.311  45.389  14.876  0.00  0.00     0.091 H 
ATOM     83  H   IDS d 302     -16.532  47.771  15.556  0.00  0.00     0.092 H 
ATOM     84  H   IDS d 302     -14.141  47.140  14.232  0.00  0.00     0.210 HD
ATOM     85  O5  IDS d 306     -32.318  49.477  12.133  0.00  0.00    -0.340 OA
ATOM     86  C4  IDS d 306     -33.110  49.972  14.364  0.00  0.00     0.097 C 
ATOM     87  C3  IDS d 306     -32.257  48.770  14.909  0.00  0.00     0.094 C 
ATOM     88  C1  IDS d 306     -31.209  48.709  12.538  0.00  0.00     0.161 C 
ATOM     89  S   IDS d 306     -32.774  45.774  14.491  0.00  0.00     0.252 S 
ATOM     90  O3S IDS d 306     -32.932  44.577  13.691  0.00  0.00    -0.572 OA
ATOM     91  C6  IDS d 306     -33.428  51.597  12.335  0.00  0.00     0.206 C 
ATOM     92  O61 IDS d 306     -33.334  51.780  11.125  0.00  0.00    -0.646 OA
ATOM     93  O2  IDS d 306     -32.393  46.894  13.498  0.00  0.00    -0.244 OA
ATOM     94  C2  IDS d 306     -31.548  47.951  13.803  0.00  0.00     0.134 C 
ATOM     95  O62 IDS d 306     -34.200  52.304  12.972  0.00  0.00    -0.646 OA
ATOM     96  O3  IDS d 306     -31.250  49.229  15.801  0.00  0.00    -0.390 OA
ATOM     97  O2S IDS d 306     -34.004  46.197  15.131  0.00  0.00    -0.572 OA
ATOM     98  O4  IDS d 306     -34.426  49.492  14.141  0.00  0.00    -0.390 OA
ATOM     99  C5  IDS d 306     -32.576  50.529  13.024  0.00  0.00     0.152 C 
ATOM    100  O1S IDS d 306     -31.650  45.731  15.411  0.00  0.00    -0.572 OA
ATOM    101  H   IDS d 306     -33.069  50.763  15.083  0.00  0.00     0.091 H 
ATOM    102  H   IDS d 306     -32.964  48.136  15.402  0.00  0.00     0.091 H 
ATOM    103  H   IDS d 306     -30.971  48.033  11.743  0.00  0.00     0.133 H 
ATOM    104  H   IDS d 306     -30.596  47.649  14.187  0.00  0.00     0.097 H 
ATOM    105  H   IDS d 306     -30.629  49.800  15.321  0.00  0.00     0.210 HD
ATOM    106  H   IDS d 306     -34.403  48.780  13.482  0.00  0.00     0.210 HD
ATOM    107  H   IDS d 306     -31.678  51.043  13.297  0.00  0.00     0.104 H 
ATOM    108  O2S SGN d 301     -13.290  53.639   9.905  0.00  0.00    -0.296 OA
ATOM    109  C3  SGN d 301     -13.131  49.322  11.348  0.00  0.00     0.083 C 
ATOM    110  O6S SGN d 301     -13.367  44.607   6.604  0.00  0.00    -0.572 OA
ATOM    111  O6  SGN d 301     -13.775  46.058   8.480  0.00  0.00    -0.254 OA
ATOM    112  C5  SGN d 301     -12.517  47.221  10.153  0.00  0.00     0.091 C 
ATOM    113  O5  SGN d 301     -11.959  48.011   9.099  0.00  0.00    -0.350 OA
ATOM    114  O5S SGN d 301     -15.596  45.462   7.000  0.00  0.00    -0.572 OA
ATOM    115  C6  SGN d 301     -12.858  45.868   9.530  0.00  0.00     0.067 C 
ATOM    116  O1S SGN d 301     -13.184  51.996   8.163  0.00  0.00    -0.296 OA
ATOM    117  O3  SGN d 301     -14.152  50.054  11.972  0.00  0.00    -0.391 OA
ATOM    118  O3S SGN d 301     -11.188  53.105   8.863  0.00  0.00    -0.296 OA
ATOM    119  C1  SGN d 301     -11.493  49.279   9.524  0.00  0.00     0.147 C 
ATOM    120  N   SGN d 301     -12.205  51.460  10.411  0.00  0.00    -0.210 NA
ATOM    121  O1  SGN d 301     -10.455  49.120  10.521  0.00  0.00    -0.369 OA
ATOM    122  O4S SGN d 301     -14.654  43.811   8.478  0.00  0.00    -0.572 OA
ATOM    123  C2  SGN d 301     -12.637  50.085  10.118  0.00  0.00     0.081 C 
ATOM    124  S1  SGN d 301     -12.488  52.625   9.266  0.00  0.00     0.156 S 
ATOM    125  C4  SGN d 301     -13.694  47.964  10.848  0.00  0.00     0.095 C 
ATOM    126  S2  SGN d 301     -14.387  44.919   7.583  0.00  0.00     0.251 S 
ATOM    127  O4  SGN d 301     -14.144  47.193  11.940  0.00  0.00    -0.348 OA
ATOM    128  H   SGN d 301     -13.482  54.347   9.270  0.00  0.00     0.231 HD
ATOM    129  H   SGN d 301     -12.340  49.170  12.051  0.00  0.00     0.089 H 
ATOM    130  H   SGN d 301     -11.834  47.054  10.959  0.00  0.00     0.090 H 
ATOM    131  H   SGN d 301     -11.967  45.415   9.150  0.00  0.00     0.080 H 
ATOM    132  H   SGN d 301     -13.291  45.231  10.273  0.00  0.00     0.080 H 
ATOM    133  H   SGN d 301     -13.363  52.656   7.476  0.00  0.00     0.231 HD
ATOM    134  H   SGN d 301     -14.877  50.197  11.344  0.00  0.00     0.210 HD
ATOM    135  H   SGN d 301     -11.293  53.795   8.189  0.00  0.00     0.231 HD
ATOM    136  H   SGN d 301     -11.095  49.796   8.675  0.00  0.00     0.131 H 
ATOM    137  H   SGN d 301     -11.198  51.434  10.575  0.00  0.00     0.140 HD
ATOM    138  H   SGN d 301     -10.814  48.652  11.290  0.00  0.00     0.212 HD
ATOM    139  H   SGN d 301     -13.449  50.192   9.429  0.00  0.00     0.076 H 
ATOM    140  H   SGN d 301     -14.516  48.117  10.181  0.00  0.00     0.091 H 
ATOM    141  S   IDS d 304     -23.011  53.437  12.381  0.00  0.00     0.252 S 
ATOM    142  O62 IDS d 304     -25.743  46.759  12.876  0.00  0.00    -0.646 OA
ATOM    143  O1S IDS d 304     -21.656  53.177  12.706  0.00  0.00    -0.572 OA
ATOM    144  O2  IDS d 304     -23.589  52.110  11.877  0.00  0.00    -0.244 OA
ATOM    145  O3  IDS d 304     -22.781  49.182  10.000  0.00  0.00    -0.390 OA
ATOM    146  C5  IDS d 304     -24.380  48.672  12.564  0.00  0.00     0.152 C 
ATOM    147  O5  IDS d 304     -23.882  49.617  13.444  0.00  0.00    -0.340 OA
ATOM    148  O3S IDS d 304     -23.794  53.745  13.506  0.00  0.00    -0.572 OA
ATOM    149  O4  IDS d 304     -25.828  50.242  11.472  0.00  0.00    -0.348 OA
ATOM    150  C3  IDS d 304     -23.651  50.106  10.613  0.00  0.00     0.094 C 
ATOM    151  C2  IDS d 304     -22.876  50.925  11.666  0.00  0.00     0.134 C 
ATOM    152  C1  IDS d 304     -22.678  50.228  13.013  0.00  0.00     0.161 C 
ATOM    153  O2S IDS d 304     -23.150  54.396  11.334  0.00  0.00    -0.572 OA
ATOM    154  O61 IDS d 304     -26.092  48.281  14.181  0.00  0.00    -0.646 OA
ATOM    155  C4  IDS d 304     -24.794  49.340  11.246  0.00  0.00     0.103 C 
ATOM    156  C6  IDS d 304     -25.463  47.855  13.250  0.00  0.00     0.206 C 
ATOM    157  H   IDS d 304     -22.042  49.657   9.589  0.00  0.00     0.210 HD
ATOM    158  H   IDS d 304     -23.624  47.966  12.288  0.00  0.00     0.104 H 
ATOM    159  H   IDS d 304     -24.046  50.790   9.890  0.00  0.00     0.091 H 
ATOM    160  H   IDS d 304     -21.892  51.080  11.277  0.00  0.00     0.097 H 
ATOM    161  H   IDS d 304     -22.414  50.955  13.752  0.00  0.00     0.133 H 
ATOM    162  H   IDS d 304     -25.101  48.555  10.587  0.00  0.00     0.092 H 
ENDROOT
TORSDOF 51
ENDMDL
MODEL 9
REMARK VINA RESULT:     -11.1      3.077     14.997
REMARK  0 active torsions:
REMARK  status: ('A' for Active; 'I' for Inactive)
REMARK       I    between atoms: N_2  and  C2_29 
REMARK       I    between atoms: N_2  and  S1_49 
REMARK       I    between atoms: S_3  and  O2_103 
REMARK       I    between atoms: C5_6  and  C6_92 
REMARK       I    between atoms: C4_8  and  O4_100 
REMARK       I    between atoms: C2_9  and  O2_103 
REMARK       I    between atoms: O1S_10  and  S1_36 
REMARK       I    between atoms: O2S_11  and  S1_93 
REMARK       I    between atoms: C3_12  and  O3_54 
REMARK       I    between atoms: O4_13  and  C4_20 
REMARK       I    between atoms: O4_13  and  C1_26 
REMARK       I    between atoms: O6_15  and  C6_46 
REMARK       I    between atoms: O6_15  and  S2_104 
REMARK       I    between atoms: C5_16  and  C6_46 
REMARK       I    between atoms: C4_17  and  O4_90 
REMARK       I    between atoms: S_18  and  O2_62 
REMARK       I    between atoms: C3_19  and  O3_68 
REMARK       I    between atoms: S2_25  and  O6_53 
REMARK       I    between atoms: O4_27  and  C4_69 
REMARK       I    between atoms: O4_27  and  C1_89 
REMARK       I    between atoms: O3_28  and  C3_37 
REMARK       I    between atoms: C1_30  and  O4_73 
REMARK       I    between atoms: O2S_32  and  S1_49 
REMARK       I    between atoms: S_33  and  O2_48 
REMARK       I    between atoms: C6_34  and  C5_43 
REMARK       I    between atoms: C6_34  and  O6_60 
REMARK       I    between atoms: S1_36  and  N_85 
REMARK       I    between atoms: S1_36  and  O2S_63 
REMARK       I    between atoms: S1_36  and  O3S_74 
REMARK       I    between atoms: C6_40  and  C5_94 
REMARK       I    between atoms: O3S_42  and  S1_49 
REMARK       I    between atoms: C5_44  and  C6_99 
REMARK       I    between atoms: C1_47  and  O4_106 
REMARK       I    between atoms: O2_48  and  C2_57 
REMARK       I    between atoms: S1_49  and  O1S_55 
REMARK       I    between atoms: O1S_51  and  S1_93 
REMARK       I    between atoms: C3_52  and  O3_87 
REMARK       I    between atoms: O6_53  and  C6_92 
REMARK       I    between atoms: O3S_56  and  S1_93 
REMARK       I    between atoms: O3_58  and  C3_98 
REMARK       I    between atoms: C1_59  and  O1_81 
REMARK       I    between atoms: O6_60  and  S2_65 
REMARK       I    between atoms: O2_62  and  C2_77 
REMARK       I    between atoms: O3_64  and  C3_75 
REMARK       I    between atoms: C5_67  and  C6_101 
REMARK       I    between atoms: O4_73  and  C4_96 
REMARK       I    between atoms: C2_76  and  N_85 
REMARK       I    between atoms: N_78  and  C2_91 
REMARK       I    between atoms: N_78  and  S1_93 
REMARK       I    between atoms: C1_80  and  O4_100 
REMARK       I    between atoms: C4_102  and  O4_106 
ROOT
ATOM      1  O5S SGN d 305     -24.507  45.046   9.620  0.00  0.00    -0.572 OA
ATOM      2  C5  SGN d 305     -25.370  48.821  12.059  0.00  0.00     0.091 C 
ATOM      3  O1S SGN d 305     -26.143  51.567   7.844  0.00  0.00    -0.296 OA
ATOM      4  O4  SGN d 305     -27.522  48.317  12.790  0.00  0.00    -0.348 OA
ATOM      5  C4  SGN d 305     -26.830  48.907  11.752  0.00  0.00     0.095 C 
ATOM      6  O5  SGN d 305     -24.650  49.309  10.982  0.00  0.00    -0.349 OA
ATOM      7  S2  SGN d 305     -24.641  45.244  11.044  0.00  0.00     0.251 S 
ATOM      8  O3  SGN d 305     -28.484  50.599  11.495  0.00  0.00    -0.391 OA
ATOM      9  C1  SGN d 305     -24.900  50.673  10.712  0.00  0.00     0.150 C 
ATOM     10  S1  SGN d 305     -26.424  52.711   8.647  0.00  0.00     0.156 S 
ATOM     11  C3  SGN d 305     -27.127  50.384  11.685  0.00  0.00     0.083 C 
ATOM     12  O6  SGN d 305     -25.178  46.668  11.237  0.00  0.00    -0.254 OA
ATOM     13  O2S SGN d 305     -27.651  53.298   8.303  0.00  0.00    -0.296 OA
ATOM     14  O4S SGN d 305     -25.642  44.404  11.654  0.00  0.00    -0.572 OA
ATOM     15  O3S SGN d 305     -25.332  53.609   8.657  0.00  0.00    -0.296 OA
ATOM     16  C2  SGN d 305     -26.382  50.872  10.488  0.00  0.00     0.081 C 
ATOM     17  N   SGN d 305     -26.645  52.247  10.184  0.00  0.00    -0.210 NA
ATOM     18  C6  SGN d 305     -24.867  47.449  12.331  0.00  0.00     0.067 C 
ATOM     19  O6S SGN d 305     -23.352  45.231  11.727  0.00  0.00    -0.572 OA
ATOM     20  H   SGN d 305     -25.238  49.393  12.953  0.00  0.00     0.090 H 
ATOM     21  H   SGN d 305     -26.907  50.969   7.856  0.00  0.00     0.231 HD
ATOM     22  H   SGN d 305     -27.107  48.416  10.842  0.00  0.00     0.091 H 
ATOM     23  H   SGN d 305     -28.974  50.284  12.271  0.00  0.00     0.210 HD
ATOM     24  H   SGN d 305     -24.361  50.953   9.831  0.00  0.00     0.131 H 
ATOM     25  H   SGN d 305     -26.843  50.885  12.588  0.00  0.00     0.089 H 
ATOM     26  H   SGN d 305     -28.348  52.623   8.318  0.00  0.00     0.231 HD
ATOM     27  H   SGN d 305     -24.524  53.133   8.902  0.00  0.00     0.231 HD
ATOM     28  H   SGN d 305     -26.720  50.302   9.648  0.00  0.00     0.076 H 
ATOM     29  H   SGN d 305     -27.618  52.436  10.426  0.00  0.00     0.140 HD
ATOM     30  H   SGN d 305     -25.337  47.055  13.207  0.00  0.00     0.080 H 
ATOM     31  H   SGN d 305     -23.810  47.461  12.495  0.00  0.00     0.080 H 
ATOM     32  N   SGN d 303     -17.820  52.134  16.980  0.00  0.00    -0.210 NA
ATOM     33  C4  SGN d 303     -20.685  53.811  15.130  0.00  0.00     0.095 C 
ATOM     34  C2  SGN d 303     -18.934  53.042  16.768  0.00  0.00     0.081 C 
ATOM     35  O5S SGN d 303     -24.103  55.851  17.489  0.00  0.00    -0.572 OA
ATOM     36  O2S SGN d 303     -18.044  50.996  19.149  0.00  0.00    -0.296 OA
ATOM     37  C6  SGN d 303     -21.189  56.297  15.245  0.00  0.00     0.067 C 
ATOM     38  O3S SGN d 303     -15.871  51.441  18.252  0.00  0.00    -0.296 OA
ATOM     39  C5  SGN d 303     -20.131  55.214  15.355  0.00  0.00     0.091 C 
ATOM     40  S1  SGN d 303     -17.196  51.937  18.480  0.00  0.00     0.156 S 
ATOM     41  O6S SGN d 303     -22.407  57.531  17.759  0.00  0.00    -0.572 OA
ATOM     42  O1S SGN d 303     -17.208  53.212  19.140  0.00  0.00    -0.296 OA
ATOM     43  O3  SGN d 303     -20.100  51.505  15.358  0.00  0.00    -0.391 OA
ATOM     44  O6  SGN d 303     -22.237  55.890  16.070  0.00  0.00    -0.254 OA
ATOM     45  S2  SGN d 303     -23.210  56.775  16.863  0.00  0.00     0.251 S 
ATOM     46  O5  SGN d 303     -19.557  55.334  16.651  0.00  0.00    -0.349 OA
ATOM     47  C1  SGN d 303     -18.461  54.476  16.879  0.00  0.00     0.150 C 
ATOM     48  O4S SGN d 303     -23.872  57.618  15.926  0.00  0.00    -0.572 OA
ATOM     49  C3  SGN d 303     -19.558  52.807  15.399  0.00  0.00     0.083 C 
ATOM     50  O4  SGN d 303     -21.080  53.708  13.790  0.00  0.00    -0.348 OA
ATOM     51  H   SGN d 303     -17.058  52.458  16.385  0.00  0.00     0.140 HD
ATOM     52  H   SGN d 303     -21.516  53.617  15.776  0.00  0.00     0.091 H 
ATOM     53  H   SGN d 303     -19.673  52.857  17.520  0.00  0.00     0.076 H 
ATOM     54  H   SGN d 303     -18.016  50.146  18.682  0.00  0.00     0.231 HD
ATOM     55  H   SGN d 303     -21.526  56.389  14.233  0.00  0.00     0.080 H 
ATOM     56  H   SGN d 303     -20.807  57.252  15.538  0.00  0.00     0.080 H 
ATOM     57  H   SGN d 303     -15.920  50.581  17.806  0.00  0.00     0.231 HD
ATOM     58  H   SGN d 303     -19.401  55.350  14.585  0.00  0.00     0.090 H 
ATOM     59  H   SGN d 303     -18.125  53.500  19.269  0.00  0.00     0.231 HD
ATOM     60  H   SGN d 303     -20.500  51.348  14.489  0.00  0.00     0.210 HD
ATOM     61  H   SGN d 303     -18.085  54.673  17.861  0.00  0.00     0.131 H 
ATOM     62  H   SGN d 303     -18.799  52.929  14.655  0.00  0.00     0.089 H 
ATOM     63  S   IDS d 302     -14.215  52.366  14.672  0.00  0.00     0.252 S 
ATOM     64  O2S IDS d 302     -15.196  51.343  14.538  0.00  0.00    -0.572 OA
ATOM     65  O62 IDS d 302     -18.473  58.062  15.948  0.00  0.00    -0.646 OA
ATOM     66  C2  IDS d 302     -14.479  54.895  15.190  0.00  0.00     0.134 C 
ATOM     67  O5  IDS d 302     -16.124  56.162  14.004  0.00  0.00    -0.340 OA
ATOM     68  O1S IDS d 302     -13.393  52.230  15.829  0.00  0.00    -0.572 OA
ATOM     69  O4  IDS d 302     -17.390  54.709  15.986  0.00  0.00    -0.348 OA
ATOM     70  O3S IDS d 302     -13.461  52.553  13.486  0.00  0.00    -0.572 OA
ATOM     71  C5  IDS d 302     -16.583  56.787  15.190  0.00  0.00     0.152 C 
ATOM     72  C1  IDS d 302     -14.752  55.809  14.033  0.00  0.00     0.161 C 
ATOM     73  C3  IDS d 302     -15.124  55.350  16.498  0.00  0.00     0.094 C 
ATOM     74  C4  IDS d 302     -16.560  55.800  16.314  0.00  0.00     0.103 C 
ATOM     75  O3  IDS d 302     -14.393  56.446  16.983  0.00  0.00    -0.390 OA
ATOM     76  O61 IDS d 302     -18.508  57.453  13.914  0.00  0.00    -0.646 OA
ATOM     77  C6  IDS d 302     -17.935  57.472  15.002  0.00  0.00     0.206 C 
ATOM     78  O2  IDS d 302     -14.994  53.664  14.893  0.00  0.00    -0.244 OA
ATOM     79  H   IDS d 302     -13.419  54.887  15.333  0.00  0.00     0.097 H 
ATOM     80  H   IDS d 302     -15.917  57.584  15.446  0.00  0.00     0.104 H 
ATOM     81  H   IDS d 302     -14.533  55.306  13.114  0.00  0.00     0.133 H 
ATOM     82  H   IDS d 302     -15.119  54.520  17.172  0.00  0.00     0.091 H 
ATOM     83  H   IDS d 302     -16.921  56.233  17.223  0.00  0.00     0.092 H 
ATOM     84  H   IDS d 302     -14.429  57.169  16.339  0.00  0.00     0.210 HD
ATOM     85  O5  IDS d 306     -28.993  46.741  11.934  0.00  0.00    -0.340 OA
ATOM     86  C4  IDS d 306     -30.417  46.862  13.886  0.00  0.00     0.097 C 
ATOM     87  C3  IDS d 306     -29.160  46.591  14.791  0.00  0.00     0.094 C 
ATOM     88  C1  IDS d 306     -27.782  46.944  12.623  0.00  0.00     0.161 C 
ATOM     89  S   IDS d 306     -27.591  43.968  15.069  0.00  0.00     0.252 S 
ATOM     90  O3S IDS d 306     -26.779  42.875  14.576  0.00  0.00    -0.572 OA
ATOM     91  C6  IDS d 306     -31.186  47.618  11.500  0.00  0.00     0.206 C 
ATOM     92  O61 IDS d 306     -30.945  47.669  10.298  0.00  0.00    -0.646 OA
ATOM     93  O2  IDS d 306     -27.768  44.932  13.876  0.00  0.00    -0.244 OA
ATOM     94  C2  IDS d 306     -27.862  46.311  13.995  0.00  0.00     0.134 C 
ATOM     95  O62 IDS d 306     -32.352  47.716  11.865  0.00  0.00    -0.646 OA
ATOM     96  O3  IDS d 306     -28.901  47.702  15.640  0.00  0.00    -0.390 OA
ATOM     97  O2S IDS d 306     -28.925  43.555  15.462  0.00  0.00    -0.572 OA
ATOM     98  O4  IDS d 306     -31.052  45.614  13.658  0.00  0.00    -0.390 OA
ATOM     99  C5  IDS d 306     -30.048  47.463  12.511  0.00  0.00     0.152 C 
ATOM    100  O1S IDS d 306     -26.939  44.785  16.079  0.00  0.00    -0.572 OA
ATOM    101  H   IDS d 306     -31.045  47.566  14.390  0.00  0.00     0.091 H 
ATOM    102  H   IDS d 306     -29.412  45.715  15.351  0.00  0.00     0.091 H 
ATOM    103  H   IDS d 306     -26.998  46.500  12.046  0.00  0.00     0.133 H 
ATOM    104  H   IDS d 306     -27.052  46.756  14.534  0.00  0.00     0.097 H 
ATOM    105  H   IDS d 306     -28.677  48.476  15.099  0.00  0.00     0.210 HD
ATOM    106  H   IDS d 306     -30.438  45.018  13.200  0.00  0.00     0.210 HD
ATOM    107  H   IDS d 306     -29.758  48.468  12.737  0.00  0.00     0.104 H 
ATOM    108  O2S SGN d 301     -16.808  62.046  10.660  0.00  0.00    -0.296 OA
ATOM    109  C3  SGN d 301     -14.350  59.107  13.123  0.00  0.00     0.083 C 
ATOM    110  O6S SGN d 301     -10.490  54.862   9.678  0.00  0.00    -0.572 OA
ATOM    111  O6  SGN d 301     -12.135  55.904  11.092  0.00  0.00    -0.254 OA
ATOM    112  C5  SGN d 301     -12.307  57.799  12.545  0.00  0.00     0.091 C 
ATOM    113  O5  SGN d 301     -12.132  58.625  11.392  0.00  0.00    -0.350 OA
ATOM    114  O5S SGN d 301     -12.782  54.086   9.629  0.00  0.00    -0.572 OA
ATOM    115  C6  SGN d 301     -11.577  56.491  12.242  0.00  0.00     0.067 C 
ATOM    116  O1S SGN d 301     -15.301  60.679   9.392  0.00  0.00    -0.296 OA
ATOM    117  O3  SGN d 301     -15.714  59.059  13.444  0.00  0.00    -0.391 OA
ATOM    118  O3S SGN d 301     -14.659  62.899   9.994  0.00  0.00    -0.296 OA
ATOM    119  C1  SGN d 301     -12.669  59.928  11.537  0.00  0.00     0.147 C 
ATOM    120  N   SGN d 301     -14.763  61.194  11.789  0.00  0.00    -0.210 NA
ATOM    121  O1  SGN d 301     -12.027  60.611  12.641  0.00  0.00    -0.369 OA
ATOM    122  O4S SGN d 301     -11.399  53.653  11.552  0.00  0.00    -0.572 OA
ATOM    123  C2  SGN d 301     -14.165  59.851  11.799  0.00  0.00     0.081 C 
ATOM    124  S1  SGN d 301     -15.428  61.738  10.371  0.00  0.00     0.156 S 
ATOM    125  C4  SGN d 301     -13.812  57.665  12.918  0.00  0.00     0.095 C 
ATOM    126  S2  SGN d 301     -11.677  54.545  10.444  0.00  0.00     0.251 S 
ATOM    127  O4  SGN d 301     -13.927  56.929  14.114  0.00  0.00    -0.348 OA
ATOM    128  H   SGN d 301     -17.241  62.370   9.855  0.00  0.00     0.231 HD
ATOM    129  H   SGN d 301     -13.828  59.598  13.917  0.00  0.00     0.089 H 
ATOM    130  H   SGN d 301     -11.882  58.220  13.432  0.00  0.00     0.090 H 
ATOM    131  H   SGN d 301     -10.540  56.692  12.075  0.00  0.00     0.080 H 
ATOM    132  H   SGN d 301     -11.681  55.823  13.072  0.00  0.00     0.080 H 
ATOM    133  H   SGN d 301     -15.683  60.970   8.549  0.00  0.00     0.231 HD
ATOM    134  H   SGN d 301     -16.199  58.615  12.731  0.00  0.00     0.210 HD
ATOM    135  H   SGN d 301     -15.007  63.262   9.165  0.00  0.00     0.231 HD
ATOM    136  H   SGN d 301     -12.493  60.470  10.632  0.00  0.00     0.131 H 
ATOM    137  H   SGN d 301     -14.031  61.854  12.053  0.00  0.00     0.140 HD
ATOM    138  H   SGN d 301     -12.186  60.119  13.462  0.00  0.00     0.212 HD
ATOM    139  H   SGN d 301     -14.677  59.314  11.028  0.00  0.00     0.076 H 
ATOM    140  H   SGN d 301     -14.365  57.159  12.155  0.00  0.00     0.091 H 
ATOM    141  S   IDS d 304     -24.540  55.823  12.130  0.00  0.00     0.252 S 
ATOM    142  O62 IDS d 304     -22.560  49.115  13.970  0.00  0.00    -0.646 OA
ATOM    143  O1S IDS d 304     -23.441  56.557  12.642  0.00  0.00    -0.572 OA
ATOM    144  O2  IDS d 304     -24.032  54.394  11.912  0.00  0.00    -0.244 OA
ATOM    145  O3  IDS d 304     -21.171  52.514  10.898  0.00  0.00    -0.390 OA
ATOM    146  C5  IDS d 304     -22.653  51.397  13.337  0.00  0.00     0.152 C 
ATOM    147  O5  IDS d 304     -23.073  52.534  14.003  0.00  0.00    -0.340 OA
ATOM    148  O3S IDS d 304     -25.581  55.676  13.062  0.00  0.00    -0.572 OA
ATOM    149  O4  IDS d 304     -24.454  51.484  11.755  0.00  0.00    -0.348 OA
ATOM    150  C3  IDS d 304     -22.539  52.706  11.176  0.00  0.00     0.094 C 
ATOM    151  C2  IDS d 304     -22.713  53.953  12.069  0.00  0.00     0.134 C 
ATOM    152  C1  IDS d 304     -22.449  53.727  13.558  0.00  0.00     0.161 C 
ATOM    153  O2S IDS d 304     -24.993  56.320  10.872  0.00  0.00    -0.572 OA
ATOM    154  O61 IDS d 304     -24.071  50.179  14.821  0.00  0.00    -0.646 OA
ATOM    155  C4  IDS d 304     -23.068  51.463  11.861  0.00  0.00     0.103 C 
ATOM    156  C6  IDS d 304     -23.117  50.161  14.090  0.00  0.00     0.206 C 
ATOM    157  H   IDS d 304     -20.816  53.302  10.459  0.00  0.00     0.210 HD
ATOM    158  H   IDS d 304     -21.585  51.333  13.318  0.00  0.00     0.104 H 
ATOM    159  H   IDS d 304     -23.089  52.869  10.273  0.00  0.00     0.091 H 
ATOM    160  H   IDS d 304     -21.982  54.666  11.754  0.00  0.00     0.097 H 
ATOM    161  H   IDS d 304     -22.876  54.532  14.119  0.00  0.00     0.133 H 
ATOM    162  H   IDS d 304     -22.656  50.596  11.387  0.00  0.00     0.092 H 
ENDROOT
TORSDOF 51
ENDMDL
MODEL 10
REMARK VINA RESULT:     -11.1      5.721     15.668
REMARK  0 active torsions:
REMARK  status: ('A' for Active; 'I' for Inactive)
REMARK       I    between atoms: N_2  and  C2_29 
REMARK       I    between atoms: N_2  and  S1_49 
REMARK       I    between atoms: S_3  and  O2_103 
REMARK       I    between atoms: C5_6  and  C6_92 
REMARK       I    between atoms: C4_8  and  O4_100 
REMARK       I    between atoms: C2_9  and  O2_103 
REMARK       I    between atoms: O1S_10  and  S1_36 
REMARK       I    between atoms: O2S_11  and  S1_93 
REMARK       I    between atoms: C3_12  and  O3_54 
REMARK       I    between atoms: O4_13  and  C4_20 
REMARK       I    between atoms: O4_13  and  C1_26 
REMARK       I    between atoms: O6_15  and  C6_46 
REMARK       I    between atoms: O6_15  and  S2_104 
REMARK       I    between atoms: C5_16  and  C6_46 
REMARK       I    between atoms: C4_17  and  O4_90 
REMARK       I    between atoms: S_18  and  O2_62 
REMARK       I    between atoms: C3_19  and  O3_68 
REMARK       I    between atoms: S2_25  and  O6_53 
REMARK       I    between atoms: O4_27  and  C4_69 
REMARK       I    between atoms: O4_27  and  C1_89 
REMARK       I    between atoms: O3_28  and  C3_37 
REMARK       I    between atoms: C1_30  and  O4_73 
REMARK       I    between atoms: O2S_32  and  S1_49 
REMARK       I    between atoms: S_33  and  O2_48 
REMARK       I    between atoms: C6_34  and  C5_43 
REMARK       I    between atoms: C6_34  and  O6_60 
REMARK       I    between atoms: S1_36  and  N_85 
REMARK       I    between atoms: S1_36  and  O2S_63 
REMARK       I    between atoms: S1_36  and  O3S_74 
REMARK       I    between atoms: C6_40  and  C5_94 
REMARK       I    between atoms: O3S_42  and  S1_49 
REMARK       I    between atoms: C5_44  and  C6_99 
REMARK       I    between atoms: C1_47  and  O4_106 
REMARK       I    between atoms: O2_48  and  C2_57 
REMARK       I    between atoms: S1_49  and  O1S_55 
REMARK       I    between atoms: O1S_51  and  S1_93 
REMARK       I    between atoms: C3_52  and  O3_87 
REMARK       I    between atoms: O6_53  and  C6_92 
REMARK       I    between atoms: O3S_56  and  S1_93 
REMARK       I    between atoms: O3_58  and  C3_98 
REMARK       I    between atoms: C1_59  and  O1_81 
REMARK       I    between atoms: O6_60  and  S2_65 
REMARK       I    between atoms: O2_62  and  C2_77 
REMARK       I    between atoms: O3_64  and  C3_75 
REMARK       I    between atoms: C5_67  and  C6_101 
REMARK       I    between atoms: O4_73  and  C4_96 
REMARK       I    between atoms: C2_76  and  N_85 
REMARK       I    between atoms: N_78  and  C2_91 
REMARK       I    between atoms: N_78  and  S1_93 
REMARK       I    between atoms: C1_80  and  O4_100 
REMARK       I    between atoms: C4_102  and  O4_106 
ROOT
ATOM      1  O5S SGN d 305     -30.434  44.447  10.666  0.00  0.00    -0.572 OA
ATOM      2  C5  SGN d 305     -28.489  48.169  12.484  0.00  0.00     0.091 C 
ATOM      3  O1S SGN d 305     -27.753  50.231   7.890  0.00  0.00    -0.296 OA
ATOM      4  O4  SGN d 305     -30.396  49.247  13.273  0.00  0.00    -0.348 OA
ATOM      5  C4  SGN d 305     -29.588  49.127  12.159  0.00  0.00     0.095 C 
ATOM      6  O5  SGN d 305     -27.728  47.948  11.349  0.00  0.00    -0.349 OA
ATOM      7  S2  SGN d 305     -30.278  44.858  12.041  0.00  0.00     0.251 S 
ATOM      8  O3  SGN d 305     -29.821  51.437  11.633  0.00  0.00    -0.391 OA
ATOM      9  C1  SGN d 305     -27.087  49.111  10.869  0.00  0.00     0.150 C 
ATOM     10  S1  SGN d 305     -27.172  51.379   8.504  0.00  0.00     0.156 S 
ATOM     11  C3  SGN d 305     -28.893  50.431  11.862  0.00  0.00     0.083 C 
ATOM     12  O6  SGN d 305     -29.776  46.307  12.008  0.00  0.00    -0.254 OA
ATOM     13  O2S SGN d 305     -27.780  52.565   8.066  0.00  0.00    -0.296 OA
ATOM     14  O4S SGN d 305     -31.521  44.932  12.768  0.00  0.00    -0.572 OA
ATOM     15  O3S SGN d 305     -25.763  51.367   8.381  0.00  0.00    -0.296 OA
ATOM     16  C2  SGN d 305     -28.125  50.180  10.608  0.00  0.00     0.081 C 
ATOM     17  N   SGN d 305     -27.489  51.357  10.093  0.00  0.00    -0.210 NA
ATOM     18  C6  SGN d 305     -28.940  46.838  12.968  0.00  0.00     0.067 C 
ATOM     19  O6S SGN d 305     -29.228  44.111  12.725  0.00  0.00    -0.572 OA
ATOM     20  H   SGN d 305     -27.942  48.630  13.279  0.00  0.00     0.090 H 
ATOM     21  H   SGN d 305     -28.717  50.264   7.990  0.00  0.00     0.231 HD
ATOM     22  H   SGN d 305     -30.198  48.818  11.335  0.00  0.00     0.091 H 
ATOM     23  H   SGN d 305     -30.323  51.604  12.446  0.00  0.00     0.210 HD
ATOM     24  H   SGN d 305     -26.578  48.872   9.958  0.00  0.00     0.131 H 
ATOM     25  H   SGN d 305     -28.273  50.742  12.678  0.00  0.00     0.089 H 
ATOM     26  H   SGN d 305     -28.741  52.498   8.181  0.00  0.00     0.231 HD
ATOM     27  H   SGN d 305     -25.418  50.520   8.701  0.00  0.00     0.231 HD
ATOM     28  H   SGN d 305     -28.824  49.858   9.865  0.00  0.00     0.076 H 
ATOM     29  H   SGN d 305     -28.096  52.150  10.297  0.00  0.00     0.140 HD
ATOM     30  H   SGN d 305     -29.469  46.946  13.893  0.00  0.00     0.080 H 
ATOM     31  H   SGN d 305     -28.103  46.193  13.135  0.00  0.00     0.080 H 
ATOM     32  N   SGN d 303     -20.118  46.482  16.874  0.00  0.00    -0.210 NA
ATOM     33  C4  SGN d 303     -21.443  49.356  14.770  0.00  0.00     0.095 C 
ATOM     34  C2  SGN d 303     -20.423  47.856  16.517  0.00  0.00     0.081 C 
ATOM     35  O5S SGN d 303     -22.568  53.377  16.764  0.00  0.00    -0.572 OA
ATOM     36  O2S SGN d 303     -20.802  46.026  19.192  0.00  0.00    -0.296 OA
ATOM     37  C6  SGN d 303     -20.253  51.582  14.495  0.00  0.00     0.067 C 
ATOM     38  O3S SGN d 303     -18.933  44.869  18.249  0.00  0.00    -0.296 OA
ATOM     39  C5  SGN d 303     -20.111  50.098  14.778  0.00  0.00     0.091 C 
ATOM     40  S1  SGN d 303     -19.619  46.119  18.390  0.00  0.00     0.156 S 
ATOM     41  O6S SGN d 303     -20.176  53.607  16.780  0.00  0.00    -0.572 OA
ATOM     42  O1S SGN d 303     -18.762  47.178  18.844  0.00  0.00    -0.296 OA
ATOM     43  O3  SGN d 303     -22.425  47.257  15.356  0.00  0.00    -0.391 OA
ATOM     44  O6  SGN d 303     -21.239  52.042  15.367  0.00  0.00    -0.254 OA
ATOM     45  S2  SGN d 303     -21.356  53.434  16.008  0.00  0.00     0.251 S 
ATOM     46  O5  SGN d 303     -19.470  49.983  16.043  0.00  0.00    -0.349 OA
ATOM     47  C1  SGN d 303     -19.145  48.659  16.407  0.00  0.00     0.150 C 
ATOM     48  O4S SGN d 303     -21.423  54.380  14.947  0.00  0.00    -0.572 OA
ATOM     49  C3  SGN d 303     -21.182  47.907  15.198  0.00  0.00     0.083 C 
ATOM     50  O4  SGN d 303     -21.939  49.364  13.460  0.00  0.00    -0.348 OA
ATOM     51  H   SGN d 303     -19.382  46.169  16.240  0.00  0.00     0.140 HD
ATOM     52  H   SGN d 303     -22.145  49.817  15.433  0.00  0.00     0.091 H 
ATOM     53  H   SGN d 303     -21.038  48.280  17.284  0.00  0.00     0.076 H 
ATOM     54  H   SGN d 303     -21.361  45.305  18.863  0.00  0.00     0.231 HD
ATOM     55  H   SGN d 303     -20.550  51.742  13.479  0.00  0.00     0.080 H 
ATOM     56  H   SGN d 303     -19.329  52.101  14.637  0.00  0.00     0.080 H 
ATOM     57  H   SGN d 303     -19.555  44.191  17.942  0.00  0.00     0.231 HD
ATOM     58  H   SGN d 303     -19.535  49.640  14.000  0.00  0.00     0.090 H 
ATOM     59  H   SGN d 303     -19.275  47.997  18.922  0.00  0.00     0.231 HD
ATOM     60  H   SGN d 303     -22.914  47.285  14.520  0.00  0.00     0.210 HD
ATOM     61  H   SGN d 303     -18.638  48.690  17.349  0.00  0.00     0.131 H 
ATOM     62  H   SGN d 303     -20.591  47.424  14.448  0.00  0.00     0.089 H 
ATOM     63  S   IDS d 302     -17.412  44.076  14.579  0.00  0.00     0.252 S 
ATOM     64  O2S IDS d 302     -18.825  43.907  14.599  0.00  0.00    -0.572 OA
ATOM     65  O62 IDS d 302     -16.981  51.280  14.931  0.00  0.00    -0.646 OA
ATOM     66  C2  IDS d 302     -15.973  46.232  14.696  0.00  0.00     0.134 C 
ATOM     67  O5  IDS d 302     -16.554  48.098  13.318  0.00  0.00    -0.340 OA
ATOM     68  O1S IDS d 302     -16.755  43.592  15.747  0.00  0.00    -0.572 OA
ATOM     69  O4  IDS d 302     -18.258  48.044  15.495  0.00  0.00    -0.348 OA
ATOM     70  O3S IDS d 302     -16.826  43.591  13.382  0.00  0.00    -0.572 OA
ATOM     71  C5  IDS d 302     -16.401  49.012  14.390  0.00  0.00     0.152 C 
ATOM     72  C1  IDS d 302     -15.717  46.958  13.410  0.00  0.00     0.161 C 
ATOM     73  C3  IDS d 302     -16.058  47.150  15.914  0.00  0.00     0.094 C 
ATOM     74  C4  IDS d 302     -16.899  48.385  15.654  0.00  0.00     0.103 C 
ATOM     75  O3  IDS d 302     -14.759  47.577  16.227  0.00  0.00    -0.390 OA
ATOM     76  O61 IDS d 302     -17.585  50.588  13.015  0.00  0.00    -0.646 OA
ATOM     77  C6  IDS d 302     -17.028  50.372  14.091  0.00  0.00     0.206 C 
ATOM     78  O2  IDS d 302     -17.173  45.587  14.591  0.00  0.00    -0.244 OA
ATOM     79  H   IDS d 302     -15.147  45.567  14.844  0.00  0.00     0.097 H 
ATOM     80  H   IDS d 302     -15.361  49.225  14.523  0.00  0.00     0.104 H 
ATOM     81  H   IDS d 302     -15.951  46.323  12.581  0.00  0.00     0.133 H 
ATOM     82  H   IDS d 302     -16.514  46.598  16.709  0.00  0.00     0.091 H 
ATOM     83  H   IDS d 302     -16.818  49.057  16.483  0.00  0.00     0.092 H 
ATOM     84  H   IDS d 302     -14.391  48.071  15.478  0.00  0.00     0.210 HD
ATOM     85  O5  IDS d 306     -32.604  48.881  12.663  0.00  0.00    -0.340 OA
ATOM     86  C4  IDS d 306     -33.440  50.120  14.565  0.00  0.00     0.097 C 
ATOM     87  C3  IDS d 306     -32.556  49.225  15.508  0.00  0.00     0.094 C 
ATOM     88  C1  IDS d 306     -31.477  48.348  13.319  0.00  0.00     0.161 C 
ATOM     89  S   IDS d 306     -32.975  46.264  16.199  0.00  0.00     0.252 S 
ATOM     90  O3S IDS d 306     -33.085  44.854  15.885  0.00  0.00    -0.572 OA
ATOM     91  C6  IDS d 306     -33.782  50.892  12.086  0.00  0.00     0.206 C 
ATOM     92  O61 IDS d 306     -33.678  50.629  10.892  0.00  0.00    -0.646 OA
ATOM     93  O2  IDS d 306     -32.616  46.963  14.869  0.00  0.00    -0.244 OA
ATOM     94  C2  IDS d 306     -31.808  48.087  14.772  0.00  0.00     0.134 C 
ATOM     95  O62 IDS d 306     -34.584  51.755  12.424  0.00  0.00    -0.646 OA
ATOM     96  O3  IDS d 306     -31.576  50.009  16.175  0.00  0.00    -0.390 OA
ATOM     97  O2S IDS d 306     -34.226  46.848  16.643  0.00  0.00    -0.572 OA
ATOM     98  O4  IDS d 306     -34.737  49.548  14.529  0.00  0.00    -0.390 OA
ATOM     99  C5  IDS d 306     -32.906  50.173  13.114  0.00  0.00     0.152 C 
ATOM    100  O1S IDS d 306     -31.862  46.594  17.073  0.00  0.00    -0.572 OA
ATOM    101  H   IDS d 306     -33.432  51.118  14.950  0.00  0.00     0.091 H 
ATOM    102  H   IDS d 306     -33.249  48.788  16.196  0.00  0.00     0.091 H 
ATOM    103  H   IDS d 306     -31.208  47.440  12.822  0.00  0.00     0.133 H 
ATOM    104  H   IDS d 306     -30.852  47.975  15.240  0.00  0.00     0.097 H 
ATOM    105  H   IDS d 306     -30.967  50.388  15.522  0.00  0.00     0.210 HD
ATOM    106  H   IDS d 306     -34.683  48.647  14.172  0.00  0.00     0.210 HD
ATOM    107  H   IDS d 306     -32.028  50.781  13.184  0.00  0.00     0.104 H 
ATOM    108  O2S SGN d 301     -13.688  52.597   9.097  0.00  0.00    -0.296 OA
ATOM    109  C3  SGN d 301     -13.413  49.098  12.001  0.00  0.00     0.083 C 
ATOM    110  O6S SGN d 301     -13.441  42.985   9.279  0.00  0.00    -0.572 OA
ATOM    111  O6  SGN d 301     -13.918  45.000  10.505  0.00  0.00    -0.254 OA
ATOM    112  C5  SGN d 301     -12.718  46.730  11.645  0.00  0.00     0.091 C 
ATOM    113  O5  SGN d 301     -12.172  47.105  10.379  0.00  0.00    -0.350 OA
ATOM    114  O5S SGN d 301     -15.701  43.849   9.338  0.00  0.00    -0.572 OA
ATOM    115  C6  SGN d 301     -13.009  45.233  11.553  0.00  0.00     0.067 C 
ATOM    116  O1S SGN d 301     -13.509  50.441   8.066  0.00  0.00    -0.296 OA
ATOM    117  O3  SGN d 301     -14.464  49.972  12.318  0.00  0.00    -0.391 OA
ATOM    118  O3S SGN d 301     -11.557  51.794   8.320  0.00  0.00    -0.296 OA
ATOM    119  C1  SGN d 301     -11.751  48.456  10.316  0.00  0.00     0.147 C 
ATOM    120  N   SGN d 301     -12.542  50.785  10.357  0.00  0.00    -0.210 NA
ATOM    121  O1  SGN d 301     -10.721  48.702  11.304  0.00  0.00    -0.369 OA
ATOM    122  O4S SGN d 301     -14.727  42.876  11.313  0.00  0.00    -0.572 OA
ATOM    123  C2  SGN d 301     -12.927  49.383  10.579  0.00  0.00     0.081 C 
ATOM    124  S1  SGN d 301     -12.846  51.448   8.868  0.00  0.00     0.156 S 
ATOM    125  C4  SGN d 301     -13.927  47.633  12.025  0.00  0.00     0.095 C 
ATOM    126  S2  SGN d 301     -14.483  43.594  10.078  0.00  0.00     0.251 S 
ATOM    127  O4  SGN d 301     -14.367  47.294  13.321  0.00  0.00    -0.348 OA
ATOM    128  H   SGN d 301     -13.893  53.021   8.249  0.00  0.00     0.231 HD
ATOM    129  H   SGN d 301     -12.626  49.237  12.712  0.00  0.00     0.089 H 
ATOM    130  H   SGN d 301     -12.042  46.888  12.458  0.00  0.00     0.090 H 
ATOM    131  H   SGN d 301     -12.099  44.703  11.362  0.00  0.00     0.080 H 
ATOM    132  H   SGN d 301     -13.432  44.893  12.475  0.00  0.00     0.080 H 
ATOM    133  H   SGN d 301     -13.699  50.802   7.186  0.00  0.00     0.231 HD
ATOM    134  H   SGN d 301     -15.185  49.854  11.680  0.00  0.00     0.210 HD
ATOM    135  H   SGN d 301     -11.675  52.190   7.442  0.00  0.00     0.231 HD
ATOM    136  H   SGN d 301     -11.359  48.645   9.339  0.00  0.00     0.131 H 
ATOM    137  H   SGN d 301     -11.537  50.853  10.520  0.00  0.00     0.140 HD
ATOM    138  H   SGN d 301     -11.076  48.531  12.191  0.00  0.00     0.212 HD
ATOM    139  H   SGN d 301     -13.733  49.206   9.898  0.00  0.00     0.076 H 
ATOM    140  H   SGN d 301     -14.744  47.508  11.347  0.00  0.00     0.091 H 
ATOM    141  S   IDS d 304     -23.429  52.974  11.472  0.00  0.00     0.252 S 
ATOM    142  O62 IDS d 304     -25.958  46.836  14.342  0.00  0.00    -0.646 OA
ATOM    143  O1S IDS d 304     -22.071  52.895  11.870  0.00  0.00    -0.572 OA
ATOM    144  O2  IDS d 304     -23.959  51.536  11.481  0.00  0.00    -0.244 OA
ATOM    145  O3  IDS d 304     -23.036  48.157  10.788  0.00  0.00    -0.390 OA
ATOM    146  C5  IDS d 304     -24.651  48.553  13.362  0.00  0.00     0.152 C 
ATOM    147  O5  IDS d 304     -24.194  49.768  13.841  0.00  0.00    -0.340 OA
ATOM    148  O3S IDS d 304     -24.236  53.640  12.410  0.00  0.00    -0.572 OA
ATOM    149  O4  IDS d 304     -26.133  49.573  11.776  0.00  0.00    -0.348 OA
ATOM    150  C3  IDS d 304     -23.942  49.210  11.025  0.00  0.00     0.094 C 
ATOM    151  C2  IDS d 304     -23.206  50.379  11.713  0.00  0.00     0.134 C 
ATOM    152  C1  IDS d 304     -23.004  50.223  13.220  0.00  0.00     0.161 C 
ATOM    153  O2S IDS d 304     -23.584  53.485  10.149  0.00  0.00    -0.572 OA
ATOM    154  O61 IDS d 304     -26.371  48.714  15.009  0.00  0.00    -0.646 OA
ATOM    155  C4  IDS d 304     -25.069  48.686  11.892  0.00  0.00     0.103 C 
ATOM    156  C6  IDS d 304     -25.716  48.002  14.296  0.00  0.00     0.206 C 
ATOM    157  H   IDS d 304     -22.307  48.477  10.233  0.00  0.00     0.210 HD
ATOM    158  H   IDS d 304     -23.870  47.821  13.359  0.00  0.00     0.104 H 
ATOM    159  H   IDS d 304     -24.349  49.573  10.104  0.00  0.00     0.091 H 
ATOM    160  H   IDS d 304     -22.222  50.417  11.294  0.00  0.00     0.097 H 
ATOM    161  H   IDS d 304     -22.772  51.176  13.647  0.00  0.00     0.133 H 
ATOM    162  H   IDS d 304     -25.343  47.706  11.560  0.00  0.00     0.092 H 
ENDROOT
TORSDOF 51
ENDMDL
MODEL 11
REMARK VINA RESULT:     -10.9      4.653      7.681
REMARK  0 active torsions:
REMARK  status: ('A' for Active; 'I' for Inactive)
REMARK       I    between atoms: N_2  and  C2_29 
REMARK       I    between atoms: N_2  and  S1_49 
REMARK       I    between atoms: S_3  and  O2_103 
REMARK       I    between atoms: C5_6  and  C6_92 
REMARK       I    between atoms: C4_8  and  O4_100 
REMARK       I    between atoms: C2_9  and  O2_103 
REMARK       I    between atoms: O1S_10  and  S1_36 
REMARK       I    between atoms: O2S_11  and  S1_93 
REMARK       I    between atoms: C3_12  and  O3_54 
REMARK       I    between atoms: O4_13  and  C4_20 
REMARK       I    between atoms: O4_13  and  C1_26 
REMARK       I    between atoms: O6_15  and  C6_46 
REMARK       I    between atoms: O6_15  and  S2_104 
REMARK       I    between atoms: C5_16  and  C6_46 
REMARK       I    between atoms: C4_17  and  O4_90 
REMARK       I    between atoms: S_18  and  O2_62 
REMARK       I    between atoms: C3_19  and  O3_68 
REMARK       I    between atoms: S2_25  and  O6_53 
REMARK       I    between atoms: O4_27  and  C4_69 
REMARK       I    between atoms: O4_27  and  C1_89 
REMARK       I    between atoms: O3_28  and  C3_37 
REMARK       I    between atoms: C1_30  and  O4_73 
REMARK       I    between atoms: O2S_32  and  S1_49 
REMARK       I    between atoms: S_33  and  O2_48 
REMARK       I    between atoms: C6_34  and  C5_43 
REMARK       I    between atoms: C6_34  and  O6_60 
REMARK       I    between atoms: S1_36  and  N_85 
REMARK       I    between atoms: S1_36  and  O2S_63 
REMARK       I    between atoms: S1_36  and  O3S_74 
REMARK       I    between atoms: C6_40  and  C5_94 
REMARK       I    between atoms: O3S_42  and  S1_49 
REMARK       I    between atoms: C5_44  and  C6_99 
REMARK       I    between atoms: C1_47  and  O4_106 
REMARK       I    between atoms: O2_48  and  C2_57 
REMARK       I    between atoms: S1_49  and  O1S_55 
REMARK       I    between atoms: O1S_51  and  S1_93 
REMARK       I    between atoms: C3_52  and  O3_87 
REMARK       I    between atoms: O6_53  and  C6_92 
REMARK       I    between atoms: O3S_56  and  S1_93 
REMARK       I    between atoms: O3_58  and  C3_98 
REMARK       I    between atoms: C1_59  and  O1_81 
REMARK       I    between atoms: O6_60  and  S2_65 
REMARK       I    between atoms: O2_62  and  C2_77 
REMARK       I    between atoms: O3_64  and  C3_75 
REMARK       I    between atoms: C5_67  and  C6_101 
REMARK       I    between atoms: O4_73  and  C4_96 
REMARK       I    between atoms: C2_76  and  N_85 
REMARK       I    between atoms: N_78  and  C2_91 
REMARK       I    between atoms: N_78  and  S1_93 
REMARK       I    between atoms: C1_80  and  O4_100 
REMARK       I    between atoms: C4_102  and  O4_106 
ROOT
ATOM      1  O5S SGN d 305     -16.171  48.696  21.586  0.00  0.00    -0.572 OA
ATOM      2  C5  SGN d 305     -17.367  50.217  17.439  0.00  0.00     0.091 C 
ATOM      3  O1S SGN d 305     -19.116  54.591  19.366  0.00  0.00    -0.296 OA
ATOM      4  O4  SGN d 305     -15.262  50.779  16.619  0.00  0.00    -0.348 OA
ATOM      5  C4  SGN d 305     -16.330  51.288  17.331  0.00  0.00     0.095 C 
ATOM      6  O5  SGN d 305     -18.402  50.666  18.241  0.00  0.00    -0.349 OA
ATOM      7  S2  SGN d 305     -15.949  48.138  20.272  0.00  0.00     0.251 S 
ATOM      8  O3  SGN d 305     -16.100  53.429  16.317  0.00  0.00    -0.391 OA
ATOM      9  C1  SGN d 305     -19.073  51.791  17.713  0.00  0.00     0.150 C 
ATOM     10  S1  SGN d 305     -19.453  55.029  18.052  0.00  0.00     0.156 S 
ATOM     11  C3  SGN d 305     -16.999  52.401  16.565  0.00  0.00     0.083 C 
ATOM     12  O6  SGN d 305     -16.356  49.223  19.265  0.00  0.00    -0.254 OA
ATOM     13  O2S SGN d 305     -18.906  56.290  17.770  0.00  0.00    -0.296 OA
ATOM     14  O4S SGN d 305     -14.561  47.886  19.977  0.00  0.00    -0.572 OA
ATOM     15  O3S SGN d 305     -20.845  54.934  17.823  0.00  0.00    -0.296 OA
ATOM     16  C2  SGN d 305     -18.073  52.900  17.474  0.00  0.00     0.081 C 
ATOM     17  N   SGN d 305     -18.746  54.058  16.964  0.00  0.00    -0.210 NA
ATOM     18  C6  SGN d 305     -16.888  48.938  18.025  0.00  0.00     0.067 C 
ATOM     19  O6S SGN d 305     -16.835  47.013  19.993  0.00  0.00    -0.572 OA
ATOM     20  H   SGN d 305     -17.666  50.016  16.432  0.00  0.00     0.090 H 
ATOM     21  H   SGN d 305     -18.158  54.666  19.496  0.00  0.00     0.231 HD
ATOM     22  H   SGN d 305     -15.968  51.632  18.277  0.00  0.00     0.091 H 
ATOM     23  H   SGN d 305     -15.400  53.110  15.726  0.00  0.00     0.210 HD
ATOM     24  H   SGN d 305     -19.808  52.116  18.419  0.00  0.00     0.131 H 
ATOM     25  H   SGN d 305     -17.373  52.062  15.622  0.00  0.00     0.089 H 
ATOM     26  H   SGN d 305     -17.952  56.277  17.951  0.00  0.00     0.231 HD
ATOM     27  H   SGN d 305     -21.148  54.039  18.040  0.00  0.00     0.231 HD
ATOM     28  H   SGN d 305     -17.605  53.195  18.389  0.00  0.00     0.076 H 
ATOM     29  H   SGN d 305     -18.061  54.614  16.454  0.00  0.00     0.140 HD
ATOM     30  H   SGN d 305     -16.138  48.506  17.396  0.00  0.00     0.080 H 
ATOM     31  H   SGN d 305     -17.693  48.239  18.113  0.00  0.00     0.080 H 
ATOM     32  N   SGN d 303     -24.441  45.212  13.304  0.00  0.00    -0.210 NA
ATOM     33  C4  SGN d 303     -23.522  48.899  13.357  0.00  0.00     0.095 C 
ATOM     34  C2  SGN d 303     -24.154  46.533  12.772  0.00  0.00     0.081 C 
ATOM     35  O5S SGN d 303     -21.691  50.896   9.606  0.00  0.00    -0.572 OA
ATOM     36  O2S SGN d 303     -23.221  43.494  12.036  0.00  0.00    -0.296 OA
ATOM     37  C6  SGN d 303     -24.607  50.656  11.879  0.00  0.00     0.067 C 
ATOM     38  O3S SGN d 303     -25.334  42.971  13.029  0.00  0.00    -0.296 OA
ATOM     39  C5  SGN d 303     -24.762  49.315  12.573  0.00  0.00     0.091 C 
ATOM     40  S1  SGN d 303     -24.562  43.929  12.295  0.00  0.00     0.156 S 
ATOM     41  O6S SGN d 303     -23.983  50.789   8.892  0.00  0.00    -0.572 OA
ATOM     42  O1S SGN d 303     -25.211  44.367  11.092  0.00  0.00    -0.296 OA
ATOM     43  O3  SGN d 303     -22.551  47.023  14.476  0.00  0.00    -0.391 OA
ATOM     44  O6  SGN d 303     -23.407  50.582  11.173  0.00  0.00    -0.254 OA
ATOM     45  S2  SGN d 303     -23.048  51.272   9.848  0.00  0.00     0.251 S 
ATOM     46  O5  SGN d 303     -25.067  48.364  11.560  0.00  0.00    -0.349 OA
ATOM     47  C1  SGN d 303     -25.369  47.076  12.050  0.00  0.00     0.150 C 
ATOM     48  O4S SGN d 303     -23.195  52.673  10.051  0.00  0.00    -0.572 OA
ATOM     49  C3  SGN d 303     -23.752  47.482  13.894  0.00  0.00     0.083 C 
ATOM     50  O4  SGN d 303     -23.374  49.779  14.437  0.00  0.00    -0.348 OA
ATOM     51  H   SGN d 303     -25.331  45.281  13.800  0.00  0.00     0.140 HD
ATOM     52  H   SGN d 303     -22.649  48.924  12.739  0.00  0.00     0.091 H 
ATOM     53  H   SGN d 303     -23.341  46.453  12.081  0.00  0.00     0.076 H 
ATOM     54  H   SGN d 303     -22.808  43.205  12.864  0.00  0.00     0.231 HD
ATOM     55  H   SGN d 303     -24.567  51.447  12.599  0.00  0.00     0.080 H 
ATOM     56  H   SGN d 303     -25.432  50.862  11.231  0.00  0.00     0.080 H 
ATOM     57  H   SGN d 303     -24.852  42.710  13.828  0.00  0.00     0.231 HD
ATOM     58  H   SGN d 303     -25.542  49.379  13.303  0.00  0.00     0.090 H 
ATOM     59  H   SGN d 303     -24.646  45.011  10.637  0.00  0.00     0.231 HD
ATOM     60  H   SGN d 303     -22.289  47.623  15.191  0.00  0.00     0.210 HD
ATOM     61  H   SGN d 303     -25.618  46.454  11.215  0.00  0.00     0.131 H 
ATOM     62  H   SGN d 303     -24.542  47.507  14.615  0.00  0.00     0.089 H 
ATOM     63  S   IDS d 302     -27.778  44.469  15.891  0.00  0.00     0.252 S 
ATOM     64  O2S IDS d 302     -26.419  44.489  16.312  0.00  0.00    -0.572 OA
ATOM     65  O62 IDS d 302     -27.675  49.773  10.985  0.00  0.00    -0.646 OA
ATOM     66  C2  IDS d 302     -29.010  45.898  14.109  0.00  0.00     0.134 C 
ATOM     67  O5  IDS d 302     -28.685  48.267  14.086  0.00  0.00    -0.340 OA
ATOM     68  O1S IDS d 302     -28.146  43.291  15.179  0.00  0.00    -0.572 OA
ATOM     69  O4  IDS d 302     -26.493  47.066  12.906  0.00  0.00    -0.348 OA
ATOM     70  O3S IDS d 302     -28.677  44.773  16.946  0.00  0.00    -0.572 OA
ATOM     71  C5  IDS d 302     -28.507  48.289  12.680  0.00  0.00     0.152 C 
ATOM     72  C1  IDS d 302     -29.539  47.233  14.543  0.00  0.00     0.161 C 
ATOM     73  C3  IDS d 302     -28.564  45.860  12.648  0.00  0.00     0.094 C 
ATOM     74  C4  IDS d 302     -27.744  47.074  12.257  0.00  0.00     0.103 C 
ATOM     75  O3  IDS d 302     -29.714  45.845  11.844  0.00  0.00    -0.390 OA
ATOM     76  O61 IDS d 302     -27.617  50.501  12.979  0.00  0.00    -0.646 OA
ATOM     77  C6  IDS d 302     -27.896  49.600  12.191  0.00  0.00     0.206 C 
ATOM     78  O2  IDS d 302     -27.916  45.604  14.873  0.00  0.00    -0.244 OA
ATOM     79  H   IDS d 302     -29.809  45.197  14.226  0.00  0.00     0.097 H 
ATOM     80  H   IDS d 302     -29.465  48.251  12.206  0.00  0.00     0.104 H 
ATOM     81  H   IDS d 302     -29.560  47.284  15.611  0.00  0.00     0.133 H 
ATOM     82  H   IDS d 302     -27.956  44.990  12.514  0.00  0.00     0.091 H 
ATOM     83  H   IDS d 302     -27.572  47.067  11.201  0.00  0.00     0.092 H 
ATOM     84  H   IDS d 302     -30.229  46.652  12.001  0.00  0.00     0.210 HD
ATOM     85  O5  IDS d 306     -13.305  51.130  17.815  0.00  0.00    -0.340 OA
ATOM     86  C4  IDS d 306     -11.943  51.001  15.821  0.00  0.00     0.097 C 
ATOM     87  C3  IDS d 306     -12.611  49.619  15.481  0.00  0.00     0.094 C 
ATOM     88  C1  IDS d 306     -14.259  50.180  17.403  0.00  0.00     0.161 C 
ATOM     89  S   IDS d 306     -12.210  46.946  16.936  0.00  0.00     0.252 S 
ATOM     90  O3S IDS d 306     -12.267  46.064  18.083  0.00  0.00    -0.572 OA
ATOM     91  C6  IDS d 306     -12.193  53.182  17.248  0.00  0.00     0.206 C 
ATOM     92  O61 IDS d 306     -12.612  53.711  18.273  0.00  0.00    -0.646 OA
ATOM     93  O2  IDS d 306     -12.851  48.274  17.395  0.00  0.00    -0.244 OA
ATOM     94  C2  IDS d 306     -13.588  49.111  16.570  0.00  0.00     0.134 C 
ATOM     95  O62 IDS d 306     -11.282  53.731  16.640  0.00  0.00    -0.646 OA
ATOM     96  O3  IDS d 306     -13.343  49.697  14.265  0.00  0.00    -0.390 OA
ATOM     97  O2S IDS d 306     -10.855  47.265  16.530  0.00  0.00    -0.572 OA
ATOM     98  O4  IDS d 306     -10.734  50.730  16.510  0.00  0.00    -0.390 OA
ATOM     99  C5  IDS d 306     -12.822  51.884  16.736  0.00  0.00     0.152 C 
ATOM    100  O1S IDS d 306     -13.044  46.528  15.821  0.00  0.00    -0.572 OA
ATOM    101  H   IDS d 306     -11.793  51.532  14.904  0.00  0.00     0.091 H 
ATOM    102  H   IDS d 306     -11.794  48.932  15.410  0.00  0.00     0.091 H 
ATOM    103  H   IDS d 306     -14.700  49.756  18.282  0.00  0.00     0.133 H 
ATOM    104  H   IDS d 306     -14.399  48.622  16.071  0.00  0.00     0.097 H 
ATOM    105  H   IDS d 306     -14.073  50.327  14.367  0.00  0.00     0.210 HD
ATOM    106  H   IDS d 306     -10.930  50.249  17.330  0.00  0.00     0.210 HD
ATOM    107  H   IDS d 306     -13.616  52.210  16.097  0.00  0.00     0.104 H 
ATOM    108  O2S SGN d 301     -32.251  54.047  13.704  0.00  0.00    -0.296 OA
ATOM    109  C3  SGN d 301     -31.991  49.500  13.699  0.00  0.00     0.083 C 
ATOM    110  O6S SGN d 301     -33.018  46.471  19.577  0.00  0.00    -0.572 OA
ATOM    111  O6  SGN d 301     -32.127  47.321  17.509  0.00  0.00    -0.254 OA
ATOM    112  C5  SGN d 301     -32.894  47.810  15.294  0.00  0.00     0.091 C 
ATOM    113  O5  SGN d 301     -33.720  48.826  15.868  0.00  0.00    -0.350 OA
ATOM    114  O5S SGN d 301     -30.770  47.363  19.514  0.00  0.00    -0.572 OA
ATOM    115  C6  SGN d 301     -32.726  46.743  16.375  0.00  0.00     0.067 C 
ATOM    116  O1S SGN d 301     -32.814  53.002  15.786  0.00  0.00    -0.296 OA
ATOM    117  O3  SGN d 301     -30.844  50.099  13.158  0.00  0.00    -0.391 OA
ATOM    118  O3S SGN d 301     -34.553  53.666  14.290  0.00  0.00    -0.296 OA
ATOM    119  C1  SGN d 301     -34.061  49.862  14.964  0.00  0.00     0.147 C 
ATOM    120  N   SGN d 301     -33.148  51.729  13.649  0.00  0.00    -0.210 NA
ATOM    121  O1  SGN d 301     -34.790  49.318  13.837  0.00  0.00    -0.369 OA
ATOM    122  O4S SGN d 301     -31.269  45.267  18.440  0.00  0.00    -0.572 OA
ATOM    123  C2  SGN d 301     -32.803  50.551  14.458  0.00  0.00     0.081 C 
ATOM    124  S1  SGN d 301     -33.190  53.205  14.403  0.00  0.00     0.156 S 
ATOM    125  C4  SGN d 301     -31.577  48.411  14.724  0.00  0.00     0.095 C 
ATOM    126  S2  SGN d 301     -31.774  46.564  18.843  0.00  0.00     0.251 S 
ATOM    127  O4  SGN d 301     -30.845  47.392  14.082  0.00  0.00    -0.348 OA
ATOM    128  H   SGN d 301     -32.241  54.928  14.112  0.00  0.00     0.231 HD
ATOM    129  H   SGN d 301     -32.563  49.074  12.901  0.00  0.00     0.089 H 
ATOM    130  H   SGN d 301     -33.332  47.348  14.435  0.00  0.00     0.090 H 
ATOM    131  H   SGN d 301     -33.684  46.347  16.638  0.00  0.00     0.080 H 
ATOM    132  H   SGN d 301     -32.105  45.953  16.005  0.00  0.00     0.080 H 
ATOM    133  H   SGN d 301     -32.830  53.851  16.254  0.00  0.00     0.231 HD
ATOM    134  H   SGN d 301     -30.316  50.489  13.872  0.00  0.00     0.210 HD
ATOM    135  H   SGN d 301     -34.638  54.533  14.717  0.00  0.00     0.231 HD
ATOM    136  H   SGN d 301     -34.675  50.572  15.476  0.00  0.00     0.131 H 
ATOM    137  H   SGN d 301     -34.073  51.565  13.251  0.00  0.00     0.140 HD
ATOM    138  H   SGN d 301     -34.234  48.674  13.372  0.00  0.00     0.212 HD
ATOM    139  H   SGN d 301     -32.208  50.932  15.262  0.00  0.00     0.076 H 
ATOM    140  H   SGN d 301     -30.966  48.831  15.496  0.00  0.00     0.091 H 
ATOM    141  S   IDS d 304     -22.221  53.982  13.977  0.00  0.00     0.252 S 
ATOM    142  O62 IDS d 304     -19.421  47.737  16.315  0.00  0.00    -0.646 OA
ATOM    143  O1S IDS d 304     -23.437  53.516  13.417  0.00  0.00    -0.572 OA
ATOM    144  O2  IDS d 304     -21.793  52.925  15.001  0.00  0.00    -0.244 OA
ATOM    145  O3  IDS d 304     -23.062  50.637  17.431  0.00  0.00    -0.390 OA
ATOM    146  C5  IDS d 304     -20.828  49.525  15.653  0.00  0.00     0.152 C 
ATOM    147  O5  IDS d 304     -21.075  50.113  14.425  0.00  0.00    -0.340 OA
ATOM    148  O3S IDS d 304     -21.165  54.006  13.051  0.00  0.00    -0.572 OA
ATOM    149  O4  IDS d 304     -19.736  51.474  16.528  0.00  0.00    -0.348 OA
ATOM    150  C3  IDS d 304     -22.064  51.408  16.803  0.00  0.00     0.094 C 
ATOM    151  C2  IDS d 304     -22.531  51.799  15.385  0.00  0.00     0.134 C 
ATOM    152  C1  IDS d 304     -22.354  50.715  14.321  0.00  0.00     0.161 C 
ATOM    153  O2S IDS d 304     -22.376  55.219  14.670  0.00  0.00    -0.572 OA
ATOM    154  O61 IDS d 304     -18.741  48.821  14.732  0.00  0.00    -0.646 OA
ATOM    155  C4  IDS d 304     -20.789  50.593  16.754  0.00  0.00     0.103 C 
ATOM    156  C6  IDS d 304     -19.596  48.640  15.558  0.00  0.00     0.206 C 
ATOM    157  H   IDS d 304     -23.887  51.146  17.470  0.00  0.00     0.210 HD
ATOM    158  H   IDS d 304     -21.627  48.871  15.935  0.00  0.00     0.104 H 
ATOM    159  H   IDS d 304     -21.882  52.310  17.350  0.00  0.00     0.091 H 
ATOM    160  H   IDS d 304     -23.584  51.976  15.441  0.00  0.00     0.097 H 
ATOM    161  H   IDS d 304     -22.413  51.160  13.349  0.00  0.00     0.133 H 
ATOM    162  H   IDS d 304     -20.666  50.073  17.682  0.00  0.00     0.092 H 
ENDROOT
TORSDOF 51
ENDMDL
MODEL 12
REMARK VINA RESULT:     -10.4      3.434      4.765
REMARK  0 active torsions:
REMARK  status: ('A' for Active; 'I' for Inactive)
REMARK       I    between atoms: N_2  and  C2_29 
REMARK       I    between atoms: N_2  and  S1_49 
REMARK       I    between atoms: S_3  and  O2_103 
REMARK       I    between atoms: C5_6  and  C6_92 
REMARK       I    between atoms: C4_8  and  O4_100 
REMARK       I    between atoms: C2_9  and  O2_103 
REMARK       I    between atoms: O1S_10  and  S1_36 
REMARK       I    between atoms: O2S_11  and  S1_93 
REMARK       I    between atoms: C3_12  and  O3_54 
REMARK       I    between atoms: O4_13  and  C4_20 
REMARK       I    between atoms: O4_13  and  C1_26 
REMARK       I    between atoms: O6_15  and  C6_46 
REMARK       I    between atoms: O6_15  and  S2_104 
REMARK       I    between atoms: C5_16  and  C6_46 
REMARK       I    between atoms: C4_17  and  O4_90 
REMARK       I    between atoms: S_18  and  O2_62 
REMARK       I    between atoms: C3_19  and  O3_68 
REMARK       I    between atoms: S2_25  and  O6_53 
REMARK       I    between atoms: O4_27  and  C4_69 
REMARK       I    between atoms: O4_27  and  C1_89 
REMARK       I    between atoms: O3_28  and  C3_37 
REMARK       I    between atoms: C1_30  and  O4_73 
REMARK       I    between atoms: O2S_32  and  S1_49 
REMARK       I    between atoms: S_33  and  O2_48 
REMARK       I    between atoms: C6_34  and  C5_43 
REMARK       I    between atoms: C6_34  and  O6_60 
REMARK       I    between atoms: S1_36  and  N_85 
REMARK       I    between atoms: S1_36  and  O2S_63 
REMARK       I    between atoms: S1_36  and  O3S_74 
REMARK       I    between atoms: C6_40  and  C5_94 
REMARK       I    between atoms: O3S_42  and  S1_49 
REMARK       I    between atoms: C5_44  and  C6_99 
REMARK       I    between atoms: C1_47  and  O4_106 
REMARK       I    between atoms: O2_48  and  C2_57 
REMARK       I    between atoms: S1_49  and  O1S_55 
REMARK       I    between atoms: O1S_51  and  S1_93 
REMARK       I    between atoms: C3_52  and  O3_87 
REMARK       I    between atoms: O6_53  and  C6_92 
REMARK       I    between atoms: O3S_56  and  S1_93 
REMARK       I    between atoms: O3_58  and  C3_98 
REMARK       I    between atoms: C1_59  and  O1_81 
REMARK       I    between atoms: O6_60  and  S2_65 
REMARK       I    between atoms: O2_62  and  C2_77 
REMARK       I    between atoms: O3_64  and  C3_75 
REMARK       I    between atoms: C5_67  and  C6_101 
REMARK       I    between atoms: O4_73  and  C4_96 
REMARK       I    between atoms: C2_76  and  N_85 
REMARK       I    between atoms: N_78  and  C2_91 
REMARK       I    between atoms: N_78  and  S1_93 
REMARK       I    between atoms: C1_80  and  O4_100 
REMARK       I    between atoms: C4_102  and  O4_106 
ROOT
ATOM      1  O5S SGN d 305     -16.621  46.774  14.671  0.00  0.00    -0.572 OA
ATOM      2  C5  SGN d 305     -18.108  50.997  13.725  0.00  0.00     0.091 C 
ATOM      3  O1S SGN d 305     -18.591  52.114  18.666  0.00  0.00    -0.296 OA
ATOM      4  O4  SGN d 305     -16.087  51.988  13.131  0.00  0.00    -0.348 OA
ATOM      5  C4  SGN d 305     -16.902  51.730  14.215  0.00  0.00     0.095 C 
ATOM      6  O5  SGN d 305     -18.889  50.633  14.807  0.00  0.00    -0.349 OA
ATOM      7  S2  SGN d 305     -16.727  47.482  13.417  0.00  0.00     0.251 S 
ATOM      8  O3  SGN d 305     -16.395  53.834  15.207  0.00  0.00    -0.391 OA
ATOM      9  C1  SGN d 305     -19.387  51.735  15.537  0.00  0.00     0.150 C 
ATOM     10  S1  SGN d 305     -19.031  53.425  18.321  0.00  0.00     0.156 S 
ATOM     11  C3  SGN d 305     -17.437  53.015  14.796  0.00  0.00     0.083 C 
ATOM     12  O6  SGN d 305     -17.052  48.941  13.766  0.00  0.00    -0.254 OA
ATOM     13  O2S SGN d 305     -18.285  54.413  18.983  0.00  0.00    -0.296 OA
ATOM     14  O4S SGN d 305     -15.485  47.563  12.690  0.00  0.00    -0.572 OA
ATOM     15  O3S SGN d 305     -20.430  53.552  18.476  0.00  0.00    -0.296 OA
ATOM     16  C2  SGN d 305     -18.229  52.595  15.989  0.00  0.00     0.081 C 
ATOM     17  N   SGN d 305     -18.719  53.703  16.756  0.00  0.00    -0.210 NA
ATOM     18  C6  SGN d 305     -17.819  49.756  12.960  0.00  0.00     0.067 C 
ATOM     19  O6S SGN d 305     -17.859  47.024  12.619  0.00  0.00    -0.572 OA
ATOM     20  H   SGN d 305     -18.597  51.677  13.058  0.00  0.00     0.090 H 
ATOM     21  H   SGN d 305     -17.630  52.055  18.551  0.00  0.00     0.231 HD
ATOM     22  H   SGN d 305     -16.334  51.185  14.939  0.00  0.00     0.091 H 
ATOM     23  H   SGN d 305     -15.877  54.110  14.435  0.00  0.00     0.210 HD
ATOM     24  H   SGN d 305     -19.920  51.370  16.390  0.00  0.00     0.131 H 
ATOM     25  H   SGN d 305     -18.016  53.561  14.080  0.00  0.00     0.089 H 
ATOM     26  H   SGN d 305     -17.339  54.260  18.832  0.00  0.00     0.231 HD
ATOM     27  H   SGN d 305     -20.875  52.838  17.994  0.00  0.00     0.231 HD
ATOM     28  H   SGN d 305     -17.573  52.045  16.630  0.00  0.00     0.076 H 
ATOM     29  H   SGN d 305     -18.022  54.445  16.707  0.00  0.00     0.140 HD
ATOM     30  H   SGN d 305     -17.282  49.994  12.066  0.00  0.00     0.080 H 
ATOM     31  H   SGN d 305     -18.728  49.263  12.684  0.00  0.00     0.080 H 
ATOM     32  N   SGN d 303     -26.623  51.265   9.294  0.00  0.00    -0.210 NA
ATOM     33  C4  SGN d 303     -24.963  53.455  11.920  0.00  0.00     0.095 C 
ATOM     34  C2  SGN d 303     -26.155  52.488   9.924  0.00  0.00     0.081 C 
ATOM     35  O5S SGN d 303     -23.367  57.647  10.785  0.00  0.00    -0.572 OA
ATOM     36  O2S SGN d 303     -25.999  51.233   6.915  0.00  0.00    -0.296 OA
ATOM     37  C6  SGN d 303     -25.878  55.697  12.686  0.00  0.00     0.067 C 
ATOM     38  O3S SGN d 303     -27.993  50.129   7.643  0.00  0.00    -0.296 OA
ATOM     39  C5  SGN d 303     -26.197  54.332  12.102  0.00  0.00     0.091 C 
ATOM     40  S1  SGN d 303     -27.162  51.292   7.749  0.00  0.00     0.156 S 
ATOM     41  O6S SGN d 303     -25.714  58.153  10.880  0.00  0.00    -0.572 OA
ATOM     42  O1S SGN d 303     -27.886  52.515   7.550  0.00  0.00    -0.296 OA
ATOM     43  O3  SGN d 303     -24.239  51.427  10.881  0.00  0.00    -0.391 OA
ATOM     44  O6  SGN d 303     -24.845  56.212  11.905  0.00  0.00    -0.254 OA
ATOM     45  S2  SGN d 303     -24.562  57.684  11.567  0.00  0.00     0.251 S 
ATOM     46  O5  SGN d 303     -26.847  54.562  10.858  0.00  0.00    -0.349 OA
ATOM     47  C1  SGN d 303     -27.328  53.393  10.233  0.00  0.00     0.150 C 
ATOM     48  O4S SGN d 303     -24.382  58.371  12.801  0.00  0.00    -0.572 OA
ATOM     49  C3  SGN d 303     -25.395  52.170  11.205  0.00  0.00     0.083 C 
ATOM     50  O4  SGN d 303     -24.469  53.128  13.189  0.00  0.00    -0.348 OA
ATOM     51  H   SGN d 303     -27.390  50.914   9.868  0.00  0.00     0.140 HD
ATOM     52  H   SGN d 303     -24.211  53.961  11.351  0.00  0.00     0.091 H 
ATOM     53  H   SGN d 303     -25.495  52.989   9.247  0.00  0.00     0.076 H 
ATOM     54  H   SGN d 303     -25.530  50.398   7.071  0.00  0.00     0.231 HD
ATOM     55  H   SGN d 303     -25.563  55.602  13.705  0.00  0.00     0.080 H 
ATOM     56  H   SGN d 303     -26.734  56.338  12.679  0.00  0.00     0.080 H 
ATOM     57  H   SGN d 303     -27.456  49.334   7.785  0.00  0.00     0.231 HD
ATOM     58  H   SGN d 303     -26.823  53.791  12.781  0.00  0.00     0.090 H 
ATOM     59  H   SGN d 303     -27.279  53.267   7.633  0.00  0.00     0.231 HD
ATOM     60  H   SGN d 303     -23.750  51.221  11.693  0.00  0.00     0.210 HD
ATOM     61  H   SGN d 303     -27.829  53.681   9.332  0.00  0.00     0.131 H 
ATOM     62  H   SGN d 303     -26.040  51.612  11.851  0.00  0.00     0.089 H 
ATOM     63  S   IDS d 302     -29.596  48.761  11.103  0.00  0.00     0.252 S 
ATOM     64  O2S IDS d 302     -28.213  48.437  11.011  0.00  0.00    -0.572 OA
ATOM     65  O62 IDS d 302     -29.163  55.877  12.281  0.00  0.00    -0.646 OA
ATOM     66  C2  IDS d 302     -30.767  51.046  11.478  0.00  0.00     0.134 C 
ATOM     67  O5  IDS d 302     -29.967  52.498  13.200  0.00  0.00    -0.340 OA
ATOM     68  O1S IDS d 302     -30.306  48.615   9.876  0.00  0.00    -0.572 OA
ATOM     69  O4  IDS d 302     -28.283  52.707  11.018  0.00  0.00    -0.348 OA
ATOM     70  O3S IDS d 302     -30.235  48.107  12.186  0.00  0.00    -0.572 OA
ATOM     71  C5  IDS d 302     -30.010  53.630  12.348  0.00  0.00     0.152 C 
ATOM     72  C1  IDS d 302     -30.934  51.509  12.894  0.00  0.00     0.161 C 
ATOM     73  C3  IDS d 302     -30.573  52.185  10.477  0.00  0.00     0.094 C 
ATOM     74  C4  IDS d 302     -29.591  53.230  10.969  0.00  0.00     0.103 C 
ATOM     75  O3  IDS d 302     -31.812  52.817  10.294  0.00  0.00    -0.390 OA
ATOM     76  O61 IDS d 302     -28.645  54.731  13.992  0.00  0.00    -0.646 OA
ATOM     77  C6  IDS d 302     -29.225  54.813  12.910  0.00  0.00     0.206 C 
ATOM     78  O2  IDS d 302     -29.652  50.258  11.414  0.00  0.00    -0.244 OA
ATOM     79  H   IDS d 302     -31.666  50.529  11.214  0.00  0.00     0.097 H 
ATOM     80  H   IDS d 302     -31.017  53.986  12.290  0.00  0.00     0.104 H 
ATOM     81  H   IDS d 302     -30.777  50.691  13.564  0.00  0.00     0.133 H 
ATOM     82  H   IDS d 302     -30.187  51.764   9.573  0.00  0.00     0.091 H 
ATOM     83  H   IDS d 302     -29.591  54.067  10.301  0.00  0.00     0.092 H 
ATOM     84  H   IDS d 302     -32.118  53.181  11.139  0.00  0.00     0.210 HD
ATOM     85  O5  IDS d 306     -13.938  51.246  13.593  0.00  0.00    -0.340 OA
ATOM     86  C4  IDS d 306     -12.960  52.753  11.973  0.00  0.00     0.097 C 
ATOM     87  C3  IDS d 306     -13.945  52.187  10.886  0.00  0.00     0.094 C 
ATOM     88  C1  IDS d 306     -15.120  51.000  12.869  0.00  0.00     0.161 C 
ATOM     89  S   IDS d 306     -13.884  49.411   9.579  0.00  0.00     0.252 S 
ATOM     90  O3S IDS d 306     -13.943  47.964   9.587  0.00  0.00    -0.572 OA
ATOM     91  C6  IDS d 306     -12.528  52.939  14.549  0.00  0.00     0.206 C 
ATOM     92  O61 IDS d 306     -12.662  52.443  15.664  0.00  0.00    -0.646 OA
ATOM     93  O2  IDS d 306     -14.156  49.850  11.035  0.00  0.00    -0.244 OA
ATOM     94  C2  IDS d 306     -14.824  51.014  11.386  0.00  0.00     0.134 C 
ATOM     95  O62 IDS d 306     -11.628  53.754  14.378  0.00  0.00    -0.646 OA
ATOM     96  O3  IDS d 306     -14.825  53.203  10.424  0.00  0.00    -0.390 OA
ATOM     97  O2S IDS d 306     -12.572  49.925   9.235  0.00  0.00    -0.572 OA
ATOM     98  O4  IDS d 306     -11.741  52.039  11.854  0.00  0.00    -0.390 OA
ATOM     99  C5  IDS d 306     -13.483  52.560  13.415  0.00  0.00     0.152 C 
ATOM    100  O1S IDS d 306     -14.950  50.046   8.822  0.00  0.00    -0.572 OA
ATOM    101  H   IDS d 306     -12.849  53.804  11.806  0.00  0.00     0.091 H 
ATOM    102  H   IDS d 306     -13.309  51.827  10.104  0.00  0.00     0.091 H 
ATOM    103  H   IDS d 306     -15.496  50.044  13.171  0.00  0.00     0.133 H 
ATOM    104  H   IDS d 306     -15.786  51.117  10.929  0.00  0.00     0.097 H 
ATOM    105  H   IDS d 306     -15.384  53.504  11.157  0.00  0.00     0.210 HD
ATOM    106  H   IDS d 306     -11.902  51.096  12.015  0.00  0.00     0.210 HD
ATOM    107  H   IDS d 306     -14.282  53.268  13.497  0.00  0.00     0.104 H 
ATOM    108  O2S SGN d 301     -32.273  56.307  18.343  0.00  0.00    -0.296 OA
ATOM    109  C3  SGN d 301     -32.965  53.557  14.778  0.00  0.00     0.083 C 
ATOM    110  O6S SGN d 301     -33.666  47.046  16.156  0.00  0.00    -0.572 OA
ATOM    111  O6  SGN d 301     -32.953  49.205  15.369  0.00  0.00    -0.254 OA
ATOM    112  C5  SGN d 301     -33.938  51.265  14.647  0.00  0.00     0.091 C 
ATOM    113  O5  SGN d 301     -34.435  51.425  15.978  0.00  0.00    -0.350 OA
ATOM    114  O5S SGN d 301     -31.319  47.634  16.222  0.00  0.00    -0.572 OA
ATOM    115  C6  SGN d 301     -33.827  49.759  14.416  0.00  0.00     0.067 C 
ATOM    116  O1S SGN d 301     -32.708  54.017  18.904  0.00  0.00    -0.296 OA
ATOM    117  O3  SGN d 301     -31.817  54.349  14.625  0.00  0.00    -0.391 OA
ATOM    118  O3S SGN d 301     -34.484  55.612  18.990  0.00  0.00    -0.296 OA
ATOM    119  C1  SGN d 301     -34.691  52.772  16.333  0.00  0.00     0.147 C 
ATOM    120  N   SGN d 301     -33.628  54.948  16.762  0.00  0.00    -0.210 NA
ATOM    121  O1  SGN d 301     -35.684  53.340  15.445  0.00  0.00    -0.369 OA
ATOM    122  O4S SGN d 301     -32.404  47.220  14.112  0.00  0.00    -0.572 OA
ATOM    123  C2  SGN d 301     -33.413  53.590  16.241  0.00  0.00     0.081 C 
ATOM    124  S1  SGN d 301     -33.246  55.242  18.348  0.00  0.00     0.156 S 
ATOM    125  C4  SGN d 301     -32.630  52.081  14.434  0.00  0.00     0.095 C 
ATOM    126  S2  SGN d 301     -32.559  47.685  15.476  0.00  0.00     0.251 S 
ATOM    127  O4  SGN d 301     -32.234  51.974  13.085  0.00  0.00    -0.348 OA
ATOM    128  H   SGN d 301     -32.018  56.515  19.256  0.00  0.00     0.231 HD
ATOM    129  H   SGN d 301     -33.730  53.934  14.133  0.00  0.00     0.089 H 
ATOM    130  H   SGN d 301     -34.591  51.669  13.903  0.00  0.00     0.090 H 
ATOM    131  H   SGN d 301     -34.794  49.311  14.515  0.00  0.00     0.080 H 
ATOM    132  H   SGN d 301     -33.449  49.574  13.432  0.00  0.00     0.080 H 
ATOM    133  H   SGN d 301     -32.475  54.159  19.834  0.00  0.00     0.231 HD
ATOM    134  H   SGN d 301     -31.115  54.016  15.205  0.00  0.00     0.210 HD
ATOM    135  H   SGN d 301     -34.319  55.797  19.928  0.00  0.00     0.231 HD
ATOM    136  H   SGN d 301     -35.057  52.795  17.338  0.00  0.00     0.131 H 
ATOM    137  H   SGN d 301     -34.617  55.166  16.643  0.00  0.00     0.140 HD
ATOM    138  H   SGN d 301     -35.353  53.319  14.534  0.00  0.00     0.212 HD
ATOM    139  H   SGN d 301     -32.633  53.180  16.849  0.00  0.00     0.076 H 
ATOM    140  H   SGN d 301     -31.833  51.720  15.050  0.00  0.00     0.091 H 
ATOM    141  S   IDS d 304     -22.558  56.038  15.851  0.00  0.00     0.252 S 
ATOM    142  O62 IDS d 304     -20.781  50.392  11.694  0.00  0.00    -0.646 OA
ATOM    143  O1S IDS d 304     -23.915  56.203  15.480  0.00  0.00    -0.572 OA
ATOM    144  O2  IDS d 304     -22.203  54.583  15.527  0.00  0.00    -0.244 OA
ATOM    145  O3  IDS d 304     -23.523  51.265  15.520  0.00  0.00    -0.390 OA
ATOM    146  C5  IDS d 304     -21.873  52.004  13.045  0.00  0.00     0.152 C 
ATOM    147  O5  IDS d 304     -22.182  53.337  12.843  0.00  0.00    -0.340 OA
ATOM    148  O3S IDS d 304     -21.677  56.788  15.054  0.00  0.00    -0.572 OA
ATOM    149  O4  IDS d 304     -20.279  52.486  14.771  0.00  0.00    -0.348 OA
ATOM    150  C3  IDS d 304     -22.498  52.231  15.486  0.00  0.00     0.094 C 
ATOM    151  C2  IDS d 304     -23.089  53.597  15.078  0.00  0.00     0.134 C 
ATOM    152  C1  IDS d 304     -23.308  53.787  13.576  0.00  0.00     0.161 C 
ATOM    153  O2S IDS d 304     -22.342  56.236  17.247  0.00  0.00    -0.572 OA
ATOM    154  O61 IDS d 304     -20.147  52.308  11.425  0.00  0.00    -0.646 OA
ATOM    155  C4  IDS d 304     -21.442  51.774  14.500  0.00  0.00     0.103 C 
ATOM    156  C6  IDS d 304     -20.882  51.542  11.990  0.00  0.00     0.206 C 
ATOM    157  H   IDS d 304     -24.208  51.543  16.147  0.00  0.00     0.210 HD
ATOM    158  H   IDS d 304     -22.736  51.384  12.914  0.00  0.00     0.104 H 
ATOM    159  H   IDS d 304     -22.050  52.341  16.451  0.00  0.00     0.091 H 
ATOM    160  H   IDS d 304     -24.061  53.659  15.520  0.00  0.00     0.097 H 
ATOM    161  H   IDS d 304     -23.425  54.829  13.365  0.00  0.00     0.133 H 
ATOM    162  H   IDS d 304     -21.287  50.721  14.611  0.00  0.00     0.092 H 
ENDROOT
TORSDOF 51
ENDMDL
MODEL 13
REMARK VINA RESULT:     -10.2      4.900      8.506
REMARK  0 active torsions:
REMARK  status: ('A' for Active; 'I' for Inactive)
REMARK       I    between atoms: N_2  and  C2_29 
REMARK       I    between atoms: N_2  and  S1_49 
REMARK       I    between atoms: S_3  and  O2_103 
REMARK       I    between atoms: C5_6  and  C6_92 
REMARK       I    between atoms: C4_8  and  O4_100 
REMARK       I    between atoms: C2_9  and  O2_103 
REMARK       I    between atoms: O1S_10  and  S1_36 
REMARK       I    between atoms: O2S_11  and  S1_93 
REMARK       I    between atoms: C3_12  and  O3_54 
REMARK       I    between atoms: O4_13  and  C4_20 
REMARK       I    between atoms: O4_13  and  C1_26 
REMARK       I    between atoms: O6_15  and  C6_46 
REMARK       I    between atoms: O6_15  and  S2_104 
REMARK       I    between atoms: C5_16  and  C6_46 
REMARK       I    between atoms: C4_17  and  O4_90 
REMARK       I    between atoms: S_18  and  O2_62 
REMARK       I    between atoms: C3_19  and  O3_68 
REMARK       I    between atoms: S2_25  and  O6_53 
REMARK       I    between atoms: O4_27  and  C4_69 
REMARK       I    between atoms: O4_27  and  C1_89 
REMARK       I    between atoms: O3_28  and  C3_37 
REMARK       I    between atoms: C1_30  and  O4_73 
REMARK       I    between atoms: O2S_32  and  S1_49 
REMARK       I    between atoms: S_33  and  O2_48 
REMARK       I    between atoms: C6_34  and  C5_43 
REMARK       I    between atoms: C6_34  and  O6_60 
REMARK       I    between atoms: S1_36  and  N_85 
REMARK       I    between atoms: S1_36  and  O2S_63 
REMARK       I    between atoms: S1_36  and  O3S_74 
REMARK       I    between atoms: C6_40  and  C5_94 
REMARK       I    between atoms: O3S_42  and  S1_49 
REMARK       I    between atoms: C5_44  and  C6_99 
REMARK       I    between atoms: C1_47  and  O4_106 
REMARK       I    between atoms: O2_48  and  C2_57 
REMARK       I    between atoms: S1_49  and  O1S_55 
REMARK       I    between atoms: O1S_51  and  S1_93 
REMARK       I    between atoms: C3_52  and  O3_87 
REMARK       I    between atoms: O6_53  and  C6_92 
REMARK       I    between atoms: O3S_56  and  S1_93 
REMARK       I    between atoms: O3_58  and  C3_98 
REMARK       I    between atoms: C1_59  and  O1_81 
REMARK       I    between atoms: O6_60  and  S2_65 
REMARK       I    between atoms: O2_62  and  C2_77 
REMARK       I    between atoms: O3_64  and  C3_75 
REMARK       I    between atoms: C5_67  and  C6_101 
REMARK       I    between atoms: O4_73  and  C4_96 
REMARK       I    between atoms: C2_76  and  N_85 
REMARK       I    between atoms: N_78  and  C2_91 
REMARK       I    between atoms: N_78  and  S1_93 
REMARK       I    between atoms: C1_80  and  O4_100 
REMARK       I    between atoms: C4_102  and  O4_106 
ROOT
ATOM      1  O5S SGN d 305     -16.283  46.783  15.654  0.00  0.00    -0.572 OA
ATOM      2  C5  SGN d 305     -18.905  48.735  12.452  0.00  0.00     0.091 C 
ATOM      3  O1S SGN d 305     -19.014  53.143  14.993  0.00  0.00    -0.296 OA
ATOM      4  O4  SGN d 305     -17.296  49.087  10.807  0.00  0.00    -0.348 OA
ATOM      5  C4  SGN d 305     -17.872  49.673  11.916  0.00  0.00     0.095 C 
ATOM      6  O5  SGN d 305     -19.421  49.251  13.627  0.00  0.00    -0.349 OA
ATOM      7  S2  SGN d 305     -16.727  46.298  14.368  0.00  0.00     0.251 S 
ATOM      8  O3  SGN d 305     -17.793  51.835  10.925  0.00  0.00    -0.391 OA
ATOM      9  C1  SGN d 305     -20.084  50.486  13.455  0.00  0.00     0.150 C 
ATOM     10  S1  SGN d 305     -19.814  53.713  13.959  0.00  0.00     0.156 S 
ATOM     11  C3  SGN d 305     -18.636  50.913  11.528  0.00  0.00     0.083 C 
ATOM     12  O6  SGN d 305     -17.364  47.494  13.649  0.00  0.00    -0.254 OA
ATOM     13  O2S SGN d 305     -19.265  54.913  13.481  0.00  0.00    -0.296 OA
ATOM     14  O4S SGN d 305     -15.650  45.896  13.498  0.00  0.00    -0.572 OA
ATOM     15  O3S SGN d 305     -21.168  53.810  14.355  0.00  0.00    -0.296 OA
ATOM     16  C2  SGN d 305     -19.135  51.476  12.817  0.00  0.00     0.081 C 
ATOM     17  N   SGN d 305     -19.788  52.742  12.662  0.00  0.00    -0.210 NA
ATOM     18  C6  SGN d 305     -18.411  47.367  12.759  0.00  0.00     0.067 C 
ATOM     19  O6S SGN d 305     -17.798  45.315  14.489  0.00  0.00    -0.572 OA
ATOM     20  H   SGN d 305     -19.632  48.645  11.672  0.00  0.00     0.090 H 
ATOM     21  H   SGN d 305     -18.093  53.088  14.695  0.00  0.00     0.231 HD
ATOM     22  H   SGN d 305     -17.095  49.900  12.616  0.00  0.00     0.091 H 
ATOM     23  H   SGN d 305     -17.466  51.475  10.086  0.00  0.00     0.210 HD
ATOM     24  H   SGN d 305     -20.392  50.848  14.413  0.00  0.00     0.131 H 
ATOM     25  H   SGN d 305     -19.422  50.691  10.836  0.00  0.00     0.089 H 
ATOM     26  H   SGN d 305     -18.339  54.768  13.231  0.00  0.00     0.231 HD
ATOM     27  H   SGN d 305     -21.474  52.946  14.672  0.00  0.00     0.231 HD
ATOM     28  H   SGN d 305     -18.284  51.643  13.443  0.00  0.00     0.076 H 
ATOM     29  H   SGN d 305     -19.314  53.243  11.911  0.00  0.00     0.140 HD
ATOM     30  H   SGN d 305     -18.072  46.891  11.862  0.00  0.00     0.080 H 
ATOM     31  H   SGN d 305     -19.192  46.770  13.180  0.00  0.00     0.080 H 
ATOM     32  N   SGN d 303     -27.705  44.961  11.739  0.00  0.00    -0.210 NA
ATOM     33  C4  SGN d 303     -26.333  48.491  11.427  0.00  0.00     0.095 C 
ATOM     34  C2  SGN d 303     -27.487  46.271  11.149  0.00  0.00     0.081 C 
ATOM     35  O5S SGN d 303     -26.016  50.508   7.274  0.00  0.00    -0.572 OA
ATOM     36  O2S SGN d 303     -27.406  43.200  10.048  0.00  0.00    -0.296 OA
ATOM     37  C6  SGN d 303     -27.681  50.471  10.583  0.00  0.00     0.067 C 
ATOM     38  O3S SGN d 303     -28.942  42.875  11.853  0.00  0.00    -0.296 OA
ATOM     39  C5  SGN d 303     -27.715  49.114  11.262  0.00  0.00     0.091 C 
ATOM     40  S1  SGN d 303     -28.428  43.779  10.868  0.00  0.00     0.156 S 
ATOM     41  O6S SGN d 303     -28.382  50.739   7.623  0.00  0.00    -0.572 OA
ATOM     42  O1S SGN d 303     -29.459  44.379  10.069  0.00  0.00    -0.296 OA
ATOM     43  O3  SGN d 303     -25.257  46.434  11.994  0.00  0.00    -0.391 OA
ATOM     44  O6  SGN d 303     -26.922  50.299   9.426  0.00  0.00    -0.254 OA
ATOM     45  S2  SGN d 303     -27.070  51.032   8.084  0.00  0.00     0.251 S 
ATOM     46  O5  SGN d 303     -28.557  48.283  10.472  0.00  0.00    -0.349 OA
ATOM     47  C1  SGN d 303     -28.802  47.011  11.030  0.00  0.00     0.150 C 
ATOM     48  O4S SGN d 303     -26.913  52.422   8.346  0.00  0.00    -0.572 OA
ATOM     49  C3  SGN d 303     -26.513  47.079  11.995  0.00  0.00     0.083 C 
ATOM     50  O4  SGN d 303     -25.613  49.266  12.345  0.00  0.00    -0.348 OA
ATOM     51  H   SGN d 303     -28.278  45.105  12.571  0.00  0.00     0.140 HD
ATOM     52  H   SGN d 303     -25.814  48.451  10.491  0.00  0.00     0.091 H 
ATOM     53  H   SGN d 303     -27.068  46.140  10.173  0.00  0.00     0.076 H 
ATOM     54  H   SGN d 303     -26.724  42.803  10.613  0.00  0.00     0.231 HD
ATOM     55  H   SGN d 303     -27.224  51.197  11.224  0.00  0.00     0.080 H 
ATOM     56  H   SGN d 303     -28.665  50.825  10.359  0.00  0.00     0.080 H 
ATOM     57  H   SGN d 303     -28.207  42.499  12.362  0.00  0.00     0.231 HD
ATOM     58  H   SGN d 303     -28.090  49.223  12.258  0.00  0.00     0.090 H 
ATOM     59  H   SGN d 303     -29.058  44.980   9.422  0.00  0.00     0.231 HD
ATOM     60  H   SGN d 303     -24.631  46.943  12.532  0.00  0.00     0.210 HD
ATOM     61  H   SGN d 303     -29.471  46.487  10.379  0.00  0.00     0.131 H 
ATOM     62  H   SGN d 303     -26.905  47.151  12.988  0.00  0.00     0.089 H 
ATOM     63  S   IDS d 302     -29.685  44.458  15.508  0.00  0.00     0.252 S 
ATOM     64  O2S IDS d 302     -28.289  44.277  15.298  0.00  0.00    -0.572 OA
ATOM     65  O62 IDS d 302     -30.928  50.045  11.098  0.00  0.00    -0.646 OA
ATOM     66  C2  IDS d 302     -31.340  46.153  14.451  0.00  0.00     0.134 C 
ATOM     67  O5  IDS d 302     -30.720  48.459  14.315  0.00  0.00    -0.340 OA
ATOM     68  O1S IDS d 302     -30.486  43.389  15.013  0.00  0.00    -0.572 OA
ATOM     69  O4  IDS d 302     -29.441  47.080  12.289  0.00  0.00    -0.348 OA
ATOM     70  O3S IDS d 302     -29.992  44.795  16.851  0.00  0.00    -0.572 OA
ATOM     71  C5  IDS d 302     -31.159  48.559  12.971  0.00  0.00     0.152 C 
ATOM     72  C1  IDS d 302     -31.435  47.509  15.085  0.00  0.00     0.161 C 
ATOM     73  C3  IDS d 302     -31.573  46.164  12.941  0.00  0.00     0.094 C 
ATOM     74  C4  IDS d 302     -30.834  47.291  12.246  0.00  0.00     0.103 C 
ATOM     75  O3  IDS d 302     -32.945  46.351  12.714  0.00  0.00    -0.390 OA
ATOM     76  O61 IDS d 302     -29.919  50.615  12.878  0.00  0.00    -0.646 OA
ATOM     77  C6  IDS d 302     -30.635  49.814  12.279  0.00  0.00     0.206 C 
ATOM     78  O2  IDS d 302     -30.079  45.670  14.662  0.00  0.00    -0.244 OA
ATOM     79  H   IDS d 302     -32.104  45.550  14.895  0.00  0.00     0.097 H 
ATOM     80  H   IDS d 302     -32.223  48.675  12.958  0.00  0.00     0.104 H 
ATOM     81  H   IDS d 302     -30.990  47.486  16.058  0.00  0.00     0.133 H 
ATOM     82  H   IDS d 302     -31.212  45.237  12.547  0.00  0.00     0.091 H 
ATOM     83  H   IDS d 302     -31.133  47.339  11.219  0.00  0.00     0.092 H 
ATOM     84  H   IDS d 302     -33.222  47.202  13.088  0.00  0.00     0.210 HD
ATOM     85  O5  IDS d 306     -14.988  49.104  11.040  0.00  0.00    -0.340 OA
ATOM     86  C4  IDS d 306     -14.643  48.949   8.651  0.00  0.00     0.097 C 
ATOM     87  C3  IDS d 306     -15.584  47.689   8.620  0.00  0.00     0.094 C 
ATOM     88  C1  IDS d 306     -16.152  48.313  11.072  0.00  0.00     0.161 C 
ATOM     89  S   IDS d 306     -14.987  44.890   9.729  0.00  0.00     0.252 S 
ATOM     90  O3S IDS d 306     -14.674  43.942  10.778  0.00  0.00    -0.572 OA
ATOM     91  C6  IDS d 306     -13.944  51.037  10.069  0.00  0.00     0.206 C 
ATOM     92  O61 IDS d 306     -13.803  51.539  11.180  0.00  0.00    -0.646 OA
ATOM     93  O2  IDS d 306     -15.172  46.251  10.435  0.00  0.00    -0.244 OA
ATOM     94  C2  IDS d 306     -16.062  47.230  10.019  0.00  0.00     0.134 C 
ATOM     95  O62 IDS d 306     -13.311  51.510   9.132  0.00  0.00    -0.646 OA
ATOM     96  O3  IDS d 306     -16.745  47.945   7.842  0.00  0.00    -0.390 OA
ATOM     97  O2S IDS d 306     -13.905  45.066   8.779  0.00  0.00    -0.572 OA
ATOM     98  O4  IDS d 306     -13.308  48.480   8.746  0.00  0.00    -0.390 OA
ATOM     99  C5  IDS d 306     -14.910  49.867   9.866  0.00  0.00     0.152 C 
ATOM    100  O1S IDS d 306     -16.268  44.660   9.081  0.00  0.00    -0.572 OA
ATOM    101  H   IDS d 306     -14.826  49.522   7.766  0.00  0.00     0.091 H 
ATOM    102  H   IDS d 306     -14.983  46.913   8.194  0.00  0.00     0.091 H 
ATOM    103  H   IDS d 306     -16.230  47.885  12.050  0.00  0.00     0.133 H 
ATOM    104  H   IDS d 306     -17.070  46.884   9.916  0.00  0.00     0.097 H 
ATOM    105  H   IDS d 306     -17.263  48.652   8.257  0.00  0.00     0.210 HD
ATOM    106  H   IDS d 306     -13.202  47.970   9.564  0.00  0.00     0.210 HD
ATOM    107  H   IDS d 306     -15.845  50.334   9.637  0.00  0.00     0.104 H 
ATOM    108  O2S SGN d 301     -33.236  54.651  15.577  0.00  0.00    -0.296 OA
ATOM    109  C3  SGN d 301     -33.659  50.119  15.411  0.00  0.00     0.083 C 
ATOM    110  O6S SGN d 301     -32.498  46.828  21.121  0.00  0.00    -0.572 OA
ATOM    111  O6  SGN d 301     -32.465  47.706  18.881  0.00  0.00    -0.254 OA
ATOM    112  C5  SGN d 301     -34.026  48.445  17.223  0.00  0.00     0.091 C 
ATOM    113  O5  SGN d 301     -34.371  49.512  18.108  0.00  0.00    -0.350 OA
ATOM    114  O5S SGN d 301     -30.390  47.435  20.100  0.00  0.00    -0.572 OA
ATOM    115  C6  SGN d 301     -33.567  47.291  18.112  0.00  0.00     0.067 C 
ATOM    116  O1S SGN d 301     -32.998  53.537  17.686  0.00  0.00    -0.296 OA
ATOM    117  O3  SGN d 301     -32.781  50.608  14.433  0.00  0.00    -0.391 OA
ATOM    118  O3S SGN d 301     -35.096  54.519  17.099  0.00  0.00    -0.296 OA
ATOM    119  C1  SGN d 301     -34.914  50.645  17.452  0.00  0.00     0.147 C 
ATOM    120  N   SGN d 301     -34.393  52.473  15.891  0.00  0.00    -0.210 NA
ATOM    121  O1  SGN d 301     -36.125  50.278  16.747  0.00  0.00    -0.369 OA
ATOM    122  O4S SGN d 301     -31.596  45.500  19.326  0.00  0.00    -0.572 OA
ATOM    123  C2  SGN d 301     -33.909  51.206  16.459  0.00  0.00     0.081 C 
ATOM    124  S1  SGN d 301     -33.897  53.884  16.605  0.00  0.00     0.156 S 
ATOM    125  C4  SGN d 301     -33.008  48.916  16.145  0.00  0.00     0.095 C 
ATOM    126  S2  SGN d 301     -31.688  46.818  19.922  0.00  0.00     0.251 S 
ATOM    127  O4  SGN d 301     -32.775  47.862  15.238  0.00  0.00    -0.348 OA
ATOM    128  H   SGN d 301     -32.927  55.492  15.950  0.00  0.00     0.231 HD
ATOM    129  H   SGN d 301     -34.572  49.826  14.936  0.00  0.00     0.089 H 
ATOM    130  H   SGN d 301     -34.851  48.104  16.633  0.00  0.00     0.090 H 
ATOM    131  H   SGN d 301     -34.367  47.000  18.761  0.00  0.00     0.080 H 
ATOM    132  H   SGN d 301     -33.284  46.458  17.502  0.00  0.00     0.080 H 
ATOM    133  H   SGN d 301     -32.692  54.347  18.124  0.00  0.00     0.231 HD
ATOM    134  H   SGN d 301     -31.948  50.876  14.852  0.00  0.00     0.210 HD
ATOM    135  H   SGN d 301     -34.864  55.357  17.530  0.00  0.00     0.231 HD
ATOM    136  H   SGN d 301     -35.141  51.387  18.188  0.00  0.00     0.131 H 
ATOM    137  H   SGN d 301     -35.412  52.454  15.932  0.00  0.00     0.140 HD
ATOM    138  H   SGN d 301     -35.920  49.605  16.080  0.00  0.00     0.212 HD
ATOM    139  H   SGN d 301     -32.979  51.451  16.929  0.00  0.00     0.076 H 
ATOM    140  H   SGN d 301     -32.072  49.200  16.580  0.00  0.00     0.091 H 
ATOM    141  S   IDS d 304     -24.177  53.315  11.476  0.00  0.00     0.252 S 
ATOM    142  O62 IDS d 304     -21.575  46.617  12.303  0.00  0.00    -0.646 OA
ATOM    143  O1S IDS d 304     -25.569  53.045  11.492  0.00  0.00    -0.572 OA
ATOM    144  O2  IDS d 304     -23.509  52.142  12.202  0.00  0.00    -0.244 OA
ATOM    145  O3  IDS d 304     -23.931  49.862  14.918  0.00  0.00    -0.390 OA
ATOM    146  C5  IDS d 304     -22.857  48.610  12.335  0.00  0.00     0.152 C 
ATOM    147  O5  IDS d 304     -23.518  49.311  11.342  0.00  0.00    -0.340 OA
ATOM    148  O3S IDS d 304     -23.627  53.273  10.184  0.00  0.00    -0.572 OA
ATOM    149  O4  IDS d 304     -21.229  50.339  12.671  0.00  0.00    -0.348 OA
ATOM    150  C3  IDS d 304     -23.199  50.545  13.927  0.00  0.00     0.094 C 
ATOM    151  C2  IDS d 304     -24.165  51.092  12.855  0.00  0.00     0.134 C 
ATOM    152  C1  IDS d 304     -24.618  50.074  11.808  0.00  0.00     0.161 C 
ATOM    153  O2S IDS d 304     -23.841  54.509  12.180  0.00  0.00    -0.572 OA
ATOM    154  O61 IDS d 304     -21.489  47.719  10.594  0.00  0.00    -0.646 OA
ATOM    155  C4  IDS d 304     -22.198  49.583  13.321  0.00  0.00     0.103 C 
ATOM    156  C6  IDS d 304     -21.925  47.587  11.706  0.00  0.00     0.206 C 
ATOM    157  H   IDS d 304     -24.578  50.466  15.315  0.00  0.00     0.210 HD
ATOM    158  H   IDS d 304     -23.543  48.042  12.928  0.00  0.00     0.104 H 
ATOM    159  H   IDS d 304     -22.673  51.376  14.350  0.00  0.00     0.091 H 
ATOM    160  H   IDS d 304     -25.056  51.394  13.365  0.00  0.00     0.097 H 
ATOM    161  H   IDS d 304     -25.022  50.591  10.963  0.00  0.00     0.133 H 
ATOM    162  H   IDS d 304     -21.767  48.986  14.099  0.00  0.00     0.092 H 
ENDROOT
TORSDOF 51
ENDMDL
MODEL 14
REMARK VINA RESULT:     -10.1      2.873     14.921
REMARK  0 active torsions:
REMARK  status: ('A' for Active; 'I' for Inactive)
REMARK       I    between atoms: N_2  and  C2_29 
REMARK       I    between atoms: N_2  and  S1_49 
REMARK       I    between atoms: S_3  and  O2_103 
REMARK       I    between atoms: C5_6  and  C6_92 
REMARK       I    between atoms: C4_8  and  O4_100 
REMARK       I    between atoms: C2_9  and  O2_103 
REMARK       I    between atoms: O1S_10  and  S1_36 
REMARK       I    between atoms: O2S_11  and  S1_93 
REMARK       I    between atoms: C3_12  and  O3_54 
REMARK       I    between atoms: O4_13  and  C4_20 
REMARK       I    between atoms: O4_13  and  C1_26 
REMARK       I    between atoms: O6_15  and  C6_46 
REMARK       I    between atoms: O6_15  and  S2_104 
REMARK       I    between atoms: C5_16  and  C6_46 
REMARK       I    between atoms: C4_17  and  O4_90 
REMARK       I    between atoms: S_18  and  O2_62 
REMARK       I    between atoms: C3_19  and  O3_68 
REMARK       I    between atoms: S2_25  and  O6_53 
REMARK       I    between atoms: O4_27  and  C4_69 
REMARK       I    between atoms: O4_27  and  C1_89 
REMARK       I    between atoms: O3_28  and  C3_37 
REMARK       I    between atoms: C1_30  and  O4_73 
REMARK       I    between atoms: O2S_32  and  S1_49 
REMARK       I    between atoms: S_33  and  O2_48 
REMARK       I    between atoms: C6_34  and  C5_43 
REMARK       I    between atoms: C6_34  and  O6_60 
REMARK       I    between atoms: S1_36  and  N_85 
REMARK       I    between atoms: S1_36  and  O2S_63 
REMARK       I    between atoms: S1_36  and  O3S_74 
REMARK       I    between atoms: C6_40  and  C5_94 
REMARK       I    between atoms: O3S_42  and  S1_49 
REMARK       I    between atoms: C5_44  and  C6_99 
REMARK       I    between atoms: C1_47  and  O4_106 
REMARK       I    between atoms: O2_48  and  C2_57 
REMARK       I    between atoms: S1_49  and  O1S_55 
REMARK       I    between atoms: O1S_51  and  S1_93 
REMARK       I    between atoms: C3_52  and  O3_87 
REMARK       I    between atoms: O6_53  and  C6_92 
REMARK       I    between atoms: O3S_56  and  S1_93 
REMARK       I    between atoms: O3_58  and  C3_98 
REMARK       I    between atoms: C1_59  and  O1_81 
REMARK       I    between atoms: O6_60  and  S2_65 
REMARK       I    between atoms: O2_62  and  C2_77 
REMARK       I    between atoms: O3_64  and  C3_75 
REMARK       I    between atoms: C5_67  and  C6_101 
REMARK       I    between atoms: O4_73  and  C4_96 
REMARK       I    between atoms: C2_76  and  N_85 
REMARK       I    between atoms: N_78  and  C2_91 
REMARK       I    between atoms: N_78  and  S1_93 
REMARK       I    between atoms: C1_80  and  O4_100 
REMARK       I    between atoms: C4_102  and  O4_106 
ROOT
ATOM      1  O5S SGN d 305     -28.191  46.069   9.427  0.00  0.00    -0.572 OA
ATOM      2  C5  SGN d 305     -27.864  49.734  12.146  0.00  0.00     0.091 C 
ATOM      3  O1S SGN d 305     -28.165  52.909   8.181  0.00  0.00    -0.296 OA
ATOM      4  O4  SGN d 305     -30.020  49.747  13.027  0.00  0.00    -0.348 OA
ATOM      5  C4  SGN d 305     -29.267  50.219  11.970  0.00  0.00     0.095 C 
ATOM      6  O5  SGN d 305     -27.114  50.103  11.044  0.00  0.00    -0.349 OA
ATOM      7  S2  SGN d 305     -28.173  46.181  10.866  0.00  0.00     0.251 S 
ATOM      8  O3  SGN d 305     -30.430  52.296  11.954  0.00  0.00    -0.391 OA
ATOM      9  C1  SGN d 305     -27.013  51.502  10.876  0.00  0.00     0.150 C 
ATOM     10  S1  SGN d 305     -28.080  54.020   9.070  0.00  0.00     0.156 S 
ATOM     11  C3  SGN d 305     -29.168  51.723  12.016  0.00  0.00     0.083 C 
ATOM     12  O6  SGN d 305     -28.302  47.676  11.187  0.00  0.00    -0.254 OA
ATOM     13  O2S SGN d 305     -29.129  54.930   8.866  0.00  0.00    -0.296 OA
ATOM     14  O4S SGN d 305     -29.317  45.583  11.509  0.00  0.00    -0.572 OA
ATOM     15  O3S SGN d 305     -26.791  54.602   9.040  0.00  0.00    -0.296 OA
ATOM     16  C2  SGN d 305     -28.402  52.094  10.789  0.00  0.00     0.081 C 
ATOM     17  N   SGN d 305     -28.313  53.510  10.590  0.00  0.00    -0.210 NA
ATOM     18  C6  SGN d 305     -27.724  48.262  12.294  0.00  0.00     0.067 C 
ATOM     19  O6S SGN d 305     -26.891  45.782  11.435  0.00  0.00    -0.572 OA
ATOM     20  H   SGN d 305     -27.527  50.181  13.058  0.00  0.00     0.090 H 
ATOM     21  H   SGN d 305     -29.056  52.530   8.222  0.00  0.00     0.231 HD
ATOM     22  H   SGN d 305     -29.724  49.889  11.060  0.00  0.00     0.091 H 
ATOM     23  H   SGN d 305     -30.932  52.057  12.749  0.00  0.00     0.210 HD
ATOM     24  H   SGN d 305     -26.479  51.702   9.970  0.00  0.00     0.131 H 
ATOM     25  H   SGN d 305     -28.702  52.060  12.918  0.00  0.00     0.089 H 
ATOM     26  H   SGN d 305     -29.976  54.459   8.900  0.00  0.00     0.231 HD
ATOM     27  H   SGN d 305     -26.123  53.915   9.188  0.00  0.00     0.231 HD
ATOM     28  H   SGN d 305     -28.933  51.699   9.949  0.00  0.00     0.076 H 
ATOM     29  H   SGN d 305     -29.182  53.924  10.925  0.00  0.00     0.140 HD
ATOM     30  H   SGN d 305     -28.222  47.935  13.183  0.00  0.00     0.080 H 
ATOM     31  H   SGN d 305     -26.692  47.988  12.369  0.00  0.00     0.080 H 
ATOM     32  N   SGN d 303     -19.398  50.586  16.596  0.00  0.00    -0.210 NA
ATOM     33  C4  SGN d 303     -21.836  53.087  15.097  0.00  0.00     0.095 C 
ATOM     34  C2  SGN d 303     -20.244  51.765  16.533  0.00  0.00     0.081 C 
ATOM     35  O5S SGN d 303     -24.431  55.748  17.852  0.00  0.00    -0.572 OA
ATOM     36  O2S SGN d 303     -19.770  49.378  18.706  0.00  0.00    -0.296 OA
ATOM     37  C6  SGN d 303     -21.658  55.602  15.399  0.00  0.00     0.067 C 
ATOM     38  O3S SGN d 303     -17.621  49.315  17.655  0.00  0.00    -0.296 OA
ATOM     39  C5  SGN d 303     -20.918  54.277  15.356  0.00  0.00     0.091 C 
ATOM     40  S1  SGN d 303     -18.750  50.117  18.024  0.00  0.00     0.156 S 
ATOM     41  O6S SGN d 303     -22.338  56.907  18.075  0.00  0.00    -0.572 OA
ATOM     42  O1S SGN d 303     -18.382  51.296  18.756  0.00  0.00    -0.296 OA
ATOM     43  O3  SGN d 303     -21.866  50.697  15.139  0.00  0.00    -0.391 OA
ATOM     44  O6  SGN d 303     -22.719  55.416  16.285  0.00  0.00    -0.254 OA
ATOM     45  S2  SGN d 303     -23.370  56.457  17.208  0.00  0.00     0.251 S 
ATOM     46  O5  SGN d 303     -20.248  54.142  16.603  0.00  0.00    -0.349 OA
ATOM     47  C1  SGN d 303     -19.404  53.015  16.687  0.00  0.00     0.150 C 
ATOM     48  O4S SGN d 303     -23.846  57.513  16.381  0.00  0.00    -0.572 OA
ATOM     49  C3  SGN d 303     -20.998  51.808  15.210  0.00  0.00     0.083 C 
ATOM     50  O4  SGN d 303     -22.332  53.195  13.791  0.00  0.00    -0.348 OA
ATOM     51  H   SGN d 303     -18.619  50.748  15.958  0.00  0.00     0.140 HD
ATOM     52  H   SGN d 303     -22.644  53.064  15.798  0.00  0.00     0.091 H 
ATOM     53  H   SGN d 303     -20.955  51.719  17.332  0.00  0.00     0.076 H 
ATOM     54  H   SGN d 303     -19.998  48.589  18.190  0.00  0.00     0.231 HD
ATOM     55  H   SGN d 303     -22.025  55.857  14.427  0.00  0.00     0.080 H 
ATOM     56  H   SGN d 303     -21.019  56.400  15.714  0.00  0.00     0.080 H 
ATOM     57  H   SGN d 303     -17.925  48.535  17.166  0.00  0.00     0.231 HD
ATOM     58  H   SGN d 303     -20.231  54.279  14.536  0.00  0.00     0.090 H 
ATOM     59  H   SGN d 303     -19.180  51.800  18.979  0.00  0.00     0.231 HD
ATOM     60  H   SGN d 303     -22.350  50.718  14.299  0.00  0.00     0.210 HD
ATOM     61  H   SGN d 303     -18.925  53.030  17.643  0.00  0.00     0.131 H 
ATOM     62  H   SGN d 303     -20.285  51.787  14.413  0.00  0.00     0.089 H 
ATOM     63  S   IDS d 302     -16.021  50.059  14.009  0.00  0.00     0.252 S 
ATOM     64  O2S IDS d 302     -17.243  49.339  13.898  0.00  0.00    -0.572 OA
ATOM     65  O62 IDS d 302     -18.532  56.544  15.972  0.00  0.00    -0.646 OA
ATOM     66  C2  IDS d 302     -15.575  52.522  14.694  0.00  0.00     0.134 C 
ATOM     67  O5  IDS d 302     -16.902  54.260  13.728  0.00  0.00    -0.340 OA
ATOM     68  O1S IDS d 302     -15.190  49.626  15.082  0.00  0.00    -0.572 OA
ATOM     69  O4  IDS d 302     -18.372  53.033  15.721  0.00  0.00    -0.348 OA
ATOM     70  O3S IDS d 302     -15.325  50.138  12.775  0.00  0.00    -0.572 OA
ATOM     71  C5  IDS d 302     -17.100  54.888  14.983  0.00  0.00     0.152 C 
ATOM     72  C1  IDS d 302     -15.673  53.564  13.619  0.00  0.00     0.161 C 
ATOM     73  C3  IDS d 302     -15.988  53.024  16.076  0.00  0.00     0.094 C 
ATOM     74  C4  IDS d 302     -17.263  53.843  16.041  0.00  0.00     0.103 C 
ATOM     75  O3  IDS d 302     -14.963  53.852  16.561  0.00  0.00    -0.390 OA
ATOM     76  O61 IDS d 302     -18.862  56.126  13.915  0.00  0.00    -0.646 OA
ATOM     77  C6  IDS d 302     -18.232  55.912  14.950  0.00  0.00     0.206 C 
ATOM     78  O2  IDS d 302     -16.414  51.494  14.370  0.00  0.00    -0.244 OA
ATOM     79  H   IDS d 302     -14.547  52.229  14.746  0.00  0.00     0.097 H 
ATOM     80  H   IDS d 302     -16.231  55.463  15.227  0.00  0.00     0.104 H 
ATOM     81  H   IDS d 302     -15.655  53.095  12.658  0.00  0.00     0.133 H 
ATOM     82  H   IDS d 302     -16.157  52.170  16.698  0.00  0.00     0.091 H 
ATOM     83  H   IDS d 302     -17.436  54.282  17.002  0.00  0.00     0.092 H 
ATOM     84  H   IDS d 302     -14.850  54.609  15.965  0.00  0.00     0.210 HD
ATOM     85  O5  IDS d 306     -31.908  48.677  12.208  0.00  0.00    -0.340 OA
ATOM     86  C4  IDS d 306     -33.116  49.008  14.277  0.00  0.00     0.097 C 
ATOM     87  C3  IDS d 306     -31.918  48.352  15.055  0.00  0.00     0.094 C 
ATOM     88  C1  IDS d 306     -30.643  48.506  12.803  0.00  0.00     0.161 C 
ATOM     89  S   IDS d 306     -31.081  45.399  15.045  0.00  0.00     0.252 S 
ATOM     90  O3S IDS d 306     -30.621  44.176  14.422  0.00  0.00    -0.572 OA
ATOM     91  C6  IDS d 306     -33.816  50.123  12.014  0.00  0.00     0.206 C 
ATOM     92  O61 IDS d 306     -33.651  50.204  10.800  0.00  0.00    -0.646 OA
ATOM     93  O2  IDS d 306     -31.077  46.467  13.930  0.00  0.00    -0.244 OA
ATOM     94  C2  IDS d 306     -30.796  47.810  14.137  0.00  0.00     0.134 C 
ATOM     95  O62 IDS d 306     -34.888  50.490  12.481  0.00  0.00    -0.646 OA
ATOM     96  O3  IDS d 306     -31.319  49.288  15.942  0.00  0.00    -0.390 OA
ATOM     97  O2S IDS d 306     -32.448  45.315  15.524  0.00  0.00    -0.572 OA
ATOM     98  O4  IDS d 306     -34.071  47.989  14.031  0.00  0.00    -0.390 OA
ATOM     99  C5  IDS d 306     -32.694  49.600  12.913  0.00  0.00     0.152 C 
ATOM    100  O1S IDS d 306     -30.171  45.938  16.043  0.00  0.00    -0.572 OA
ATOM    101  H   IDS d 306     -33.501  49.809  14.873  0.00  0.00     0.091 H 
ATOM    102  H   IDS d 306     -32.354  47.529  15.582  0.00  0.00     0.091 H 
ATOM    103  H   IDS d 306     -30.044  47.922  12.136  0.00  0.00     0.133 H 
ATOM    104  H   IDS d 306     -29.863  47.986  14.631  0.00  0.00     0.097 H 
ATOM    105  H   IDS d 306     -30.936  50.017  15.430  0.00  0.00     0.210 HD
ATOM    106  H   IDS d 306     -33.668  47.293  13.488  0.00  0.00     0.210 HD
ATOM    107  H   IDS d 306     -32.135  50.475  13.173  0.00  0.00     0.104 H 
ATOM    108  O2S SGN d 301     -16.231  60.365  10.803  0.00  0.00    -0.296 OA
ATOM    109  C3  SGN d 301     -14.477  56.707  12.873  0.00  0.00     0.083 C 
ATOM    110  O6S SGN d 301     -12.110  51.893   8.872  0.00  0.00    -0.572 OA
ATOM    111  O6  SGN d 301     -13.325  53.210  10.478  0.00  0.00    -0.254 OA
ATOM    112  C5  SGN d 301     -12.894  54.965  12.049  0.00  0.00     0.091 C 
ATOM    113  O5  SGN d 301     -12.584  55.806  10.935  0.00  0.00    -0.350 OA
ATOM    114  O5S SGN d 301     -14.524  51.742   8.971  0.00  0.00    -0.572 OA
ATOM    115  C6  SGN d 301     -12.557  53.541  11.609  0.00  0.00     0.067 C 
ATOM    116  O1S SGN d 301     -15.226  58.759   9.335  0.00  0.00    -0.296 OA
ATOM    117  O3  SGN d 301     -15.781  56.988  13.306  0.00  0.00    -0.391 OA
ATOM    118  O3S SGN d 301     -13.982  60.684  10.009  0.00  0.00    -0.296 OA
ATOM    119  C1  SGN d 301     -12.748  57.188  11.201  0.00  0.00     0.147 C 
ATOM    120  N   SGN d 301     -14.412  58.928  11.703  0.00  0.00    -0.210 NA
ATOM    121  O1  SGN d 301     -11.877  57.593  12.285  0.00  0.00    -0.369 OA
ATOM    122  O4S SGN d 301     -13.180  50.816  10.742  0.00  0.00    -0.572 OA
ATOM    123  C2  SGN d 301     -14.190  57.479  11.584  0.00  0.00     0.081 C 
ATOM    124  S1  SGN d 301     -15.004  59.735  10.381  0.00  0.00     0.156 S 
ATOM    125  C4  SGN d 301     -14.352  55.196  12.539  0.00  0.00     0.095 C 
ATOM    126  S2  SGN d 301     -13.285  51.834   9.715  0.00  0.00     0.251 S 
ATOM    127  O4  SGN d 301     -14.578  54.422  13.696  0.00  0.00    -0.348 OA
ATOM    128  H   SGN d 301     -16.616  60.853  10.058  0.00  0.00     0.231 HD
ATOM    129  H   SGN d 301     -13.792  56.983  13.648  0.00  0.00     0.089 H 
ATOM    130  H   SGN d 301     -12.315  55.191  12.920  0.00  0.00     0.090 H 
ATOM    131  H   SGN d 301     -11.517  53.479  11.367  0.00  0.00     0.080 H 
ATOM    132  H   SGN d 301     -12.777  52.859  12.404  0.00  0.00     0.080 H 
ATOM    133  H   SGN d 301     -15.572  59.204   8.546  0.00  0.00     0.231 HD
ATOM    134  H   SGN d 301     -16.412  56.741  12.612  0.00  0.00     0.210 HD
ATOM    135  H   SGN d 301     -14.276  61.189   9.235  0.00  0.00     0.231 HD
ATOM    136  H   SGN d 301     -12.496  57.735  10.318  0.00  0.00     0.131 H 
ATOM    137  H   SGN d 301     -13.517  59.354  11.943  0.00  0.00     0.140 HD
ATOM    138  H   SGN d 301     -12.105  57.096  13.086  0.00  0.00     0.212 HD
ATOM    139  H   SGN d 301     -14.876  57.155  10.829  0.00  0.00     0.076 H 
ATOM    140  H   SGN d 301     -15.069  54.912  11.798  0.00  0.00     0.091 H 
ATOM    141  S   IDS d 304     -25.215  56.256  12.557  0.00  0.00     0.252 S 
ATOM    142  O62 IDS d 304     -24.956  49.141  13.827  0.00  0.00    -0.646 OA
ATOM    143  O1S IDS d 304     -23.930  56.638  13.016  0.00  0.00    -0.572 OA
ATOM    144  O2  IDS d 304     -25.117  54.766  12.213  0.00  0.00    -0.244 OA
ATOM    145  O3  IDS d 304     -22.927  52.296  10.852  0.00  0.00    -0.390 OA
ATOM    146  C5  IDS d 304     -24.485  51.411  13.339  0.00  0.00     0.152 C 
ATOM    147  O5  IDS d 304     -24.545  52.563  14.103  0.00  0.00    -0.340 OA
ATOM    148  O3S IDS d 304     -26.193  56.310  13.563  0.00  0.00    -0.572 OA
ATOM    149  O4  IDS d 304     -26.301  52.086  11.923  0.00  0.00    -0.348 OA
ATOM    150  C3  IDS d 304     -24.174  52.813  11.256  0.00  0.00     0.094 C 
ATOM    151  C2  IDS d 304     -23.954  53.988  12.232  0.00  0.00     0.134 C 
ATOM    152  C1  IDS d 304     -23.661  53.585  13.678  0.00  0.00     0.161 C 
ATOM    153  O2S IDS d 304     -25.603  56.950  11.373  0.00  0.00    -0.572 OA
ATOM    154  O61 IDS d 304     -26.073  50.489  14.864  0.00  0.00    -0.646 OA
ATOM    155  C4  IDS d 304     -24.966  51.699  11.910  0.00  0.00     0.103 C 
ATOM    156  C6  IDS d 304     -25.208  50.283  14.055  0.00  0.00     0.206 C 
ATOM    157  H   IDS d 304     -22.407  52.998  10.431  0.00  0.00     0.210 HD
ATOM    158  H   IDS d 304     -23.476  51.075  13.225  0.00  0.00     0.104 H 
ATOM    159  H   IDS d 304     -24.721  53.183  10.414  0.00  0.00     0.091 H 
ATOM    160  H   IDS d 304     -23.083  54.511  11.898  0.00  0.00     0.097 H 
ATOM    161  H   IDS d 304     -23.821  54.426  14.319  0.00  0.00     0.133 H 
ATOM    162  H   IDS d 304     -24.829  50.795  11.352  0.00  0.00     0.092 H 
ENDROOT
TORSDOF 51
ENDMDL
MODEL 15
REMARK VINA RESULT:      -9.3      5.855     14.609
REMARK  0 active torsions:
REMARK  status: ('A' for Active; 'I' for Inactive)
REMARK       I    between atoms: N_2  and  C2_29 
REMARK       I    between atoms: N_2  and  S1_49 
REMARK       I    between atoms: S_3  and  O2_103 
REMARK       I    between atoms: C5_6  and  C6_92 
REMARK       I    between atoms: C4_8  and  O4_100 
REMARK       I    between atoms: C2_9  and  O2_103 
REMARK       I    between atoms: O1S_10  and  S1_36 
REMARK       I    between atoms: O2S_11  and  S1_93 
REMARK       I    between atoms: C3_12  and  O3_54 
REMARK       I    between atoms: O4_13  and  C4_20 
REMARK       I    between atoms: O4_13  and  C1_26 
REMARK       I    between atoms: O6_15  and  C6_46 
REMARK       I    between atoms: O6_15  and  S2_104 
REMARK       I    between atoms: C5_16  and  C6_46 
REMARK       I    between atoms: C4_17  and  O4_90 
REMARK       I    between atoms: S_18  and  O2_62 
REMARK       I    between atoms: C3_19  and  O3_68 
REMARK       I    between atoms: S2_25  and  O6_53 
REMARK       I    between atoms: O4_27  and  C4_69 
REMARK       I    between atoms: O4_27  and  C1_89 
REMARK       I    between atoms: O3_28  and  C3_37 
REMARK       I    between atoms: C1_30  and  O4_73 
REMARK       I    between atoms: O2S_32  and  S1_49 
REMARK       I    between atoms: S_33  and  O2_48 
REMARK       I    between atoms: C6_34  and  C5_43 
REMARK       I    between atoms: C6_34  and  O6_60 
REMARK       I    between atoms: S1_36  and  N_85 
REMARK       I    between atoms: S1_36  and  O2S_63 
REMARK       I    between atoms: S1_36  and  O3S_74 
REMARK       I    between atoms: C6_40  and  C5_94 
REMARK       I    between atoms: O3S_42  and  S1_49 
REMARK       I    between atoms: C5_44  and  C6_99 
REMARK       I    between atoms: C1_47  and  O4_106 
REMARK       I    between atoms: O2_48  and  C2_57 
REMARK       I    between atoms: S1_49  and  O1S_55 
REMARK       I    between atoms: O1S_51  and  S1_93 
REMARK       I    between atoms: C3_52  and  O3_87 
REMARK       I    between atoms: O6_53  and  C6_92 
REMARK       I    between atoms: O3S_56  and  S1_93 
REMARK       I    between atoms: O3_58  and  C3_98 
REMARK       I    between atoms: C1_59  and  O1_81 
REMARK       I    between atoms: O6_60  and  S2_65 
REMARK       I    between atoms: O2_62  and  C2_77 
REMARK       I    between atoms: O3_64  and  C3_75 
REMARK       I    between atoms: C5_67  and  C6_101 
REMARK       I    between atoms: O4_73  and  C4_96 
REMARK       I    between atoms: C2_76  and  N_85 
REMARK       I    between atoms: N_78  and  C2_91 
REMARK       I    between atoms: N_78  and  S1_93 
REMARK       I    between atoms: C1_80  and  O4_100 
REMARK       I    between atoms: C4_102  and  O4_106 
ROOT
ATOM      1  O5S SGN d 305     -17.201  43.558  13.755  0.00  0.00    -0.572 OA
ATOM      2  C5  SGN d 305     -19.462  47.225  15.301  0.00  0.00     0.091 C 
ATOM      3  O1S SGN d 305     -22.437  47.336  11.174  0.00  0.00    -0.296 OA
ATOM      4  O4  SGN d 305     -20.793  46.198  16.912  0.00  0.00    -0.348 OA
ATOM      5  C4  SGN d 305     -20.761  46.537  15.574  0.00  0.00     0.095 C 
ATOM      6  O5  SGN d 305     -19.359  47.478  13.944  0.00  0.00    -0.349 OA
ATOM      7  S2  SGN d 305     -17.129  44.252  15.020  0.00  0.00     0.251 S 
ATOM      8  O3  SGN d 305     -23.080  47.073  15.562  0.00  0.00    -0.391 OA
ATOM      9  C1  SGN d 305     -20.358  48.349  13.458  0.00  0.00     0.150 C 
ATOM     10  S1  SGN d 305     -23.125  48.465  11.706  0.00  0.00     0.156 S 
ATOM     11  C3  SGN d 305     -21.818  47.564  15.258  0.00  0.00     0.083 C 
ATOM     12  O6  SGN d 305     -18.302  45.241  15.041  0.00  0.00    -0.254 OA
ATOM     13  O2S SGN d 305     -24.514  48.263  11.729  0.00  0.00    -0.296 OA
ATOM     14  O4S SGN d 305     -17.365  43.402  16.161  0.00  0.00    -0.572 OA
ATOM     15  O3S SGN d 305     -22.722  49.659  11.065  0.00  0.00    -0.296 OA
ATOM     16  C2  SGN d 305     -21.719  47.777  13.784  0.00  0.00     0.081 C 
ATOM     17  N   SGN d 305     -22.743  48.639  13.271  0.00  0.00    -0.210 NA
ATOM     18  C6  SGN d 305     -18.252  46.456  15.692  0.00  0.00     0.067 C 
ATOM     19  O6S SGN d 305     -15.934  45.081  15.127  0.00  0.00    -0.572 OA
ATOM     20  H   SGN d 305     -19.485  48.112  15.898  0.00  0.00     0.090 H 
ATOM     21  H   SGN d 305     -22.732  46.533  11.631  0.00  0.00     0.231 HD
ATOM     22  H   SGN d 305     -20.903  45.646  14.999  0.00  0.00     0.091 H 
ATOM     23  H   SGN d 305     -23.150  46.932  16.520  0.00  0.00     0.210 HD
ATOM     24  H   SGN d 305     -20.250  48.439  12.397  0.00  0.00     0.131 H 
ATOM     25  H   SGN d 305     -21.676  48.463  15.822  0.00  0.00     0.089 H 
ATOM     26  H   SGN d 305     -24.712  47.429  12.183  0.00  0.00     0.231 HD
ATOM     27  H   SGN d 305     -21.755  49.728  11.088  0.00  0.00     0.231 HD
ATOM     28  H   SGN d 305     -21.855  46.825  13.315  0.00  0.00     0.076 H 
ATOM     29  H   SGN d 305     -23.588  48.472  13.816  0.00  0.00     0.140 HD
ATOM     30  H   SGN d 305     -18.243  46.302  16.751  0.00  0.00     0.080 H 
ATOM     31  H   SGN d 305     -17.364  46.989  15.425  0.00  0.00     0.080 H 
ATOM     32  N   SGN d 303     -14.115  55.178  15.897  0.00  0.00    -0.210 NA
ATOM     33  C4  SGN d 303     -17.735  54.517  14.947  0.00  0.00     0.095 C 
ATOM     34  C2  SGN d 303     -15.559  55.337  15.912  0.00  0.00     0.081 C 
ATOM     35  O5S SGN d 303     -21.151  55.660  17.851  0.00  0.00    -0.572 OA
ATOM     36  O2S SGN d 303     -13.240  55.073  18.193  0.00  0.00    -0.296 OA
ATOM     37  C6  SGN d 303     -19.474  56.338  14.618  0.00  0.00     0.067 C 
ATOM     38  O3S SGN d 303     -11.894  55.991  16.442  0.00  0.00    -0.296 OA
ATOM     39  C5  SGN d 303     -18.001  55.972  14.578  0.00  0.00     0.091 C 
ATOM     40  S1  SGN d 303     -13.196  55.914  17.034  0.00  0.00     0.156 S 
ATOM     41  O6S SGN d 303     -20.628  57.849  17.009  0.00  0.00    -0.572 OA
ATOM     42  O1S SGN d 303     -13.765  57.204  17.302  0.00  0.00    -0.296 OA
ATOM     43  O3  SGN d 303     -15.959  53.017  15.503  0.00  0.00    -0.391 OA
ATOM     44  O6  SGN d 303     -19.939  55.905  15.859  0.00  0.00    -0.254 OA
ATOM     45  S2  SGN d 303     -21.053  56.524  16.717  0.00  0.00     0.251 S 
ATOM     46  O5  SGN d 303     -17.336  56.855  15.474  0.00  0.00    -0.349 OA
ATOM     47  C1  SGN d 303     -15.931  56.735  15.466  0.00  0.00     0.150 C 
ATOM     48  O4S SGN d 303     -22.239  56.524  15.931  0.00  0.00    -0.572 OA
ATOM     49  C3  SGN d 303     -16.217  54.310  15.000  0.00  0.00     0.083 C 
ATOM     50  O4  SGN d 303     -18.272  53.707  13.938  0.00  0.00    -0.348 OA
ATOM     51  H   SGN d 303     -13.791  55.518  14.991  0.00  0.00     0.140 HD
ATOM     52  H   SGN d 303     -18.176  54.272  15.891  0.00  0.00     0.091 H 
ATOM     53  H   SGN d 303     -15.909  55.184  16.912  0.00  0.00     0.076 H 
ATOM     54  H   SGN d 303     -12.850  54.210  17.983  0.00  0.00     0.231 HD
ATOM     55  H   SGN d 303     -20.003  55.846  13.829  0.00  0.00     0.080 H 
ATOM     56  H   SGN d 303     -19.622  57.390  14.488  0.00  0.00     0.080 H 
ATOM     57  H   SGN d 303     -11.557  55.096  16.282  0.00  0.00     0.231 HD
ATOM     58  H   SGN d 303     -17.635  56.075  13.577  0.00  0.00     0.090 H 
ATOM     59  H   SGN d 303     -14.643  57.093  17.700  0.00  0.00     0.231 HD
ATOM     60  H   SGN d 303     -16.375  52.357  14.927  0.00  0.00     0.210 HD
ATOM     61  H   SGN d 303     -15.532  57.463  16.141  0.00  0.00     0.131 H 
ATOM     62  H   SGN d 303     -15.815  54.425  14.016  0.00  0.00     0.089 H 
ATOM     63  S   IDS d 302     -11.771  55.956  12.393  0.00  0.00     0.252 S 
ATOM     64  O2S IDS d 302     -12.042  54.658  12.912  0.00  0.00    -0.572 OA
ATOM     65  O62 IDS d 302     -18.077  59.214  13.742  0.00  0.00    -0.646 OA
ATOM     66  C2  IDS d 302     -13.256  58.082  12.317  0.00  0.00     0.134 C 
ATOM     67  O5  IDS d 302     -15.525  57.894  11.585  0.00  0.00    -0.340 OA
ATOM     68  O1S IDS d 302     -10.794  56.682  13.133  0.00  0.00    -0.572 OA
ATOM     69  O4  IDS d 302     -15.366  57.011  14.200  0.00  0.00    -0.348 OA
ATOM     70  O3S IDS d 302     -11.499  55.936  11.001  0.00  0.00    -0.572 OA
ATOM     71  C5  IDS d 302     -15.999  58.692  12.657  0.00  0.00     0.152 C 
ATOM     72  C1  IDS d 302     -14.210  58.215  11.167  0.00  0.00     0.161 C 
ATOM     73  C3  IDS d 302     -13.764  58.714  13.612  0.00  0.00     0.094 C 
ATOM     74  C4  IDS d 302     -15.216  58.379  13.893  0.00  0.00     0.103 C 
ATOM     75  O3  IDS d 302     -13.666  60.108  13.482  0.00  0.00    -0.390 OA
ATOM     76  O61 IDS d 302     -18.187  57.864  12.106  0.00  0.00    -0.646 OA
ATOM     77  C6  IDS d 302     -17.510  58.580  12.843  0.00  0.00     0.206 C 
ATOM     78  O2  IDS d 302     -13.067  56.751  12.564  0.00  0.00    -0.244 OA
ATOM     79  H   IDS d 302     -12.359  58.592  12.034  0.00  0.00     0.097 H 
ATOM     80  H   IDS d 302     -15.837  59.723  12.424  0.00  0.00     0.104 H 
ATOM     81  H   IDS d 302     -13.944  57.524  10.394  0.00  0.00     0.133 H 
ATOM     82  H   IDS d 302     -13.172  58.332  14.417  0.00  0.00     0.091 H 
ATOM     83  H   IDS d 302     -15.561  58.949  14.731  0.00  0.00     0.092 H 
ATOM     84  H   IDS d 302     -14.219  60.404  12.742  0.00  0.00     0.210 HD
ATOM     85  O5  IDS d 306     -21.309  43.946  17.122  0.00  0.00    -0.340 OA
ATOM     86  C4  IDS d 306     -22.139  44.243  19.374  0.00  0.00     0.097 C 
ATOM     87  C3  IDS d 306     -20.785  44.945  19.757  0.00  0.00     0.094 C 
ATOM     88  C1  IDS d 306     -20.293  44.918  17.211  0.00  0.00     0.161 C 
ATOM     89  S   IDS d 306     -18.025  43.635  20.055  0.00  0.00     0.252 S 
ATOM     90  O3S IDS d 306     -16.870  42.904  19.578  0.00  0.00    -0.572 OA
ATOM     91  C6  IDS d 306     -23.660  43.524  17.368  0.00  0.00     0.206 C 
ATOM     92  O61 IDS d 306     -23.735  43.168  16.195  0.00  0.00    -0.646 OA
ATOM     93  O2  IDS d 306     -18.935  43.834  18.823  0.00  0.00    -0.244 OA
ATOM     94  C2  IDS d 306     -19.737  44.947  18.617  0.00  0.00     0.134 C 
ATOM     95  O62 IDS d 306     -24.590  43.252  18.119  0.00  0.00    -0.646 OA
ATOM     96  O3  IDS d 306     -21.006  46.299  20.128  0.00  0.00    -0.390 OA
ATOM     97  O2S IDS d 306     -18.808  42.893  21.025  0.00  0.00    -0.572 OA
ATOM     98  O4  IDS d 306     -22.024  42.875  19.733  0.00  0.00    -0.390 OA
ATOM     99  C5  IDS d 306     -22.444  44.311  17.860  0.00  0.00     0.152 C 
ATOM    100  O1S IDS d 306     -17.734  44.991  20.491  0.00  0.00    -0.572 OA
ATOM    101  H   IDS d 306     -22.931  44.746  19.888  0.00  0.00     0.091 H 
ATOM    102  H   IDS d 306     -20.401  44.367  20.571  0.00  0.00     0.091 H 
ATOM    103  H   IDS d 306     -19.530  44.660  16.506  0.00  0.00     0.133 H 
ATOM    104  H   IDS d 306     -19.210  45.877  18.669  0.00  0.00     0.097 H 
ATOM    105  H   IDS d 306     -21.353  46.789  19.367  0.00  0.00     0.210 HD
ATOM    106  H   IDS d 306     -21.294  42.472  19.238  0.00  0.00     0.210 HD
ATOM    107  H   IDS d 306     -22.708  45.335  17.695  0.00  0.00     0.104 H 
ATOM    108  O2S SGN d 301     -19.956  60.919   7.403  0.00  0.00    -0.296 OA
ATOM    109  C3  SGN d 301     -15.858  60.650   9.373  0.00  0.00     0.083 C 
ATOM    110  O6S SGN d 301     -11.104  57.479   5.891  0.00  0.00    -0.572 OA
ATOM    111  O6  SGN d 301     -12.724  58.194   7.520  0.00  0.00    -0.254 OA
ATOM    112  C5  SGN d 301     -13.599  60.242   8.398  0.00  0.00     0.091 C 
ATOM    113  O5  SGN d 301     -14.139  60.499   7.099  0.00  0.00    -0.350 OA
ATOM    114  O5S SGN d 301     -12.559  55.850   6.932  0.00  0.00    -0.572 OA
ATOM    115  C6  SGN d 301     -12.356  59.383   8.175  0.00  0.00     0.067 C 
ATOM    116  O1S SGN d 301     -18.242  59.946   6.039  0.00  0.00    -0.296 OA
ATOM    117  O3  SGN d 301     -16.879  60.158  10.200  0.00  0.00    -0.391 OA
ATOM    118  O3S SGN d 301     -18.804  62.251   5.764  0.00  0.00    -0.296 OA
ATOM    119  C1  SGN d 301     -15.256  61.371   7.108  0.00  0.00     0.147 C 
ATOM    120  N   SGN d 301     -17.599  61.588   7.825  0.00  0.00    -0.210 NA
ATOM    121  O1  SGN d 301     -14.881  62.654   7.665  0.00  0.00    -0.369 OA
ATOM    122  O4S SGN d 301     -10.808  56.900   8.210  0.00  0.00    -0.572 OA
ATOM    123  C2  SGN d 301     -16.379  60.775   7.940  0.00  0.00     0.081 C 
ATOM    124  S1  SGN d 301     -18.723  61.147   6.690  0.00  0.00     0.156 S 
ATOM    125  C4  SGN d 301     -14.678  59.642   9.346  0.00  0.00     0.095 C 
ATOM    126  S2  SGN d 301     -11.743  57.033   7.110  0.00  0.00     0.251 S 
ATOM    127  O4  SGN d 301     -14.129  59.501  10.637  0.00  0.00    -0.348 OA
ATOM    128  H   SGN d 301     -20.648  60.657   6.777  0.00  0.00     0.231 HD
ATOM    129  H   SGN d 301     -15.539  61.599   9.751  0.00  0.00     0.089 H 
ATOM    130  H   SGN d 301     -13.303  61.132   8.913  0.00  0.00     0.090 H 
ATOM    131  H   SGN d 301     -11.653  59.921   7.574  0.00  0.00     0.080 H 
ATOM    132  H   SGN d 301     -11.909  59.149   9.119  0.00  0.00     0.080 H 
ATOM    133  H   SGN d 301     -18.882  59.664   5.368  0.00  0.00     0.231 HD
ATOM    134  H   SGN d 301     -17.176  59.297   9.868  0.00  0.00     0.210 HD
ATOM    135  H   SGN d 301     -19.452  62.047   5.072  0.00  0.00     0.231 HD
ATOM    136  H   SGN d 301     -15.590  61.505   6.101  0.00  0.00     0.131 H 
ATOM    137  H   SGN d 301     -17.308  62.542   7.609  0.00  0.00     0.140 HD
ATOM    138  H   SGN d 301     -14.577  62.534   8.578  0.00  0.00     0.212 HD
ATOM    139  H   SGN d 301     -16.661  59.803   7.591  0.00  0.00     0.076 H 
ATOM    140  H   SGN d 301     -15.008  58.681   9.012  0.00  0.00     0.091 H 
ATOM    141  S   IDS d 304     -22.577  53.219  13.278  0.00  0.00     0.252 S 
ATOM    142  O62 IDS d 304     -16.946  49.466  15.830  0.00  0.00    -0.646 OA
ATOM    143  O1S IDS d 304     -21.976  54.493  13.120  0.00  0.00    -0.572 OA
ATOM    144  O2  IDS d 304     -21.430  52.202  13.247  0.00  0.00    -0.244 OA
ATOM    145  O3  IDS d 304     -18.283  51.507  11.711  0.00  0.00    -0.390 OA
ATOM    146  C5  IDS d 304     -18.389  50.989  14.730  0.00  0.00     0.152 C 
ATOM    147  O5  IDS d 304     -19.215  51.997  15.197  0.00  0.00    -0.340 OA
ATOM    148  O3S IDS d 304     -23.156  53.040  14.545  0.00  0.00    -0.572 OA
ATOM    149  O4  IDS d 304     -20.225  49.625  14.005  0.00  0.00    -0.348 OA
ATOM    150  C3  IDS d 304     -19.445  51.188  12.440  0.00  0.00     0.094 C 
ATOM    151  C2  IDS d 304     -20.084  52.482  12.985  0.00  0.00     0.134 C 
ATOM    152  C1  IDS d 304     -19.445  53.035  14.260  0.00  0.00     0.161 C 
ATOM    153  O2S IDS d 304     -23.470  52.897  12.213  0.00  0.00    -0.572 OA
ATOM    154  O61 IDS d 304     -18.583  50.022  16.903  0.00  0.00    -0.646 OA
ATOM    155  C4  IDS d 304     -19.062  50.249  13.566  0.00  0.00     0.103 C 
ATOM    156  C6  IDS d 304     -17.944  50.113  15.889  0.00  0.00     0.206 C 
ATOM    157  H   IDS d 304     -18.511  52.108  10.985  0.00  0.00     0.210 HD
ATOM    158  H   IDS d 304     -17.488  51.390  14.314  0.00  0.00     0.104 H 
ATOM    159  H   IDS d 304     -20.165  50.705  11.812  0.00  0.00     0.091 H 
ATOM    160  H   IDS d 304     -19.940  53.238  12.242  0.00  0.00     0.097 H 
ATOM    161  H   IDS d 304     -20.116  53.730  14.720  0.00  0.00     0.133 H 
ATOM    162  H   IDS d 304     -18.352  49.535  13.204  0.00  0.00     0.092 H 
ENDROOT
TORSDOF 51
ENDMDL
MODEL 16
REMARK VINA RESULT:      -9.2      2.158      3.140
REMARK  0 active torsions:
REMARK  status: ('A' for Active; 'I' for Inactive)
REMARK       I    between atoms: N_2  and  C2_29 
REMARK       I    between atoms: N_2  and  S1_49 
REMARK       I    between atoms: S_3  and  O2_103 
REMARK       I    between atoms: C5_6  and  C6_92 
REMARK       I    between atoms: C4_8  and  O4_100 
REMARK       I    between atoms: C2_9  and  O2_103 
REMARK       I    between atoms: O1S_10  and  S1_36 
REMARK       I    between atoms: O2S_11  and  S1_93 
REMARK       I    between atoms: C3_12  and  O3_54 
REMARK       I    between atoms: O4_13  and  C4_20 
REMARK       I    between atoms: O4_13  and  C1_26 
REMARK       I    between atoms: O6_15  and  C6_46 
REMARK       I    between atoms: O6_15  and  S2_104 
REMARK       I    between atoms: C5_16  and  C6_46 
REMARK       I    between atoms: C4_17  and  O4_90 
REMARK       I    between atoms: S_18  and  O2_62 
REMARK       I    between atoms: C3_19  and  O3_68 
REMARK       I    between atoms: S2_25  and  O6_53 
REMARK       I    between atoms: O4_27  and  C4_69 
REMARK       I    between atoms: O4_27  and  C1_89 
REMARK       I    between atoms: O3_28  and  C3_37 
REMARK       I    between atoms: C1_30  and  O4_73 
REMARK       I    between atoms: O2S_32  and  S1_49 
REMARK       I    between atoms: S_33  and  O2_48 
REMARK       I    between atoms: C6_34  and  C5_43 
REMARK       I    between atoms: C6_34  and  O6_60 
REMARK       I    between atoms: S1_36  and  N_85 
REMARK       I    between atoms: S1_36  and  O2S_63 
REMARK       I    between atoms: S1_36  and  O3S_74 
REMARK       I    between atoms: C6_40  and  C5_94 
REMARK       I    between atoms: O3S_42  and  S1_49 
REMARK       I    between atoms: C5_44  and  C6_99 
REMARK       I    between atoms: C1_47  and  O4_106 
REMARK       I    between atoms: O2_48  and  C2_57 
REMARK       I    between atoms: S1_49  and  O1S_55 
REMARK       I    between atoms: O1S_51  and  S1_93 
REMARK       I    between atoms: C3_52  and  O3_87 
REMARK       I    between atoms: O6_53  and  C6_92 
REMARK       I    between atoms: O3S_56  and  S1_93 
REMARK       I    between atoms: O3_58  and  C3_98 
REMARK       I    between atoms: C1_59  and  O1_81 
REMARK       I    between atoms: O6_60  and  S2_65 
REMARK       I    between atoms: O2_62  and  C2_77 
REMARK       I    between atoms: O3_64  and  C3_75 
REMARK       I    between atoms: C5_67  and  C6_101 
REMARK       I    between atoms: O4_73  and  C4_96 
REMARK       I    between atoms: C2_76  and  N_85 
REMARK       I    between atoms: N_78  and  C2_91 
REMARK       I    between atoms: N_78  and  S1_93 
REMARK       I    between atoms: C1_80  and  O4_100 
REMARK       I    between atoms: C4_102  and  O4_106 
ROOT
ATOM      1  O5S SGN d 305     -16.090  49.916  16.257  0.00  0.00    -0.572 OA
ATOM      2  C5  SGN d 305     -18.416  53.589  14.829  0.00  0.00     0.091 C 
ATOM      3  O1S SGN d 305     -19.714  54.825  19.592  0.00  0.00    -0.296 OA
ATOM      4  O4  SGN d 305     -16.632  55.009  14.358  0.00  0.00    -0.348 OA
ATOM      5  C4  SGN d 305     -17.482  54.621  15.374  0.00  0.00     0.095 C 
ATOM      6  O5  SGN d 305     -19.208  53.105  15.856  0.00  0.00    -0.349 OA
ATOM      7  S2  SGN d 305     -16.216  50.506  14.945  0.00  0.00     0.251 S 
ATOM      8  O3  SGN d 305     -17.605  56.836  16.237  0.00  0.00    -0.391 OA
ATOM      9  C1  SGN d 305     -20.033  54.091  16.441  0.00  0.00     0.150 C 
ATOM     10  S1  SGN d 305     -20.410  55.968  19.100  0.00  0.00     0.156 S 
ATOM     11  C3  SGN d 305     -18.369  55.765  15.794  0.00  0.00     0.083 C 
ATOM     12  O6  SGN d 305     -16.915  51.858  15.141  0.00  0.00    -0.254 OA
ATOM     13  O2S SGN d 305     -20.000  57.143  19.750  0.00  0.00    -0.296 OA
ATOM     14  O4S SGN d 305     -14.953  50.848  14.340  0.00  0.00    -0.572 OA
ATOM     15  O3S SGN d 305     -21.808  55.758  19.106  0.00  0.00    -0.296 OA
ATOM     16  C2  SGN d 305     -19.171  55.232  16.934  0.00  0.00     0.081 C 
ATOM     17  N   SGN d 305     -19.995  56.226  17.556  0.00  0.00    -0.210 NA
ATOM     18  C6  SGN d 305     -17.756  52.416  14.200  0.00  0.00     0.067 C 
ATOM     19  O6S SGN d 305     -17.108  49.742  14.080  0.00  0.00    -0.572 OA
ATOM     20  H   SGN d 305     -18.972  54.091  14.065  0.00  0.00     0.090 H 
ATOM     21  H   SGN d 305     -18.760  54.996  19.577  0.00  0.00     0.231 HD
ATOM     22  H   SGN d 305     -16.888  54.272  16.193  0.00  0.00     0.091 H 
ATOM     23  H   SGN d 305     -17.082  57.187  15.500  0.00  0.00     0.210 HD
ATOM     24  H   SGN d 305     -20.559  53.654  17.265  0.00  0.00     0.131 H 
ATOM     25  H   SGN d 305     -18.975  56.113  14.983  0.00  0.00     0.089 H 
ATOM     26  H   SGN d 305     -19.034  57.218  19.705  0.00  0.00     0.231 HD
ATOM     27  H   SGN d 305     -22.012  54.931  18.642  0.00  0.00     0.231 HD
ATOM     28  H   SGN d 305     -18.482  54.894  17.679  0.00  0.00     0.076 H 
ATOM     29  H   SGN d 305     -19.492  57.113  17.515  0.00  0.00     0.140 HD
ATOM     30  H   SGN d 305     -17.191  52.728  13.346  0.00  0.00     0.080 H 
ATOM     31  H   SGN d 305     -18.484  51.702  13.877  0.00  0.00     0.080 H 
ATOM     32  N   SGN d 303     -26.185  51.525   9.576  0.00  0.00    -0.210 NA
ATOM     33  C4  SGN d 303     -25.404  54.195  12.166  0.00  0.00     0.095 C 
ATOM     34  C2  SGN d 303     -26.095  52.858  10.147  0.00  0.00     0.081 C 
ATOM     35  O5S SGN d 303     -24.726  58.581  10.856  0.00  0.00    -0.572 OA
ATOM     36  O2S SGN d 303     -25.301  51.516   7.281  0.00  0.00    -0.296 OA
ATOM     37  C6  SGN d 303     -26.905  56.184  12.654  0.00  0.00     0.067 C 
ATOM     38  O3S SGN d 303     -27.047  50.000   7.896  0.00  0.00    -0.296 OA
ATOM     39  C5  SGN d 303     -26.823  54.753  12.154  0.00  0.00     0.091 C 
ATOM     40  S1  SGN d 303     -26.534  51.334   7.989  0.00  0.00     0.156 S 
ATOM     41  O6S SGN d 303     -27.121  58.503  10.678  0.00  0.00    -0.572 OA
ATOM     42  O1S SGN d 303     -27.499  52.331   7.620  0.00  0.00    -0.296 OA
ATOM     43  O3  SGN d 303     -24.106  52.352  11.371  0.00  0.00    -0.391 OA
ATOM     44  O6  SGN d 303     -25.940  56.893  11.939  0.00  0.00    -0.254 OA
ATOM     45  S2  SGN d 303     -25.978  58.368  11.512  0.00  0.00     0.251 S 
ATOM     46  O5  SGN d 303     -27.361  54.749  10.838  0.00  0.00    -0.349 OA
ATOM     47  C1  SGN d 303     -27.477  53.465  10.265  0.00  0.00     0.150 C 
ATOM     48  O4S SGN d 303     -26.108  59.145  12.697  0.00  0.00    -0.572 OA
ATOM     49  C3  SGN d 303     -25.434  52.806  11.518  0.00  0.00     0.083 C 
ATOM     50  O4  SGN d 303     -24.996  54.070  13.500  0.00  0.00    -0.348 OA
ATOM     51  H   SGN d 303     -26.908  51.029  10.098  0.00  0.00     0.140 HD
ATOM     52  H   SGN d 303     -24.733  54.837  11.634  0.00  0.00     0.091 H 
ATOM     53  H   SGN d 303     -25.499  53.467   9.500  0.00  0.00     0.076 H 
ATOM     54  H   SGN d 303     -24.670  50.830   7.549  0.00  0.00     0.231 HD
ATOM     55  H   SGN d 303     -26.696  56.226  13.703  0.00  0.00     0.080 H 
ATOM     56  H   SGN d 303     -27.882  56.596  12.511  0.00  0.00     0.080 H 
ATOM     57  H   SGN d 303     -26.357  49.369   8.155  0.00  0.00     0.231 HD
ATOM     58  H   SGN d 303     -27.376  54.114  12.810  0.00  0.00     0.090 H 
ATOM     59  H   SGN d 303     -27.101  53.211   7.701  0.00  0.00     0.231 HD
ATOM     60  H   SGN d 303     -23.678  52.316  12.241  0.00  0.00     0.210 HD
ATOM     61  H   SGN d 303     -27.924  53.572   9.299  0.00  0.00     0.131 H 
ATOM     62  H   SGN d 303     -25.998  52.144  12.141  0.00  0.00     0.089 H 
ATOM     63  S   IDS d 302     -28.668  48.475  11.281  0.00  0.00     0.252 S 
ATOM     64  O2S IDS d 302     -27.246  48.493  11.353  0.00  0.00    -0.572 OA
ATOM     65  O62 IDS d 302     -30.070  55.535  11.914  0.00  0.00    -0.646 OA
ATOM     66  C2  IDS d 302     -30.382  50.422  11.352  0.00  0.00     0.134 C 
ATOM     67  O5  IDS d 302     -30.152  52.118  13.022  0.00  0.00    -0.340 OA
ATOM     68  O1S IDS d 302     -29.177  48.092  10.007  0.00  0.00    -0.572 OA
ATOM     69  O4  IDS d 302     -28.325  52.611  11.006  0.00  0.00    -0.348 OA
ATOM     70  O3S IDS d 302     -29.254  47.745  12.346  0.00  0.00    -0.572 OA
ATOM     71  C5  IDS d 302     -30.363  53.156  12.080  0.00  0.00     0.152 C 
ATOM     72  C1  IDS d 302     -30.815  50.907  12.703  0.00  0.00     0.161 C 
ATOM     73  C3  IDS d 302     -30.349  51.516  10.287  0.00  0.00     0.094 C 
ATOM     74  C4  IDS d 302     -29.706  52.795  10.786  0.00  0.00     0.103 C 
ATOM     75  O3  IDS d 302     -31.673  51.816   9.932  0.00  0.00    -0.390 OA
ATOM     76  O61 IDS d 302     -29.496  54.645  13.756  0.00  0.00    -0.646 OA
ATOM     77  C6  IDS d 302     -29.950  54.524  12.619  0.00  0.00     0.206 C 
ATOM     78  O2  IDS d 302     -29.112  49.928  11.463  0.00  0.00    -0.244 OA
ATOM     79  H   IDS d 302     -31.096  49.687  11.045  0.00  0.00     0.097 H 
ATOM     80  H   IDS d 302     -31.413  53.251  11.895  0.00  0.00     0.104 H 
ATOM     81  H   IDS d 302     -30.547  50.190  13.450  0.00  0.00     0.133 H 
ATOM     82  H   IDS d 302     -29.773  51.153   9.462  0.00  0.00     0.091 H 
ATOM     83  H   IDS d 302     -29.827  53.568  10.056  0.00  0.00     0.092 H 
ATOM     84  H   IDS d 302     -32.152  52.140  10.711  0.00  0.00     0.210 HD
ATOM     85  O5  IDS d 306     -14.436  54.841  15.088  0.00  0.00    -0.340 OA
ATOM     86  C4  IDS d 306     -13.664  56.450  13.455  0.00  0.00     0.097 C 
ATOM     87  C3  IDS d 306     -14.355  55.601  12.326  0.00  0.00     0.094 C 
ATOM     88  C1  IDS d 306     -15.436  54.274  14.274  0.00  0.00     0.161 C 
ATOM     89  S   IDS d 306     -13.488  52.856  11.261  0.00  0.00     0.252 S 
ATOM     90  O3S IDS d 306     -13.203  51.441  11.381  0.00  0.00    -0.572 OA
ATOM     91  C6  IDS d 306     -13.587  56.877  16.037  0.00  0.00     0.206 C 
ATOM     92  O61 IDS d 306     -13.727  56.426  17.170  0.00  0.00    -0.646 OA
ATOM     93  O2  IDS d 306     -14.022  53.295  12.643  0.00  0.00    -0.244 OA
ATOM     94  C2  IDS d 306     -14.982  54.279  12.831  0.00  0.00     0.134 C 
ATOM     95  O62 IDS d 306     -12.893  57.876  15.890  0.00  0.00    -0.646 OA
ATOM     96  O3  IDS d 306     -15.392  56.345  11.698  0.00  0.00    -0.390 OA
ATOM     97  O2S IDS d 306     -12.305  53.656  11.008  0.00  0.00    -0.572 OA
ATOM     98  O4  IDS d 306     -12.305  56.049  13.515  0.00  0.00    -0.390 OA
ATOM     99  C5  IDS d 306     -14.289  56.215  14.850  0.00  0.00     0.152 C 
ATOM    100  O1S IDS d 306     -14.580  53.169  10.354  0.00  0.00    -0.572 OA
ATOM    101  H   IDS d 306     -13.786  57.485  13.215  0.00  0.00     0.091 H 
ATOM    102  H   IDS d 306     -13.567  55.365  11.642  0.00  0.00     0.091 H 
ATOM    103  H   IDS d 306     -15.607  53.274  14.614  0.00  0.00     0.133 H 
ATOM    104  H   IDS d 306     -15.883  54.118  12.275  0.00  0.00     0.097 H 
ATOM    105  H   IDS d 306     -16.086  56.540  12.347  0.00  0.00     0.210 HD
ATOM    106  H   IDS d 306     -12.256  55.106  13.736  0.00  0.00     0.210 HD
ATOM    107  H   IDS d 306     -15.237  56.709  14.795  0.00  0.00     0.104 H 
ATOM    108  O2S SGN d 301     -33.870  55.525  17.586  0.00  0.00    -0.296 OA
ATOM    109  C3  SGN d 301     -33.476  52.498  14.206  0.00  0.00     0.083 C 
ATOM    110  O6S SGN d 301     -32.769  46.099  16.033  0.00  0.00    -0.572 OA
ATOM    111  O6  SGN d 301     -32.502  48.320  15.146  0.00  0.00    -0.254 OA
ATOM    112  C5  SGN d 301     -33.857  50.034  14.167  0.00  0.00     0.091 C 
ATOM    113  O5  SGN d 301     -34.527  50.140  15.425  0.00  0.00    -0.350 OA
ATOM    114  O5S SGN d 301     -30.652  47.244  16.281  0.00  0.00    -0.572 OA
ATOM    115  C6  SGN d 301     -33.367  48.590  14.071  0.00  0.00     0.067 C 
ATOM    116  O1S SGN d 301     -33.811  53.233  18.286  0.00  0.00    -0.296 OA
ATOM    117  O3  SGN d 301     -32.538  53.536  14.102  0.00  0.00    -0.391 OA
ATOM    118  O3S SGN d 301     -35.913  54.348  18.067  0.00  0.00    -0.296 OA
ATOM    119  C1  SGN d 301     -35.135  51.402  15.642  0.00  0.00     0.147 C 
ATOM    120  N   SGN d 301     -34.673  53.792  15.995  0.00  0.00    -0.210 NA
ATOM    121  O1  SGN d 301     -36.125  51.660  14.618  0.00  0.00    -0.369 OA
ATOM    122  O4S SGN d 301     -31.358  46.463  14.115  0.00  0.00    -0.572 OA
ATOM    123  C2  SGN d 301     -34.084  52.501  15.610  0.00  0.00     0.081 C 
ATOM    124  S1  SGN d 301     -34.556  54.257  17.582  0.00  0.00     0.156 S 
ATOM    125  C4  SGN d 301     -32.764  51.131  14.018  0.00  0.00     0.095 C 
ATOM    126  S2  SGN d 301     -31.775  46.950  15.415  0.00  0.00     0.251 S 
ATOM    127  O4  SGN d 301     -32.202  51.050  12.727  0.00  0.00    -0.348 OA
ATOM    128  H   SGN d 301     -33.778  55.840  18.500  0.00  0.00     0.231 HD
ATOM    129  H   SGN d 301     -34.229  52.641  13.460  0.00  0.00     0.089 H 
ATOM    130  H   SGN d 301     -34.497  50.225  13.332  0.00  0.00     0.090 H 
ATOM    131  H   SGN d 301     -34.205  47.925  14.110  0.00  0.00     0.080 H 
ATOM    132  H   SGN d 301     -32.845  48.449  13.147  0.00  0.00     0.080 H 
ATOM    133  H   SGN d 301     -33.728  53.479  19.220  0.00  0.00     0.231 HD
ATOM    134  H   SGN d 301     -31.849  53.418  14.774  0.00  0.00     0.210 HD
ATOM    135  H   SGN d 301     -35.905  54.619  18.998  0.00  0.00     0.231 HD
ATOM    136  H   SGN d 301     -35.608  51.390  16.601  0.00  0.00     0.131 H 
ATOM    137  H   SGN d 301     -35.665  53.755  15.762  0.00  0.00     0.140 HD
ATOM    138  H   SGN d 301     -35.696  51.671  13.748  0.00  0.00     0.212 HD
ATOM    139  H   SGN d 301     -33.305  52.328  16.323  0.00  0.00     0.076 H 
ATOM    140  H   SGN d 301     -31.980  51.011  14.736  0.00  0.00     0.091 H 
ATOM    141  S   IDS d 304     -24.147  57.500  16.091  0.00  0.00     0.252 S 
ATOM    142  O62 IDS d 304     -20.618  52.239  12.601  0.00  0.00    -0.646 OA
ATOM    143  O1S IDS d 304     -25.453  57.308  15.577  0.00  0.00    -0.572 OA
ATOM    144  O2  IDS d 304     -23.423  56.160  15.923  0.00  0.00    -0.244 OA
ATOM    145  O3  IDS d 304     -23.910  52.625  16.056  0.00  0.00    -0.390 OA
ATOM    146  C5  IDS d 304     -22.209  53.607  13.703  0.00  0.00     0.152 C 
ATOM    147  O5  IDS d 304     -22.799  54.812  13.365  0.00  0.00    -0.340 OA
ATOM    148  O3S IDS d 304     -23.383  58.398  15.326  0.00  0.00    -0.572 OA
ATOM    149  O4  IDS d 304     -20.983  54.558  15.533  0.00  0.00    -0.348 OA
ATOM    150  C3  IDS d 304     -23.145  53.809  16.044  0.00  0.00     0.094 C 
ATOM    151  C2  IDS d 304     -23.992  54.964  15.470  0.00  0.00     0.134 C 
ATOM    152  C1  IDS d 304     -24.076  55.012  13.944  0.00  0.00     0.161 C 
ATOM    153  O2S IDS d 304     -24.146  57.821  17.481  0.00  0.00    -0.572 OA
ATOM    154  O61 IDS d 304     -20.429  54.233  12.241  0.00  0.00    -0.646 OA
ATOM    155  C4  IDS d 304     -21.905  53.570  15.207  0.00  0.00     0.103 C 
ATOM    156  C6  IDS d 304     -21.021  53.344  12.792  0.00  0.00     0.206 C 
ATOM    157  H   IDS d 304     -24.709  52.761  16.588  0.00  0.00     0.210 HD
ATOM    158  H   IDS d 304     -22.879  52.789  13.539  0.00  0.00     0.104 H 
ATOM    159  H   IDS d 304     -22.850  54.078  17.037  0.00  0.00     0.091 H 
ATOM    160  H   IDS d 304     -24.996  54.812  15.808  0.00  0.00     0.097 H 
ATOM    161  H   IDS d 304     -24.412  55.981  13.639  0.00  0.00     0.133 H 
ATOM    162  H   IDS d 304     -21.519  52.594  15.418  0.00  0.00     0.092 H 
ENDROOT
TORSDOF 51
ENDMDL
MODEL 17
REMARK VINA RESULT:      -9.2      3.827     15.255
REMARK  0 active torsions:
REMARK  status: ('A' for Active; 'I' for Inactive)
REMARK       I    between atoms: N_2  and  C2_29 
REMARK       I    between atoms: N_2  and  S1_49 
REMARK       I    between atoms: S_3  and  O2_103 
REMARK       I    between atoms: C5_6  and  C6_92 
REMARK       I    between atoms: C4_8  and  O4_100 
REMARK       I    between atoms: C2_9  and  O2_103 
REMARK       I    between atoms: O1S_10  and  S1_36 
REMARK       I    between atoms: O2S_11  and  S1_93 
REMARK       I    between atoms: C3_12  and  O3_54 
REMARK       I    between atoms: O4_13  and  C4_20 
REMARK       I    between atoms: O4_13  and  C1_26 
REMARK       I    between atoms: O6_15  and  C6_46 
REMARK       I    between atoms: O6_15  and  S2_104 
REMARK       I    between atoms: C5_16  and  C6_46 
REMARK       I    between atoms: C4_17  and  O4_90 
REMARK       I    between atoms: S_18  and  O2_62 
REMARK       I    between atoms: C3_19  and  O3_68 
REMARK       I    between atoms: S2_25  and  O6_53 
REMARK       I    between atoms: O4_27  and  C4_69 
REMARK       I    between atoms: O4_27  and  C1_89 
REMARK       I    between atoms: O3_28  and  C3_37 
REMARK       I    between atoms: C1_30  and  O4_73 
REMARK       I    between atoms: O2S_32  and  S1_49 
REMARK       I    between atoms: S_33  and  O2_48 
REMARK       I    between atoms: C6_34  and  C5_43 
REMARK       I    between atoms: C6_34  and  O6_60 
REMARK       I    between atoms: S1_36  and  N_85 
REMARK       I    between atoms: S1_36  and  O2S_63 
REMARK       I    between atoms: S1_36  and  O3S_74 
REMARK       I    between atoms: C6_40  and  C5_94 
REMARK       I    between atoms: O3S_42  and  S1_49 
REMARK       I    between atoms: C5_44  and  C6_99 
REMARK       I    between atoms: C1_47  and  O4_106 
REMARK       I    between atoms: O2_48  and  C2_57 
REMARK       I    between atoms: S1_49  and  O1S_55 
REMARK       I    between atoms: O1S_51  and  S1_93 
REMARK       I    between atoms: C3_52  and  O3_87 
REMARK       I    between atoms: O6_53  and  C6_92 
REMARK       I    between atoms: O3S_56  and  S1_93 
REMARK       I    between atoms: O3_58  and  C3_98 
REMARK       I    between atoms: C1_59  and  O1_81 
REMARK       I    between atoms: O6_60  and  S2_65 
REMARK       I    between atoms: O2_62  and  C2_77 
REMARK       I    between atoms: O3_64  and  C3_75 
REMARK       I    between atoms: C5_67  and  C6_101 
REMARK       I    between atoms: O4_73  and  C4_96 
REMARK       I    between atoms: C2_76  and  N_85 
REMARK       I    between atoms: N_78  and  C2_91 
REMARK       I    between atoms: N_78  and  S1_93 
REMARK       I    between atoms: C1_80  and  O4_100 
REMARK       I    between atoms: C4_102  and  O4_106 
ROOT
ATOM      1  O5S SGN d 305     -25.975  43.996  17.326  0.00  0.00    -0.572 OA
ATOM      2  C5  SGN d 305     -25.755  47.135  14.003  0.00  0.00     0.091 C 
ATOM      3  O1S SGN d 305     -22.161  44.511  11.535  0.00  0.00    -0.296 OA
ATOM      4  O4  SGN d 305     -27.710  46.609  12.853  0.00  0.00    -0.348 OA
ATOM      5  C4  SGN d 305     -26.365  46.302  12.924  0.00  0.00     0.095 C 
ATOM      6  O5  SGN d 305     -24.431  46.768  14.167  0.00  0.00    -0.349 OA
ATOM      7  S2  SGN d 305     -26.777  45.172  17.079  0.00  0.00     0.251 S 
ATOM      8  O3  SGN d 305     -26.203  46.078  10.559  0.00  0.00    -0.391 OA
ATOM      9  C1  SGN d 305     -23.639  46.997  13.020  0.00  0.00     0.150 C 
ATOM     10  S1  SGN d 305     -22.143  45.506  10.515  0.00  0.00     0.156 S 
ATOM     11  C3  SGN d 305     -25.656  46.722  11.661  0.00  0.00     0.083 C 
ATOM     12  O6  SGN d 305     -26.388  45.678  15.684  0.00  0.00    -0.254 OA
ATOM     13  O2S SGN d 305     -22.312  44.944   9.239  0.00  0.00    -0.296 OA
ATOM     14  O4S SGN d 305     -28.189  44.900  16.975  0.00  0.00    -0.572 OA
ATOM     15  O3S SGN d 305     -21.009  46.342  10.636  0.00  0.00    -0.296 OA
ATOM     16  C2  SGN d 305     -24.247  46.266  11.843  0.00  0.00     0.081 C 
ATOM     17  N   SGN d 305     -23.437  46.467  10.678  0.00  0.00    -0.210 NA
ATOM     18  C6  SGN d 305     -26.407  47.012  15.334  0.00  0.00     0.067 C 
ATOM     19  O6S SGN d 305     -26.443  46.267  17.984  0.00  0.00    -0.572 OA
ATOM     20  H   SGN d 305     -25.878  48.147  13.679  0.00  0.00     0.090 H 
ATOM     21  H   SGN d 305     -22.947  43.953  11.428  0.00  0.00     0.231 HD
ATOM     22  H   SGN d 305     -26.270  45.249  13.089  0.00  0.00     0.091 H 
ATOM     23  H   SGN d 305     -27.119  46.371  10.436  0.00  0.00     0.210 HD
ATOM     24  H   SGN d 305     -22.652  46.626  13.204  0.00  0.00     0.131 H 
ATOM     25  H   SGN d 305     -25.738  47.776  11.494  0.00  0.00     0.089 H 
ATOM     26  H   SGN d 305     -23.106  44.386   9.235  0.00  0.00     0.231 HD
ATOM     27  H   SGN d 305     -20.959  46.690  11.539  0.00  0.00     0.231 HD
ATOM     28  H   SGN d 305     -24.272  45.212  12.021  0.00  0.00     0.076 H 
ATOM     29  H   SGN d 305     -24.030  46.327   9.861  0.00  0.00     0.140 HD
ATOM     30  H   SGN d 305     -27.417  47.362  15.279  0.00  0.00     0.080 H 
ATOM     31  H   SGN d 305     -25.888  47.599  16.063  0.00  0.00     0.080 H 
ATOM     32  N   SGN d 303     -22.417  55.669  16.873  0.00  0.00    -0.210 NA
ATOM     33  C4  SGN d 303     -22.023  53.636  13.686  0.00  0.00     0.095 C 
ATOM     34  C2  SGN d 303     -22.416  55.393  15.447  0.00  0.00     0.081 C 
ATOM     35  O5S SGN d 303     -24.214  54.921   9.818  0.00  0.00    -0.572 OA
ATOM     36  O2S SGN d 303     -24.468  56.868  17.512  0.00  0.00    -0.296 OA
ATOM     37  C6  SGN d 303     -20.965  54.524  11.555  0.00  0.00     0.067 C 
ATOM     38  O3S SGN d 303     -22.438  57.244  18.720  0.00  0.00    -0.296 OA
ATOM     39  C5  SGN d 303     -21.038  54.623  13.069  0.00  0.00     0.091 C 
ATOM     40  S1  SGN d 303     -23.051  57.068  17.438  0.00  0.00     0.156 S 
ATOM     41  O6S SGN d 303     -22.440  56.542   9.800  0.00  0.00    -0.572 OA
ATOM     42  O1S SGN d 303     -22.720  58.114  16.512  0.00  0.00    -0.296 OA
ATOM     43  O3  SGN d 303     -23.134  53.133  15.742  0.00  0.00    -0.391 OA
ATOM     44  O6  SGN d 303     -22.284  54.581  11.107  0.00  0.00    -0.254 OA
ATOM     45  S2  SGN d 303     -22.806  55.169   9.787  0.00  0.00     0.251 S 
ATOM     46  O5  SGN d 303     -21.401  55.964  13.373  0.00  0.00    -0.349 OA
ATOM     47  C1  SGN d 303     -21.393  56.265  14.751  0.00  0.00     0.150 C 
ATOM     48  O4S SGN d 303     -22.156  54.472   8.730  0.00  0.00    -0.572 OA
ATOM     49  C3  SGN d 303     -22.105  53.925  15.190  0.00  0.00     0.083 C 
ATOM     50  O4  SGN d 303     -21.522  52.342  13.495  0.00  0.00    -0.348 OA
ATOM     51  H   SGN d 303     -21.444  55.643  17.179  0.00  0.00     0.140 HD
ATOM     52  H   SGN d 303     -22.991  53.726  13.239  0.00  0.00     0.091 H 
ATOM     53  H   SGN d 303     -23.388  55.612  15.056  0.00  0.00     0.076 H 
ATOM     54  H   SGN d 303     -24.662  56.157  18.143  0.00  0.00     0.231 HD
ATOM     55  H   SGN d 303     -20.512  53.600  11.263  0.00  0.00     0.080 H 
ATOM     56  H   SGN d 303     -20.373  55.311  11.137  0.00  0.00     0.080 H 
ATOM     57  H   SGN d 303     -22.694  56.514  19.304  0.00  0.00     0.231 HD
ATOM     58  H   SGN d 303     -20.089  54.365  13.489  0.00  0.00     0.090 H 
ATOM     59  H   SGN d 303     -23.160  57.946  15.664  0.00  0.00     0.231 HD
ATOM     60  H   SGN d 303     -22.943  52.196  15.582  0.00  0.00     0.210 HD
ATOM     61  H   SGN d 303     -21.641  57.300  14.865  0.00  0.00     0.131 H 
ATOM     62  H   SGN d 303     -21.162  53.695  15.640  0.00  0.00     0.089 H 
ATOM     63  S   IDS d 302     -18.856  55.427  19.247  0.00  0.00     0.252 S 
ATOM     64  O2S IDS d 302     -19.923  54.486  19.293  0.00  0.00    -0.572 OA
ATOM     65  O62 IDS d 302     -18.811  56.963  12.187  0.00  0.00    -0.646 OA
ATOM     66  C2  IDS d 302     -17.872  56.759  17.250  0.00  0.00     0.134 C 
ATOM     67  O5  IDS d 302     -17.400  55.615  15.204  0.00  0.00    -0.340 OA
ATOM     68  O1S IDS d 302     -19.140  56.656  19.909  0.00  0.00    -0.572 OA
ATOM     69  O4  IDS d 302     -20.120  56.092  15.341  0.00  0.00    -0.348 OA
ATOM     70  O3S IDS d 302     -17.619  54.862  19.651  0.00  0.00    -0.572 OA
ATOM     71  C5  IDS d 302     -18.005  56.634  14.426  0.00  0.00     0.152 C 
ATOM     72  C1  IDS d 302     -16.829  56.078  16.415  0.00  0.00     0.161 C 
ATOM     73  C3  IDS d 302     -18.752  57.730  16.463  0.00  0.00     0.094 C 
ATOM     74  C4  IDS d 302     -19.214  57.153  15.138  0.00  0.00     0.103 C 
ATOM     75  O3  IDS d 302     -17.993  58.877  16.186  0.00  0.00    -0.390 OA
ATOM     76  O61 IDS d 302     -17.983  55.054  12.615  0.00  0.00    -0.646 OA
ATOM     77  C6  IDS d 302     -18.282  56.186  12.993  0.00  0.00     0.206 C 
ATOM     78  O2  IDS d 302     -18.695  55.801  17.772  0.00  0.00    -0.244 OA
ATOM     79  H   IDS d 302     -17.351  57.322  17.996  0.00  0.00     0.097 H 
ATOM     80  H   IDS d 302     -17.318  57.448  14.320  0.00  0.00     0.104 H 
ATOM     81  H   IDS d 302     -16.450  55.224  16.936  0.00  0.00     0.133 H 
ATOM     82  H   IDS d 302     -19.618  57.940  17.054  0.00  0.00     0.091 H 
ATOM     83  H   IDS d 302     -19.709  57.911  14.569  0.00  0.00     0.092 H 
ATOM     84  H   IDS d 302     -17.223  58.634  15.650  0.00  0.00     0.210 HD
ATOM     85  O5  IDS d 306     -28.951  44.652  12.958  0.00  0.00    -0.340 OA
ATOM     86  C4  IDS d 306     -30.847  45.676  11.860  0.00  0.00     0.097 C 
ATOM     87  C3  IDS d 306     -30.810  46.832  12.925  0.00  0.00     0.094 C 
ATOM     88  C1  IDS d 306     -28.543  45.806  13.654  0.00  0.00     0.161 C 
ATOM     89  S   IDS d 306     -31.564  46.659  15.895  0.00  0.00     0.252 S 
ATOM     90  O3S IDS d 306     -31.430  46.161  17.248  0.00  0.00    -0.572 OA
ATOM     91  C6  IDS d 306     -29.457  43.725  10.801  0.00  0.00     0.206 C 
ATOM     92  O61 IDS d 306     -28.583  42.875  10.944  0.00  0.00    -0.646 OA
ATOM     93  O2  IDS d 306     -30.416  46.009  15.092  0.00  0.00    -0.244 OA
ATOM     94  C2  IDS d 306     -29.755  46.625  14.039  0.00  0.00     0.134 C 
ATOM     95  O62 IDS d 306     -30.286  43.565   9.913  0.00  0.00    -0.646 OA
ATOM     96  O3  IDS d 306     -30.526  48.080  12.305  0.00  0.00    -0.390 OA
ATOM     97  O2S IDS d 306     -32.797  46.242  15.254  0.00  0.00    -0.572 OA
ATOM     98  O4  IDS d 306     -31.788  44.715  12.310  0.00  0.00    -0.390 OA
ATOM     99  C5  IDS d 306     -29.484  44.964  11.700  0.00  0.00     0.152 C 
ATOM    100  O1S IDS d 306     -31.317  48.085  15.758  0.00  0.00    -0.572 OA
ATOM    101  H   IDS d 306     -31.103  46.103  10.914  0.00  0.00     0.091 H 
ATOM    102  H   IDS d 306     -31.782  46.823  13.370  0.00  0.00     0.091 H 
ATOM    103  H   IDS d 306     -28.005  45.492  14.524  0.00  0.00     0.133 H 
ATOM    104  H   IDS d 306     -29.352  47.586  14.283  0.00  0.00     0.097 H 
ATOM    105  H   IDS d 306     -29.639  48.051  11.913  0.00  0.00     0.210 HD
ATOM    106  H   IDS d 306     -31.505  44.363  13.169  0.00  0.00     0.210 HD
ATOM    107  H   IDS d 306     -28.879  45.678  11.182  0.00  0.00     0.104 H 
ATOM    108  O2S SGN d 301     -12.479  55.007  10.548  0.00  0.00    -0.296 OA
ATOM    109  C3  SGN d 301     -14.185  56.851  14.347  0.00  0.00     0.083 C 
ATOM    110  O6S SGN d 301     -12.359  53.980  20.109  0.00  0.00    -0.572 OA
ATOM    111  O6  SGN d 301     -13.542  54.848  18.202  0.00  0.00    -0.254 OA
ATOM    112  C5  SGN d 301     -13.416  56.721  16.715  0.00  0.00     0.091 C 
ATOM    113  O5  SGN d 301     -12.167  56.197  16.257  0.00  0.00    -0.350 OA
ATOM    114  O5S SGN d 301     -14.090  52.652  19.062  0.00  0.00    -0.572 OA
ATOM    115  C6  SGN d 301     -13.563  56.255  18.162  0.00  0.00     0.067 C 
ATOM    116  O1S SGN d 301     -11.646  54.066  12.589  0.00  0.00    -0.296 OA
ATOM    117  O3  SGN d 301     -15.186  56.513  13.424  0.00  0.00    -0.391 OA
ATOM    118  O3S SGN d 301     -10.366  55.727  11.446  0.00  0.00    -0.296 OA
ATOM    119  C1  SGN d 301     -11.820  56.615  14.948  0.00  0.00     0.147 C 
ATOM    120  N   SGN d 301     -12.451  56.443  12.577  0.00  0.00    -0.210 NA
ATOM    121  O1  SGN d 301     -11.710  58.058  14.899  0.00  0.00    -0.369 OA
ATOM    122  O4S SGN d 301     -14.672  54.620  20.322  0.00  0.00    -0.572 OA
ATOM    123  C2  SGN d 301     -12.878  56.160  13.955  0.00  0.00     0.081 C 
ATOM    124  S1  SGN d 301     -11.691  55.234  11.735  0.00  0.00     0.156 S 
ATOM    125  C4  SGN d 301     -14.576  56.329  15.755  0.00  0.00     0.095 C 
ATOM    126  S2  SGN d 301     -13.672  53.967  19.500  0.00  0.00     0.251 S 
ATOM    127  O4  SGN d 301     -15.765  56.949  16.191  0.00  0.00    -0.348 OA
ATOM    128  H   SGN d 301     -12.071  54.303  10.020  0.00  0.00     0.231 HD
ATOM    129  H   SGN d 301     -14.072  57.915  14.353  0.00  0.00     0.089 H 
ATOM    130  H   SGN d 301     -13.453  57.790  16.704  0.00  0.00     0.090 H 
ATOM    131  H   SGN d 301     -12.754  56.641  18.746  0.00  0.00     0.080 H 
ATOM    132  H   SGN d 301     -14.490  56.611  18.561  0.00  0.00     0.080 H 
ATOM    133  H   SGN d 301     -11.205  53.340  12.121  0.00  0.00     0.231 HD
ATOM    134  H   SGN d 301     -15.299  55.550  13.409  0.00  0.00     0.210 HD
ATOM    135  H   SGN d 301      -9.872  55.055  10.950  0.00  0.00     0.231 HD
ATOM    136  H   SGN d 301     -10.878  56.177  14.691  0.00  0.00     0.131 H 
ATOM    137  H   SGN d 301     -11.809  57.236  12.614  0.00  0.00     0.140 HD
ATOM    138  H   SGN d 301     -12.564  58.455  15.133  0.00  0.00     0.212 HD
ATOM    139  H   SGN d 301     -13.025  55.101  13.987  0.00  0.00     0.076 H 
ATOM    140  H   SGN d 301     -14.735  55.271  15.736  0.00  0.00     0.091 H 
ATOM    141  S   IDS d 304     -21.333  50.388   9.577  0.00  0.00     0.252 S 
ATOM    142  O62 IDS d 304     -25.094  49.995  15.742  0.00  0.00    -0.646 OA
ATOM    143  O1S IDS d 304     -20.584  51.566   9.817  0.00  0.00    -0.572 OA
ATOM    144  O2  IDS d 304     -21.726  49.847  10.956  0.00  0.00    -0.244 OA
ATOM    145  O3  IDS d 304     -20.556  49.478  14.309  0.00  0.00    -0.390 OA
ATOM    146  C5  IDS d 304     -23.477  50.369  14.052  0.00  0.00     0.152 C 
ATOM    147  O5  IDS d 304     -23.462  51.192  12.939  0.00  0.00    -0.340 OA
ATOM    148  O3S IDS d 304     -22.563  50.640   8.947  0.00  0.00    -0.572 OA
ATOM    149  O4  IDS d 304     -23.534  48.360  12.742  0.00  0.00    -0.348 OA
ATOM    150  C3  IDS d 304     -21.396  49.200  13.213  0.00  0.00     0.094 C 
ATOM    151  C2  IDS d 304     -21.311  50.355  12.192  0.00  0.00     0.134 C 
ATOM    152  C1  IDS d 304     -22.163  51.580  12.526  0.00  0.00     0.161 C 
ATOM    153  O2S IDS d 304     -20.571  49.378   8.917  0.00  0.00    -0.572 OA
ATOM    154  O61 IDS d 304     -25.857  50.474  13.917  0.00  0.00    -0.646 OA
ATOM    155  C4  IDS d 304     -22.811  49.025  13.726  0.00  0.00     0.103 C 
ATOM    156  C6  IDS d 304     -24.890  50.280  14.604  0.00  0.00     0.206 C 
ATOM    157  H   IDS d 304     -19.645  49.593  13.998  0.00  0.00     0.210 HD
ATOM    158  H   IDS d 304     -22.888  50.781  14.844  0.00  0.00     0.104 H 
ATOM    159  H   IDS d 304     -21.090  48.301  12.719  0.00  0.00     0.091 H 
ATOM    160  H   IDS d 304     -20.299  50.700  12.197  0.00  0.00     0.097 H 
ATOM    161  H   IDS d 304     -22.279  52.180  11.648  0.00  0.00     0.133 H 
ATOM    162  H   IDS d 304     -22.789  48.465  14.638  0.00  0.00     0.092 H 
ENDROOT
TORSDOF 51
ENDMDL
MODEL 18
REMARK VINA RESULT:      -9.1      4.251      7.429
REMARK  0 active torsions:
REMARK  status: ('A' for Active; 'I' for Inactive)
REMARK       I    between atoms: N_2  and  C2_29 
REMARK       I    between atoms: N_2  and  S1_49 
REMARK       I    between atoms: S_3  and  O2_103 
REMARK       I    between atoms: C5_6  and  C6_92 
REMARK       I    between atoms: C4_8  and  O4_100 
REMARK       I    between atoms: C2_9  and  O2_103 
REMARK       I    between atoms: O1S_10  and  S1_36 
REMARK       I    between atoms: O2S_11  and  S1_93 
REMARK       I    between atoms: C3_12  and  O3_54 
REMARK       I    between atoms: O4_13  and  C4_20 
REMARK       I    between atoms: O4_13  and  C1_26 
REMARK       I    between atoms: O6_15  and  C6_46 
REMARK       I    between atoms: O6_15  and  S2_104 
REMARK       I    between atoms: C5_16  and  C6_46 
REMARK       I    between atoms: C4_17  and  O4_90 
REMARK       I    between atoms: S_18  and  O2_62 
REMARK       I    between atoms: C3_19  and  O3_68 
REMARK       I    between atoms: S2_25  and  O6_53 
REMARK       I    between atoms: O4_27  and  C4_69 
REMARK       I    between atoms: O4_27  and  C1_89 
REMARK       I    between atoms: O3_28  and  C3_37 
REMARK       I    between atoms: C1_30  and  O4_73 
REMARK       I    between atoms: O2S_32  and  S1_49 
REMARK       I    between atoms: S_33  and  O2_48 
REMARK       I    between atoms: C6_34  and  C5_43 
REMARK       I    between atoms: C6_34  and  O6_60 
REMARK       I    between atoms: S1_36  and  N_85 
REMARK       I    between atoms: S1_36  and  O2S_63 
REMARK       I    between atoms: S1_36  and  O3S_74 
REMARK       I    between atoms: C6_40  and  C5_94 
REMARK       I    between atoms: O3S_42  and  S1_49 
REMARK       I    between atoms: C5_44  and  C6_99 
REMARK       I    between atoms: C1_47  and  O4_106 
REMARK       I    between atoms: O2_48  and  C2_57 
REMARK       I    between atoms: S1_49  and  O1S_55 
REMARK       I    between atoms: O1S_51  and  S1_93 
REMARK       I    between atoms: C3_52  and  O3_87 
REMARK       I    between atoms: O6_53  and  C6_92 
REMARK       I    between atoms: O3S_56  and  S1_93 
REMARK       I    between atoms: O3_58  and  C3_98 
REMARK       I    between atoms: C1_59  and  O1_81 
REMARK       I    between atoms: O6_60  and  S2_65 
REMARK       I    between atoms: O2_62  and  C2_77 
REMARK       I    between atoms: O3_64  and  C3_75 
REMARK       I    between atoms: C5_67  and  C6_101 
REMARK       I    between atoms: O4_73  and  C4_96 
REMARK       I    between atoms: C2_76  and  N_85 
REMARK       I    between atoms: N_78  and  C2_91 
REMARK       I    between atoms: N_78  and  S1_93 
REMARK       I    between atoms: C1_80  and  O4_100 
REMARK       I    between atoms: C4_102  and  O4_106 
ROOT
ATOM      1  O5S SGN d 305     -19.412  47.650  20.437  0.00  0.00    -0.572 OA
ATOM      2  C5  SGN d 305     -19.749  50.085  16.577  0.00  0.00     0.091 C 
ATOM      3  O1S SGN d 305     -19.912  54.467  19.159  0.00  0.00    -0.296 OA
ATOM      4  O4  SGN d 305     -17.540  49.955  15.852  0.00  0.00    -0.348 OA
ATOM      5  C4  SGN d 305     -18.392  50.709  16.635  0.00  0.00     0.095 C 
ATOM      6  O5  SGN d 305     -20.595  50.759  17.439  0.00  0.00    -0.349 OA
ATOM      7  S2  SGN d 305     -19.333  47.247  19.052  0.00  0.00     0.251 S 
ATOM      8  O3  SGN d 305     -17.352  52.742  15.964  0.00  0.00    -0.391 OA
ATOM      9  C1  SGN d 305     -20.787  52.115  17.093  0.00  0.00     0.150 C 
ATOM     10  S1  SGN d 305     -19.995  55.183  17.930  0.00  0.00     0.156 S 
ATOM     11  C3  SGN d 305     -18.572  52.087  16.051  0.00  0.00     0.083 C 
ATOM     12  O6  SGN d 305     -19.266  48.538  18.226  0.00  0.00    -0.254 OA
ATOM     13  O2S SGN d 305     -19.016  56.185  17.845  0.00  0.00    -0.296 OA
ATOM     14  O4S SGN d 305     -18.114  46.552  18.720  0.00  0.00    -0.572 OA
ATOM     15  O3S SGN d 305     -21.313  55.636  17.690  0.00  0.00    -0.296 OA
ATOM     16  C2  SGN d 305     -19.443  52.806  17.027  0.00  0.00     0.081 C 
ATOM     17  N   SGN d 305     -19.626  54.190  16.704  0.00  0.00    -0.210 NA
ATOM     18  C6  SGN d 305     -19.795  48.649  16.957  0.00  0.00     0.067 C 
ATOM     19  O6S SGN d 305     -20.547  46.574  18.603  0.00  0.00    -0.572 OA
ATOM     20  H   SGN d 305     -20.044  50.154  15.551  0.00  0.00     0.090 H 
ATOM     21  H   SGN d 305     -19.000  54.169  19.298  0.00  0.00     0.231 HD
ATOM     22  H   SGN d 305     -17.984  50.757  17.623  0.00  0.00     0.091 H 
ATOM     23  H   SGN d 305     -16.781  52.279  15.331  0.00  0.00     0.210 HD
ATOM     24  H   SGN d 305     -21.395  52.579  17.842  0.00  0.00     0.131 H 
ATOM     25  H   SGN d 305     -18.990  52.048  15.067  0.00  0.00     0.089 H 
ATOM     26  H   SGN d 305     -18.143  55.800  18.021  0.00  0.00     0.231 HD
ATOM     27  H   SGN d 305     -21.930  54.891  17.766  0.00  0.00     0.231 HD
ATOM     28  H   SGN d 305     -18.952  52.775  17.977  0.00  0.00     0.076 H 
ATOM     29  H   SGN d 305     -18.759  54.526  16.285  0.00  0.00     0.140 HD
ATOM     30  H   SGN d 305     -19.217  48.070  16.268  0.00  0.00     0.080 H 
ATOM     31  H   SGN d 305     -20.802  48.286  16.937  0.00  0.00     0.080 H 
ATOM     32  N   SGN d 303     -27.909  48.652  11.723  0.00  0.00    -0.210 NA
ATOM     33  C4  SGN d 303     -25.729  51.702  12.346  0.00  0.00     0.095 C 
ATOM     34  C2  SGN d 303     -27.137  49.840  11.402  0.00  0.00     0.081 C 
ATOM     35  O5S SGN d 303     -23.098  53.416   8.948  0.00  0.00    -0.572 OA
ATOM     36  O2S SGN d 303     -27.320  46.810  10.203  0.00  0.00    -0.296 OA
ATOM     37  C6  SGN d 303     -26.026  53.928  11.158  0.00  0.00     0.067 C 
ATOM     38  O3S SGN d 303     -29.531  46.955  11.105  0.00  0.00    -0.296 OA
ATOM     39  C5  SGN d 303     -26.692  52.649  11.637  0.00  0.00     0.091 C 
ATOM     40  S1  SGN d 303     -28.426  47.661  10.528  0.00  0.00     0.156 S 
ATOM     41  O6S SGN d 303     -25.231  54.255   8.228  0.00  0.00    -0.572 OA
ATOM     42  O1S SGN d 303     -28.807  48.474   9.407  0.00  0.00    -0.296 OA
ATOM     43  O3  SGN d 303     -25.562  49.461  13.160  0.00  0.00    -0.391 OA
ATOM     44  O6  SGN d 303     -24.896  53.525  10.448  0.00  0.00    -0.254 OA
ATOM     45  S2  SGN d 303     -24.240  54.221   9.246  0.00  0.00     0.251 S 
ATOM     46  O5  SGN d 303     -27.262  52.032  10.489  0.00  0.00    -0.349 OA
ATOM     47  C1  SGN d 303     -28.033  50.886  10.774  0.00  0.00     0.150 C 
ATOM     48  O4S SGN d 303     -23.884  55.534   9.664  0.00  0.00    -0.572 OA
ATOM     49  C3  SGN d 303     -26.484  50.405  12.657  0.00  0.00     0.083 C 
ATOM     50  O4  SGN d 303     -25.335  52.302  13.548  0.00  0.00    -0.348 OA
ATOM     51  H   SGN d 303     -28.740  48.967  12.224  0.00  0.00     0.140 HD
ATOM     52  H   SGN d 303     -24.873  51.497  11.738  0.00  0.00     0.091 H 
ATOM     53  H   SGN d 303     -26.370  49.571  10.706  0.00  0.00     0.076 H 
ATOM     54  H   SGN d 303     -27.085  46.275  10.976  0.00  0.00     0.231 HD
ATOM     55  H   SGN d 303     -25.745  54.536  11.992  0.00  0.00     0.080 H 
ATOM     56  H   SGN d 303     -26.685  54.511  10.551  0.00  0.00     0.080 H 
ATOM     57  H   SGN d 303     -29.220  46.423  11.854  0.00  0.00     0.231 HD
ATOM     58  H   SGN d 303     -27.435  52.887  12.369  0.00  0.00     0.090 H 
ATOM     59  H   SGN d 303     -28.024  48.928   9.057  0.00  0.00     0.231 HD
ATOM     60  H   SGN d 303     -25.142  49.814  13.959  0.00  0.00     0.210 HD
ATOM     61  H   SGN d 303     -28.443  50.525   9.853  0.00  0.00     0.131 H 
ATOM     62  H   SGN d 303     -27.250  50.611  13.374  0.00  0.00     0.089 H 
ATOM     63  S   IDS d 302     -31.428  48.809  14.167  0.00  0.00     0.252 S 
ATOM     64  O2S IDS d 302     -30.178  48.271  14.584  0.00  0.00    -0.572 OA
ATOM     65  O62 IDS d 302     -29.151  54.361  10.142  0.00  0.00    -0.646 OA
ATOM     66  C2  IDS d 302     -31.962  50.830  12.629  0.00  0.00     0.134 C 
ATOM     67  O5  IDS d 302     -30.806  52.895  12.973  0.00  0.00    -0.340 OA
ATOM     68  O1S IDS d 302     -32.155  47.962  13.281  0.00  0.00    -0.572 OA
ATOM     69  O4  IDS d 302     -29.131  51.162  11.619  0.00  0.00    -0.348 OA
ATOM     70  O3S IDS d 302     -32.214  49.263  15.257  0.00  0.00    -0.572 OA
ATOM     71  C5  IDS d 302     -30.555  53.053  11.587  0.00  0.00     0.152 C 
ATOM     72  C1  IDS d 302     -31.999  52.187  13.265  0.00  0.00     0.161 C 
ATOM     73  C3  IDS d 302     -31.480  50.843  11.179  0.00  0.00     0.094 C 
ATOM     74  C4  IDS d 302     -30.258  51.718  10.980  0.00  0.00     0.103 C 
ATOM     75  O3  IDS d 302     -32.512  51.364  10.384  0.00  0.00    -0.390 OA
ATOM     76  O61 IDS d 302     -28.947  54.721  12.225  0.00  0.00    -0.646 OA
ATOM     77  C6  IDS d 302     -29.487  54.107  11.306  0.00  0.00     0.206 C 
ATOM     78  O2  IDS d 302     -31.091  50.050  13.337  0.00  0.00    -0.244 OA
ATOM     79  H   IDS d 302     -32.965  50.458  12.637  0.00  0.00     0.097 H 
ATOM     80  H   IDS d 302     -31.435  53.435  11.114  0.00  0.00     0.104 H 
ATOM     81  H   IDS d 302     -32.059  52.088  14.328  0.00  0.00     0.133 H 
ATOM     82  H   IDS d 302     -31.219  49.841  10.911  0.00  0.00     0.091 H 
ATOM     83  H   IDS d 302     -30.041  51.803   9.935  0.00  0.00     0.092 H 
ATOM     84  H   IDS d 302     -32.710  52.271  10.665  0.00  0.00     0.210 HD
ATOM     85  O5  IDS d 306     -15.658  49.393  17.086  0.00  0.00    -0.340 OA
ATOM     86  C4  IDS d 306     -14.325  49.067  15.094  0.00  0.00     0.097 C 
ATOM     87  C3  IDS d 306     -15.426  48.087  14.545  0.00  0.00     0.094 C 
ATOM     88  C1  IDS d 306     -16.866  48.925  16.533  0.00  0.00     0.161 C 
ATOM     89  S   IDS d 306     -16.094  45.271  15.568  0.00  0.00     0.252 S 
ATOM     90  O3S IDS d 306     -16.528  44.314  16.564  0.00  0.00    -0.572 OA
ATOM     91  C6  IDS d 306     -13.853  50.958  16.842  0.00  0.00     0.206 C 
ATOM     92  O61 IDS d 306     -14.109  51.449  17.937  0.00  0.00    -0.646 OA
ATOM     93  O2  IDS d 306     -16.238  46.660  16.228  0.00  0.00    -0.244 OA
ATOM     94  C2  IDS d 306     -16.579  47.817  15.543  0.00  0.00     0.134 C 
ATOM     95  O62 IDS d 306     -12.773  51.220  16.325  0.00  0.00    -0.646 OA
ATOM     96  O3  IDS d 306     -16.012  48.601  13.356  0.00  0.00    -0.390 OA
ATOM     97  O2S IDS d 306     -14.694  45.130  15.215  0.00  0.00    -0.572 OA
ATOM     98  O4  IDS d 306     -13.335  48.277  15.732  0.00  0.00    -0.390 OA
ATOM     99  C5  IDS d 306     -14.877  50.067  16.136  0.00  0.00     0.152 C 
ATOM    100  O1S IDS d 306     -16.959  45.352  14.403  0.00  0.00    -0.572 OA
ATOM    101  H   IDS d 306     -13.944  49.633  14.271  0.00  0.00     0.091 H 
ATOM    102  H   IDS d 306     -14.908  47.168  14.367  0.00  0.00     0.091 H 
ATOM    103  H   IDS d 306     -17.477  48.568  17.335  0.00  0.00     0.133 H 
ATOM    104  H   IDS d 306     -17.482  47.736  14.976  0.00  0.00     0.097 H 
ATOM    105  H   IDS d 306     -16.471  49.431  13.556  0.00  0.00     0.210 HD
ATOM    106  H   IDS d 306     -13.736  47.788  16.468  0.00  0.00     0.210 HD
ATOM    107  H   IDS d 306     -15.464  50.748  15.555  0.00  0.00     0.104 H 
ATOM    108  O2S SGN d 301     -32.028  59.566  13.495  0.00  0.00    -0.296 OA
ATOM    109  C3  SGN d 301     -33.421  55.288  12.785  0.00  0.00     0.083 C 
ATOM    110  O6S SGN d 301     -35.793  52.024  18.123  0.00  0.00    -0.572 OA
ATOM    111  O6  SGN d 301     -34.543  52.781  16.212  0.00  0.00    -0.254 OA
ATOM    112  C5  SGN d 301     -34.958  53.830  14.100  0.00  0.00     0.091 C 
ATOM    113  O5  SGN d 301     -35.394  54.983  14.825  0.00  0.00    -0.350 OA
ATOM    114  O5S SGN d 301     -33.374  52.036  18.198  0.00  0.00    -0.572 OA
ATOM    115  C6  SGN d 301     -35.245  52.631  15.002  0.00  0.00     0.067 C 
ATOM    116  O1S SGN d 301     -33.043  58.507  15.390  0.00  0.00    -0.296 OA
ATOM    117  O3  SGN d 301     -32.107  55.500  12.342  0.00  0.00    -0.391 OA
ATOM    118  O3S SGN d 301     -34.342  59.968  14.016  0.00  0.00    -0.296 OA
ATOM    119  C1  SGN d 301     -35.289  56.191  14.092  0.00  0.00     0.147 C 
ATOM    120  N   SGN d 301     -33.694  57.767  13.082  0.00  0.00    -0.210 NA
ATOM    121  O1  SGN d 301     -36.101  56.119  12.896  0.00  0.00    -0.369 OA
ATOM    122  O4S SGN d 301     -34.534  50.444  16.812  0.00  0.00    -0.572 OA
ATOM    123  C2  SGN d 301     -33.842  56.440  13.699  0.00  0.00     0.081 C 
ATOM    124  S1  SGN d 301     -33.244  59.031  14.055  0.00  0.00     0.156 S 
ATOM    125  C4  SGN d 301     -33.484  53.987  13.629  0.00  0.00     0.095 C 
ATOM    126  S2  SGN d 301     -34.560  51.763  17.412  0.00  0.00     0.251 S 
ATOM    127  O4  SGN d 301     -33.133  52.875  12.836  0.00  0.00    -0.348 OA
ATOM    128  H   SGN d 301     -31.725  60.313  14.034  0.00  0.00     0.231 HD
ATOM    129  H   SGN d 301     -34.062  55.219  11.931  0.00  0.00     0.089 H 
ATOM    130  H   SGN d 301     -35.485  53.689  13.180  0.00  0.00     0.090 H 
ATOM    131  H   SGN d 301     -36.295  52.578  15.202  0.00  0.00     0.080 H 
ATOM    132  H   SGN d 301     -34.930  51.732  14.514  0.00  0.00     0.080 H 
ATOM    133  H   SGN d 301     -32.780  59.227  15.984  0.00  0.00     0.231 HD
ATOM    134  H   SGN d 301     -31.514  55.563  13.107  0.00  0.00     0.210 HD
ATOM    135  H   SGN d 301     -34.133  60.734  14.573  0.00  0.00     0.231 HD
ATOM    136  H   SGN d 301     -35.634  56.993  14.709  0.00  0.00     0.131 H 
ATOM    137  H   SGN d 301     -34.592  58.010  12.664  0.00  0.00     0.140 HD
ATOM    138  H   SGN d 301     -35.789  55.391  12.336  0.00  0.00     0.212 HD
ATOM    139  H   SGN d 301     -33.194  56.458  14.551  0.00  0.00     0.076 H 
ATOM    140  H   SGN d 301     -32.807  54.039  14.456  0.00  0.00     0.091 H 
ATOM    141  S   IDS d 304     -22.725  55.816  13.744  0.00  0.00     0.252 S 
ATOM    142  O62 IDS d 304     -22.491  48.713  15.084  0.00  0.00    -0.646 OA
ATOM    143  O1S IDS d 304     -23.993  55.911  13.120  0.00  0.00    -0.572 OA
ATOM    144  O2  IDS d 304     -22.763  54.540  14.592  0.00  0.00    -0.244 OA
ATOM    145  O3  IDS d 304     -24.902  52.545  16.640  0.00  0.00    -0.390 OA
ATOM    146  C5  IDS d 304     -23.123  50.966  14.708  0.00  0.00     0.152 C 
ATOM    147  O5  IDS d 304     -23.073  51.775  13.587  0.00  0.00    -0.340 OA
ATOM    148  O3S IDS d 304     -21.681  55.588  12.832  0.00  0.00    -0.572 OA
ATOM    149  O4  IDS d 304     -21.453  52.235  15.874  0.00  0.00    -0.348 OA
ATOM    150  C3  IDS d 304     -23.661  52.982  16.137  0.00  0.00     0.094 C 
ATOM    151  C2  IDS d 304     -23.876  53.717  14.797  0.00  0.00     0.134 C 
ATOM    152  C1  IDS d 304     -24.042  52.809  13.578  0.00  0.00     0.161 C 
ATOM    153  O2S IDS d 304     -22.462  56.911  14.621  0.00  0.00    -0.572 OA
ATOM    154  O61 IDS d 304     -21.381  49.692  13.688  0.00  0.00    -0.646 OA
ATOM    155  C4  IDS d 304     -22.763  51.775  15.961  0.00  0.00     0.103 C 
ATOM    156  C6  IDS d 304     -22.288  49.717  14.476  0.00  0.00     0.206 C 
ATOM    157  H   IDS d 304     -25.490  53.308  16.758  0.00  0.00     0.210 HD
ATOM    158  H   IDS d 304     -24.117  50.614  14.886  0.00  0.00     0.104 H 
ATOM    159  H   IDS d 304     -23.197  53.667  16.817  0.00  0.00     0.091 H 
ATOM    160  H   IDS d 304     -24.797  54.255  14.881  0.00  0.00     0.097 H 
ATOM    161  H   IDS d 304     -23.883  53.380  12.687  0.00  0.00     0.133 H 
ATOM    162  H   IDS d 304     -22.888  51.118  16.797  0.00  0.00     0.092 H 
ENDROOT
TORSDOF 51
ENDMDL
MODEL 19
REMARK VINA RESULT:      -9.0      3.799     15.280
REMARK  0 active torsions:
REMARK  status: ('A' for Active; 'I' for Inactive)
REMARK       I    between atoms: N_2  and  C2_29 
REMARK       I    between atoms: N_2  and  S1_49 
REMARK       I    between atoms: S_3  and  O2_103 
REMARK       I    between atoms: C5_6  and  C6_92 
REMARK       I    between atoms: C4_8  and  O4_100 
REMARK       I    between atoms: C2_9  and  O2_103 
REMARK       I    between atoms: O1S_10  and  S1_36 
REMARK       I    between atoms: O2S_11  and  S1_93 
REMARK       I    between atoms: C3_12  and  O3_54 
REMARK       I    between atoms: O4_13  and  C4_20 
REMARK       I    between atoms: O4_13  and  C1_26 
REMARK       I    between atoms: O6_15  and  C6_46 
REMARK       I    between atoms: O6_15  and  S2_104 
REMARK       I    between atoms: C5_16  and  C6_46 
REMARK       I    between atoms: C4_17  and  O4_90 
REMARK       I    between atoms: S_18  and  O2_62 
REMARK       I    between atoms: C3_19  and  O3_68 
REMARK       I    between atoms: S2_25  and  O6_53 
REMARK       I    between atoms: O4_27  and  C4_69 
REMARK       I    between atoms: O4_27  and  C1_89 
REMARK       I    between atoms: O3_28  and  C3_37 
REMARK       I    between atoms: C1_30  and  O4_73 
REMARK       I    between atoms: O2S_32  and  S1_49 
REMARK       I    between atoms: S_33  and  O2_48 
REMARK       I    between atoms: C6_34  and  C5_43 
REMARK       I    between atoms: C6_34  and  O6_60 
REMARK       I    between atoms: S1_36  and  N_85 
REMARK       I    between atoms: S1_36  and  O2S_63 
REMARK       I    between atoms: S1_36  and  O3S_74 
REMARK       I    between atoms: C6_40  and  C5_94 
REMARK       I    between atoms: O3S_42  and  S1_49 
REMARK       I    between atoms: C5_44  and  C6_99 
REMARK       I    between atoms: C1_47  and  O4_106 
REMARK       I    between atoms: O2_48  and  C2_57 
REMARK       I    between atoms: S1_49  and  O1S_55 
REMARK       I    between atoms: O1S_51  and  S1_93 
REMARK       I    between atoms: C3_52  and  O3_87 
REMARK       I    between atoms: O6_53  and  C6_92 
REMARK       I    between atoms: O3S_56  and  S1_93 
REMARK       I    between atoms: O3_58  and  C3_98 
REMARK       I    between atoms: C1_59  and  O1_81 
REMARK       I    between atoms: O6_60  and  S2_65 
REMARK       I    between atoms: O2_62  and  C2_77 
REMARK       I    between atoms: O3_64  and  C3_75 
REMARK       I    between atoms: C5_67  and  C6_101 
REMARK       I    between atoms: O4_73  and  C4_96 
REMARK       I    between atoms: C2_76  and  N_85 
REMARK       I    between atoms: N_78  and  C2_91 
REMARK       I    between atoms: N_78  and  S1_93 
REMARK       I    between atoms: C1_80  and  O4_100 
REMARK       I    between atoms: C4_102  and  O4_106 
ROOT
ATOM      1  O5S SGN d 305     -23.826  45.516   9.275  0.00  0.00    -0.572 OA
ATOM      2  C5  SGN d 305     -23.868  49.031  12.205  0.00  0.00     0.091 C 
ATOM      3  O1S SGN d 305     -25.623  52.203   8.633  0.00  0.00    -0.296 OA
ATOM      4  O4  SGN d 305     -25.767  48.479  13.434  0.00  0.00    -0.348 OA
ATOM      5  C4  SGN d 305     -25.352  49.165  12.309  0.00  0.00     0.095 C 
ATOM      6  O5  SGN d 305     -23.440  49.618  11.028  0.00  0.00    -0.349 OA
ATOM      7  S2  SGN d 305     -23.571  45.568  10.696  0.00  0.00     0.251 S 
ATOM      8  O3  SGN d 305     -26.950  50.893  12.667  0.00  0.00    -0.391 OA
ATOM      9  C1  SGN d 305     -23.700  51.005  10.966  0.00  0.00     0.150 C 
ATOM     10  S1  SGN d 305     -25.637  53.261   9.588  0.00  0.00     0.156 S 
ATOM     11  C3  SGN d 305     -25.599  50.644  12.466  0.00  0.00     0.083 C 
ATOM     12  O6  SGN d 305     -23.983  46.971  11.161  0.00  0.00    -0.254 OA
ATOM     13  O2S SGN d 305     -26.888  53.895   9.641  0.00  0.00    -0.296 OA
ATOM     14  O4S SGN d 305     -24.406  44.682  11.468  0.00  0.00    -0.572 OA
ATOM     15  O3S SGN d 305     -24.547  54.141   9.391  0.00  0.00    -0.296 OA
ATOM     16  C2  SGN d 305     -25.180  51.243  11.165  0.00  0.00     0.081 C 
ATOM     17  N   SGN d 305     -25.461  52.646  11.076  0.00  0.00    -0.210 NA
ATOM     18  C6  SGN d 305     -23.364  47.633  12.201  0.00  0.00     0.067 C 
ATOM     19  O6S SGN d 305     -22.149  45.471  11.005  0.00  0.00    -0.572 OA
ATOM     20  H   SGN d 305     -23.482  49.507  13.082  0.00  0.00     0.090 H 
ATOM     21  H   SGN d 305     -26.378  51.616   8.791  0.00  0.00     0.231 HD
ATOM     22  H   SGN d 305     -25.879  48.773  11.464  0.00  0.00     0.091 H 
ATOM     23  H   SGN d 305     -27.228  50.506  13.512  0.00  0.00     0.210 HD
ATOM     24  H   SGN d 305     -23.403  51.368  10.003  0.00  0.00     0.131 H 
ATOM     25  H   SGN d 305     -25.067  51.046  13.303  0.00  0.00     0.089 H 
ATOM     26  H   SGN d 305     -27.581  53.230   9.777  0.00  0.00     0.231 HD
ATOM     27  H   SGN d 305     -23.722  53.633   9.365  0.00  0.00     0.231 HD
ATOM     28  H   SGN d 305     -25.749  50.766  10.396  0.00  0.00     0.076 H 
ATOM     29  H   SGN d 305     -26.326  52.820  11.586  0.00  0.00     0.140 HD
ATOM     30  H   SGN d 305     -23.600  47.156  13.129  0.00  0.00     0.080 H 
ATOM     31  H   SGN d 305     -22.301  47.616  12.077  0.00  0.00     0.080 H 
ATOM     32  N   SGN d 303     -15.163  51.735  15.225  0.00  0.00    -0.210 NA
ATOM     33  C4  SGN d 303     -18.349  53.626  14.376  0.00  0.00     0.095 C 
ATOM     34  C2  SGN d 303     -16.257  52.673  15.406  0.00  0.00     0.081 C 
ATOM     35  O5S SGN d 303     -20.940  55.453  17.746  0.00  0.00    -0.572 OA
ATOM     36  O2S SGN d 303     -14.849  50.384  17.256  0.00  0.00    -0.296 OA
ATOM     37  C6  SGN d 303     -18.709  56.093  14.859  0.00  0.00     0.067 C 
ATOM     38  O3S SGN d 303     -12.976  50.893  15.857  0.00  0.00    -0.296 OA
ATOM     39  C5  SGN d 303     -17.702  54.992  14.578  0.00  0.00     0.091 C 
ATOM     40  S1  SGN d 303     -14.172  51.379  16.477  0.00  0.00     0.156 S 
ATOM     41  O6S SGN d 303     -19.170  57.077  17.713  0.00  0.00    -0.572 OA
ATOM     42  O1S SGN d 303     -13.961  52.579  17.235  0.00  0.00    -0.296 OA
ATOM     43  O3  SGN d 303     -17.814  51.302  14.218  0.00  0.00    -0.391 OA
ATOM     44  O6  SGN d 303     -19.516  55.616  15.891  0.00  0.00    -0.254 OA
ATOM     45  S2  SGN d 303     -20.210  56.426  16.996  0.00  0.00     0.251 S 
ATOM     46  O5  SGN d 303     -16.802  54.972  15.679  0.00  0.00    -0.349 OA
ATOM     47  C1  SGN d 303     -15.718  54.083  15.523  0.00  0.00     0.150 C 
ATOM     48  O4S SGN d 303     -21.063  57.367  16.355  0.00  0.00    -0.572 OA
ATOM     49  C3  SGN d 303     -17.230  52.587  14.237  0.00  0.00     0.083 C 
ATOM     50  O4  SGN d 303     -19.088  53.665  13.187  0.00  0.00    -0.348 OA
ATOM     51  H   SGN d 303     -14.574  52.110  14.481  0.00  0.00     0.140 HD
ATOM     52  H   SGN d 303     -18.987  53.376  15.199  0.00  0.00     0.091 H 
ATOM     53  H   SGN d 303     -16.778  52.421  16.306  0.00  0.00     0.076 H 
ATOM     54  H   SGN d 303     -14.978  49.586  16.719  0.00  0.00     0.231 HD
ATOM     55  H   SGN d 303     -19.297  56.292  13.987  0.00  0.00     0.080 H 
ATOM     56  H   SGN d 303     -18.226  57.009  15.128  0.00  0.00     0.080 H 
ATOM     57  H   SGN d 303     -13.174  50.084  15.360  0.00  0.00     0.231 HD
ATOM     58  H   SGN d 303     -17.197  55.197  13.658  0.00  0.00     0.090 H 
ATOM     59  H   SGN d 303     -14.799  52.863  17.632  0.00  0.00     0.231 HD
ATOM     60  H   SGN d 303     -18.435  51.239  13.476  0.00  0.00     0.210 HD
ATOM     61  H   SGN d 303     -15.088  54.174  16.383  0.00  0.00     0.131 H 
ATOM     62  H   SGN d 303     -16.691  52.775  13.333  0.00  0.00     0.089 H 
ATOM     63  S   IDS d 302     -12.291  52.161  12.071  0.00  0.00     0.252 S 
ATOM     64  O2S IDS d 302     -13.311  51.169  12.106  0.00  0.00    -0.572 OA
ATOM     65  O62 IDS d 302     -15.837  57.745  14.976  0.00  0.00    -0.646 OA
ATOM     66  C2  IDS d 302     -12.312  54.626  12.879  0.00  0.00     0.134 C 
ATOM     67  O5  IDS d 302     -14.162  56.027  12.303  0.00  0.00    -0.340 OA
ATOM     68  O1S IDS d 302     -11.199  51.898  12.948  0.00  0.00    -0.572 OA
ATOM     69  O4  IDS d 302     -14.913  54.393  14.403  0.00  0.00    -0.348 OA
ATOM     70  O3S IDS d 302     -11.871  52.459  10.749  0.00  0.00    -0.572 OA
ATOM     71  C5  IDS d 302     -14.266  56.533  13.623  0.00  0.00     0.152 C 
ATOM     72  C1  IDS d 302     -12.846  55.657  11.930  0.00  0.00     0.161 C 
ATOM     73  C3  IDS d 302     -12.569  54.953  14.350  0.00  0.00     0.094 C 
ATOM     74  C4  IDS d 302     -13.985  55.436  14.600  0.00  0.00     0.103 C 
ATOM     75  O3  IDS d 302     -11.694  55.984  14.724  0.00  0.00    -0.390 OA
ATOM     76  O61 IDS d 302     -16.433  57.348  12.977  0.00  0.00    -0.646 OA
ATOM     77  C6  IDS d 302     -15.592  57.249  13.869  0.00  0.00     0.206 C 
ATOM     78  O2  IDS d 302     -12.934  53.438  12.615  0.00  0.00    -0.244 OA
ATOM     79  H   IDS d 302     -11.252  54.591  12.732  0.00  0.00     0.097 H 
ATOM     80  H   IDS d 302     -13.526  57.292  13.766  0.00  0.00     0.104 H 
ATOM     81  H   IDS d 302     -12.897  55.249  10.943  0.00  0.00     0.133 H 
ATOM     82  H   IDS d 302     -12.418  54.058  14.915  0.00  0.00     0.091 H 
ATOM     83  H   IDS d 302     -14.075  55.777  15.610  0.00  0.00     0.092 H 
ATOM     84  H   IDS d 302     -11.872  56.771  14.185  0.00  0.00     0.210 HD
ATOM     85  O5  IDS d 306     -27.472  47.016  12.855  0.00  0.00    -0.340 OA
ATOM     86  C4  IDS d 306     -28.323  46.953  15.119  0.00  0.00     0.097 C 
ATOM     87  C3  IDS d 306     -26.882  46.577  15.625  0.00  0.00     0.094 C 
ATOM     88  C1  IDS d 306     -26.115  47.134  13.212  0.00  0.00     0.161 C 
ATOM     89  S   IDS d 306     -25.398  43.921  15.222  0.00  0.00     0.252 S 
ATOM     90  O3S IDS d 306     -24.788  42.875  14.427  0.00  0.00    -0.572 OA
ATOM     91  C6  IDS d 306     -29.666  47.958  13.109  0.00  0.00     0.206 C 
ATOM     92  O61 IDS d 306     -29.750  48.130  11.896  0.00  0.00    -0.646 OA
ATOM     93  O2  IDS d 306     -25.847  45.005  14.217  0.00  0.00    -0.244 OA
ATOM     94  C2  IDS d 306     -25.853  46.365  14.488  0.00  0.00     0.134 C 
ATOM     95  O62 IDS d 306     -30.690  48.032  13.779  0.00  0.00    -0.646 OA
ATOM     96  O3  IDS d 306     -26.365  47.592  16.475  0.00  0.00    -0.390 OA
ATOM     97  O2S IDS d 306     -26.595  43.485  15.915  0.00  0.00    -0.572 OA
ATOM     98  O4  IDS d 306     -29.043  45.743  14.950  0.00  0.00    -0.390 OA
ATOM     99  C5  IDS d 306     -28.308  47.688  13.758  0.00  0.00     0.152 C 
ATOM    100  O1S IDS d 306     -24.471  44.623  16.094  0.00  0.00    -0.572 OA
ATOM    101  H   IDS d 306     -28.767  47.609  15.837  0.00  0.00     0.091 H 
ATOM    102  H   IDS d 306     -27.010  45.651  16.145  0.00  0.00     0.091 H 
ATOM    103  H   IDS d 306     -25.529  46.743  12.406  0.00  0.00     0.133 H 
ATOM    104  H   IDS d 306     -24.913  46.743  14.831  0.00  0.00     0.097 H 
ATOM    105  H   IDS d 306     -26.263  48.414  15.971  0.00  0.00     0.210 HD
ATOM    106  H   IDS d 306     -28.595  45.190  14.290  0.00  0.00     0.210 HD
ATOM    107  H   IDS d 306     -27.930  48.661  13.995  0.00  0.00     0.104 H 
ATOM    108  O2S SGN d 301     -15.479  62.230   9.841  0.00  0.00    -0.296 OA
ATOM    109  C3  SGN d 301     -12.572  59.026  11.265  0.00  0.00     0.083 C 
ATOM    110  O6S SGN d 301      -9.927  55.112   6.526  0.00  0.00    -0.572 OA
ATOM    111  O6  SGN d 301     -11.098  56.022   8.420  0.00  0.00    -0.254 OA
ATOM    112  C5  SGN d 301     -10.806  57.760  10.041  0.00  0.00     0.091 C 
ATOM    113  O5  SGN d 301     -10.911  58.698   8.967  0.00  0.00    -0.350 OA
ATOM    114  O5S SGN d 301     -12.178  54.371   7.016  0.00  0.00    -0.572 OA
ATOM    115  C6  SGN d 301     -10.234  56.482   9.430  0.00  0.00     0.067 C 
ATOM    116  O1S SGN d 301     -14.416  60.982   8.092  0.00  0.00    -0.296 OA
ATOM    117  O3  SGN d 301     -13.804  58.962  11.934  0.00  0.00    -0.391 OA
ATOM    118  O3S SGN d 301     -13.552  63.122   8.710  0.00  0.00    -0.296 OA
ATOM    119  C1  SGN d 301     -11.341  59.986   9.374  0.00  0.00     0.147 C 
ATOM    120  N   SGN d 301     -13.243  61.243  10.296  0.00  0.00    -0.210 NA
ATOM    121  O1  SGN d 301     -10.404  60.545  10.327  0.00  0.00    -0.369 OA
ATOM    122  O4S SGN d 301     -10.354  53.727   8.450  0.00  0.00    -0.572 OA
ATOM    123  C2  SGN d 301     -12.715  59.899  10.018  0.00  0.00     0.081 C 
ATOM    124  S1  SGN d 301     -14.238  61.937   9.167  0.00  0.00     0.156 S 
ATOM    125  C4  SGN d 301     -12.163  57.607  10.787  0.00  0.00     0.095 C 
ATOM    126  S2  SGN d 301     -10.880  54.732   7.547  0.00  0.00     0.251 S 
ATOM    127  O4  SGN d 301     -11.986  56.753  11.895  0.00  0.00    -0.348 OA
ATOM    128  H   SGN d 301     -16.098  62.640   9.216  0.00  0.00     0.231 HD
ATOM    129  H   SGN d 301     -11.840  59.428  11.935  0.00  0.00     0.089 H 
ATOM    130  H   SGN d 301     -10.146  58.084  10.818  0.00  0.00     0.090 H 
ATOM    131  H   SGN d 301      -9.271  56.687   9.012  0.00  0.00     0.080 H 
ATOM    132  H   SGN d 301     -10.140  55.734  10.190  0.00  0.00     0.080 H 
ATOM    133  H   SGN d 301     -14.996  61.362   7.414  0.00  0.00     0.231 HD
ATOM    134  H   SGN d 301     -14.476  58.598  11.337  0.00  0.00     0.210 HD
ATOM    135  H   SGN d 301     -14.093  63.572   8.042  0.00  0.00     0.231 HD
ATOM    136  H   SGN d 301     -11.390  60.616   8.511  0.00  0.00     0.131 H 
ATOM    137  H   SGN d 301     -12.443  61.865  10.417  0.00  0.00     0.140 HD
ATOM    138  H   SGN d 301     -10.359  59.973  11.109  0.00  0.00     0.212 HD
ATOM    139  H   SGN d 301     -13.434  59.450   9.364  0.00  0.00     0.076 H 
ATOM    140  H   SGN d 301     -12.918  57.188  10.155  0.00  0.00     0.091 H 
ATOM    141  S   IDS d 304     -22.780  55.979  12.722  0.00  0.00     0.252 S 
ATOM    142  O62 IDS d 304     -20.643  49.095  13.316  0.00  0.00    -0.646 OA
ATOM    143  O1S IDS d 304     -21.558  56.644  12.989  0.00  0.00    -0.572 OA
ATOM    144  O2  IDS d 304     -22.403  54.574  12.240  0.00  0.00    -0.244 OA
ATOM    145  O3  IDS d 304     -19.987  52.774  10.324  0.00  0.00    -0.390 OA
ATOM    146  C5  IDS d 304     -20.812  51.431  12.952  0.00  0.00     0.152 C 
ATOM    147  O5  IDS d 304     -20.997  52.499  13.811  0.00  0.00    -0.340 OA
ATOM    148  O3S IDS d 304     -23.542  55.749  13.879  0.00  0.00    -0.572 OA
ATOM    149  O4  IDS d 304     -22.964  51.701  11.925  0.00  0.00    -0.348 OA
ATOM    150  C3  IDS d 304     -21.224  52.953  10.974  0.00  0.00     0.094 C 
ATOM    151  C2  IDS d 304     -21.108  54.104  11.996  0.00  0.00     0.134 C 
ATOM    152  C1  IDS d 304     -20.468  53.723  13.332  0.00  0.00     0.161 C 
ATOM    153  O2S IDS d 304     -23.530  56.607  11.683  0.00  0.00    -0.572 OA
ATOM    154  O61 IDS d 304     -21.833  50.084  14.637  0.00  0.00    -0.646 OA
ATOM    155  C4  IDS d 304     -21.600  51.652  11.654  0.00  0.00     0.103 C 
ATOM    156  C6  IDS d 304     -21.108  50.130  13.680  0.00  0.00     0.206 C 
ATOM    157  H   IDS d 304     -19.731  53.600   9.883  0.00  0.00     0.210 HD
ATOM    158  H   IDS d 304     -19.791  51.357  12.642  0.00  0.00     0.104 H 
ATOM    159  H   IDS d 304     -21.987  53.214  10.271  0.00  0.00     0.091 H 
ATOM    160  H   IDS d 304     -20.459  54.837  11.567  0.00  0.00     0.097 H 
ATOM    161  H   IDS d 304     -20.700  54.472  14.061  0.00  0.00     0.133 H 
ATOM    162  H   IDS d 304     -21.362  50.834  11.006  0.00  0.00     0.092 H 
ENDROOT
TORSDOF 51
ENDMDL
MODEL 20
REMARK VINA RESULT:      -8.9      4.125      8.974
REMARK  0 active torsions:
REMARK  status: ('A' for Active; 'I' for Inactive)
REMARK       I    between atoms: N_2  and  C2_29 
REMARK       I    between atoms: N_2  and  S1_49 
REMARK       I    between atoms: S_3  and  O2_103 
REMARK       I    between atoms: C5_6  and  C6_92 
REMARK       I    between atoms: C4_8  and  O4_100 
REMARK       I    between atoms: C2_9  and  O2_103 
REMARK       I    between atoms: O1S_10  and  S1_36 
REMARK       I    between atoms: O2S_11  and  S1_93 
REMARK       I    between atoms: C3_12  and  O3_54 
REMARK       I    between atoms: O4_13  and  C4_20 
REMARK       I    between atoms: O4_13  and  C1_26 
REMARK       I    between atoms: O6_15  and  C6_46 
REMARK       I    between atoms: O6_15  and  S2_104 
REMARK       I    between atoms: C5_16  and  C6_46 
REMARK       I    between atoms: C4_17  and  O4_90 
REMARK       I    between atoms: S_18  and  O2_62 
REMARK       I    between atoms: C3_19  and  O3_68 
REMARK       I    between atoms: S2_25  and  O6_53 
REMARK       I    between atoms: O4_27  and  C4_69 
REMARK       I    between atoms: O4_27  and  C1_89 
REMARK       I    between atoms: O3_28  and  C3_37 
REMARK       I    between atoms: C1_30  and  O4_73 
REMARK       I    between atoms: O2S_32  and  S1_49 
REMARK       I    between atoms: S_33  and  O2_48 
REMARK       I    between atoms: C6_34  and  C5_43 
REMARK       I    between atoms: C6_34  and  O6_60 
REMARK       I    between atoms: S1_36  and  N_85 
REMARK       I    between atoms: S1_36  and  O2S_63 
REMARK       I    between atoms: S1_36  and  O3S_74 
REMARK       I    between atoms: C6_40  and  C5_94 
REMARK       I    between atoms: O3S_42  and  S1_49 
REMARK       I    between atoms: C5_44  and  C6_99 
REMARK       I    between atoms: C1_47  and  O4_106 
REMARK       I    between atoms: O2_48  and  C2_57 
REMARK       I    between atoms: S1_49  and  O1S_55 
REMARK       I    between atoms: O1S_51  and  S1_93 
REMARK       I    between atoms: C3_52  and  O3_87 
REMARK       I    between atoms: O6_53  and  C6_92 
REMARK       I    between atoms: O3S_56  and  S1_93 
REMARK       I    between atoms: O3_58  and  C3_98 
REMARK       I    between atoms: C1_59  and  O1_81 
REMARK       I    between atoms: O6_60  and  S2_65 
REMARK       I    between atoms: O2_62  and  C2_77 
REMARK       I    between atoms: O3_64  and  C3_75 
REMARK       I    between atoms: C5_67  and  C6_101 
REMARK       I    between atoms: O4_73  and  C4_96 
REMARK       I    between atoms: C2_76  and  N_85 
REMARK       I    between atoms: N_78  and  C2_91 
REMARK       I    between atoms: N_78  and  S1_93 
REMARK       I    between atoms: C1_80  and  O4_100 
REMARK       I    between atoms: C4_102  and  O4_106 
ROOT
ATOM      1  O5S SGN d 305     -20.986  56.665  19.012  0.00  0.00    -0.572 OA
ATOM      2  C5  SGN d 305     -20.760  53.538  15.678  0.00  0.00     0.091 C 
ATOM      3  O1S SGN d 305     -23.279  56.559  12.448  0.00  0.00    -0.296 OA
ATOM      4  O4  SGN d 305     -18.531  53.805  15.058  0.00  0.00    -0.348 OA
ATOM      5  C4  SGN d 305     -19.803  54.277  14.799  0.00  0.00     0.095 C 
ATOM      6  O5  SGN d 305     -22.028  54.068  15.516  0.00  0.00    -0.349 OA
ATOM      7  S2  SGN d 305     -20.299  55.396  18.949  0.00  0.00     0.251 S 
ATOM      8  O3  SGN d 305     -19.346  54.491  12.473  0.00  0.00    -0.391 OA
ATOM      9  C1  SGN d 305     -22.532  53.927  14.204  0.00  0.00     0.150 C 
ATOM     10  S1  SGN d 305     -23.165  55.562  11.436  0.00  0.00     0.156 S 
ATOM     11  C3  SGN d 305     -20.223  53.934  13.392  0.00  0.00     0.083 C 
ATOM     12  O6  SGN d 305     -20.389  54.925  17.491  0.00  0.00    -0.254 OA
ATOM     13  O2S SGN d 305     -22.618  56.084  10.253  0.00  0.00    -0.296 OA
ATOM     14  O4S SGN d 305     -18.883  55.490  19.202  0.00  0.00    -0.572 OA
ATOM     15  O3S SGN d 305     -24.388  54.874  11.256  0.00  0.00    -0.296 OA
ATOM     16  C2  SGN d 305     -21.567  54.562  13.229  0.00  0.00     0.081 C 
ATOM     17  N   SGN d 305     -22.081  54.450  11.896  0.00  0.00    -0.210 NA
ATOM     18  C6  SGN d 305     -20.448  53.595  17.130  0.00  0.00     0.067 C 
ATOM     19  O6S SGN d 305     -20.979  54.361  19.721  0.00  0.00    -0.572 OA
ATOM     20  H   SGN d 305     -20.685  52.515  15.375  0.00  0.00     0.090 H 
ATOM     21  H   SGN d 305     -22.428  57.014  12.550  0.00  0.00     0.231 HD
ATOM     22  H   SGN d 305     -19.806  55.336  14.956  0.00  0.00     0.091 H 
ATOM     23  H   SGN d 305     -18.470  54.086  12.575  0.00  0.00     0.210 HD
ATOM     24  H   SGN d 305     -23.480  54.419  14.145  0.00  0.00     0.131 H 
ATOM     25  H   SGN d 305     -20.233  52.876  13.231  0.00  0.00     0.089 H 
ATOM     26  H   SGN d 305     -21.785  56.539  10.456  0.00  0.00     0.231 HD
ATOM     27  H   SGN d 305     -24.702  54.545  12.113  0.00  0.00     0.231 HD
ATOM     28  H   SGN d 305     -21.457  55.607  13.428  0.00  0.00     0.076 H 
ATOM     29  H   SGN d 305     -21.290  54.505  11.254  0.00  0.00     0.140 HD
ATOM     30  H   SGN d 305     -19.507  53.123  17.321  0.00  0.00     0.080 H 
ATOM     31  H   SGN d 305     -21.199  53.085  17.697  0.00  0.00     0.080 H 
ATOM     32  N   SGN d 303     -25.727  45.518  17.465  0.00  0.00    -0.210 NA
ATOM     33  C4  SGN d 303     -25.066  47.547  14.320  0.00  0.00     0.095 C 
ATOM     34  C2  SGN d 303     -25.341  45.775  16.088  0.00  0.00     0.081 C 
ATOM     35  O5S SGN d 303     -22.160  45.955  11.091  0.00  0.00    -0.572 OA
ATOM     36  O2S SGN d 303     -24.062  44.082  18.568  0.00  0.00    -0.296 OA
ATOM     37  C6  SGN d 303     -25.663  46.772  11.977  0.00  0.00     0.067 C 
ATOM     38  O3S SGN d 303     -26.359  43.974  19.229  0.00  0.00    -0.296 OA
ATOM     39  C5  SGN d 303     -25.981  46.683  13.459  0.00  0.00     0.091 C 
ATOM     40  S1  SGN d 303     -25.430  44.058  18.142  0.00  0.00     0.156 S 
ATOM     41  O6S SGN d 303     -24.059  44.566  10.602  0.00  0.00    -0.572 OA
ATOM     42  O1S SGN d 303     -25.647  43.050  17.143  0.00  0.00    -0.296 OA
ATOM     43  O3  SGN d 303     -24.447  47.933  16.596  0.00  0.00    -0.391 OA
ATOM     44  O6  SGN d 303     -24.292  46.546  11.868  0.00  0.00    -0.254 OA
ATOM     45  S2  SGN d 303     -23.535  45.883  10.707  0.00  0.00     0.251 S 
ATOM     46  O5  SGN d 303     -25.872  45.311  13.818  0.00  0.00    -0.349 OA
ATOM     47  C1  SGN d 303     -26.259  45.028  15.144  0.00  0.00     0.150 C 
ATOM     48  O4S SGN d 303     -23.812  46.643   9.536  0.00  0.00    -0.572 OA
ATOM     49  C3  SGN d 303     -25.396  47.268  15.791  0.00  0.00     0.083 C 
ATOM     50  O4  SGN d 303     -25.341  48.890  14.036  0.00  0.00    -0.348 OA
ATOM     51  H   SGN d 303     -26.735  45.668  17.521  0.00  0.00     0.140 HD
ATOM     52  H   SGN d 303     -24.036  47.332  14.125  0.00  0.00     0.091 H 
ATOM     53  H   SGN d 303     -24.337  45.433  15.946  0.00  0.00     0.076 H 
ATOM     54  H   SGN d 303     -23.945  44.771  19.241  0.00  0.00     0.231 HD
ATOM     55  H   SGN d 303     -25.913  47.742  11.600  0.00  0.00     0.080 H 
ATOM     56  H   SGN d 303     -26.225  46.060  11.410  0.00  0.00     0.080 H 
ATOM     57  H   SGN d 303     -26.168  44.674  19.872  0.00  0.00     0.231 HD
ATOM     58  H   SGN d 303     -26.966  47.061  13.636  0.00  0.00     0.090 H 
ATOM     59  H   SGN d 303     -24.994  43.152  16.433  0.00  0.00     0.231 HD
ATOM     60  H   SGN d 303     -24.476  48.884  16.412  0.00  0.00     0.210 HD
ATOM     61  H   SGN d 303     -26.176  43.973  15.296  0.00  0.00     0.131 H 
ATOM     62  H   SGN d 303     -26.385  47.618  15.998  0.00  0.00     0.089 H 
ATOM     63  S   IDS d 302     -29.708  46.227  18.888  0.00  0.00     0.252 S 
ATOM     64  O2S IDS d 302     -28.579  47.029  19.216  0.00  0.00    -0.572 OA
ATOM     65  O62 IDS d 302     -28.190  44.626  12.008  0.00  0.00    -0.646 OA
ATOM     66  C2  IDS d 302     -30.322  45.004  16.684  0.00  0.00     0.134 C 
ATOM     67  O5  IDS d 302     -30.128  46.173  14.608  0.00  0.00    -0.340 OA
ATOM     68  O1S IDS d 302     -29.750  44.980  19.575  0.00  0.00    -0.572 OA
ATOM     69  O4  IDS d 302     -27.607  45.365  15.404  0.00  0.00    -0.348 OA
ATOM     70  O3S IDS d 302     -30.928  46.945  18.984  0.00  0.00    -0.572 OA
ATOM     71  C5  IDS d 302     -29.479  45.078  13.984  0.00  0.00     0.152 C 
ATOM     72  C1  IDS d 302     -31.034  45.799  15.631  0.00  0.00     0.161 C 
ATOM     73  C3  IDS d 302     -29.401  43.923  16.120  0.00  0.00     0.094 C 
ATOM     74  C4  IDS d 302     -28.558  44.422  14.963  0.00  0.00     0.103 C 
ATOM     75  O3  IDS d 302     -30.203  42.875  15.643  0.00  0.00    -0.390 OA
ATOM     76  O61 IDS d 302     -28.857  46.628  12.255  0.00  0.00    -0.646 OA
ATOM     77  C6  IDS d 302     -28.803  45.472  12.673  0.00  0.00     0.206 C 
ATOM     78  O2  IDS d 302     -29.544  45.859  17.412  0.00  0.00    -0.244 OA
ATOM     79  H   IDS d 302     -31.077  44.519  17.267  0.00  0.00     0.097 H 
ATOM     80  H   IDS d 302     -30.213  44.355  13.695  0.00  0.00     0.104 H 
ATOM     81  H   IDS d 302     -31.423  46.700  16.058  0.00  0.00     0.133 H 
ATOM     82  H   IDS d 302     -28.741  43.613  16.904  0.00  0.00     0.091 H 
ATOM     83  H   IDS d 302     -28.034  43.602  14.519  0.00  0.00     0.092 H 
ATOM     84  H   IDS d 302     -30.780  43.206  14.937  0.00  0.00     0.210 HD
ATOM     85  O5  IDS d 306     -17.125  55.595  15.505  0.00  0.00    -0.340 OA
ATOM     86  C4  IDS d 306     -15.156  54.331  14.890  0.00  0.00     0.097 C 
ATOM     87  C3  IDS d 306     -15.598  53.200  15.890  0.00  0.00     0.094 C 
ATOM     88  C1  IDS d 306     -17.831  54.508  16.055  0.00  0.00     0.161 C 
ATOM     89  S   IDS d 306     -15.588  53.314  18.957  0.00  0.00     0.252 S 
ATOM     90  O3S IDS d 306     -15.991  53.840  20.244  0.00  0.00    -0.572 OA
ATOM     91  C6  IDS d 306     -15.989  56.426  13.559  0.00  0.00     0.206 C 
ATOM     92  O61 IDS d 306     -16.759  57.379  13.497  0.00  0.00    -0.646 OA
ATOM     93  O2  IDS d 306     -16.412  54.091  17.907  0.00  0.00    -0.244 OA
ATOM     94  C2  IDS d 306     -16.862  53.549  16.712  0.00  0.00     0.134 C 
ATOM     95  O62 IDS d 306     -14.952  56.472  12.907  0.00  0.00    -0.646 OA
ATOM     96  O3  IDS d 306     -15.870  51.991  15.195  0.00  0.00    -0.390 OA
ATOM     97  O2S IDS d 306     -14.193  53.567  18.650  0.00  0.00    -0.572 OA
ATOM     98  O4  IDS d 306     -14.245  55.173  15.578  0.00  0.00    -0.390 OA
ATOM     99  C5  IDS d 306     -16.338  55.204  14.411  0.00  0.00     0.152 C 
ATOM    100  O1S IDS d 306     -15.967  51.928  18.735  0.00  0.00    -0.572 OA
ATOM    101  H   IDS d 306     -14.727  53.864  14.028  0.00  0.00     0.091 H 
ATOM    102  H   IDS d 306     -14.773  53.094  16.562  0.00  0.00     0.091 H 
ATOM    103  H   IDS d 306     -18.524  54.897  16.771  0.00  0.00     0.133 H 
ATOM    104  H   IDS d 306     -17.428  52.648  16.830  0.00  0.00     0.097 H 
ATOM    105  H   IDS d 306     -16.621  52.124  14.596  0.00  0.00     0.210 HD
ATOM    106  H   IDS d 306     -14.687  55.567  16.347  0.00  0.00     0.210 HD
ATOM    107  H   IDS d 306     -16.879  54.565  13.746  0.00  0.00     0.104 H 
ATOM    108  O2S SGN d 301     -33.628  47.333   8.891  0.00  0.00    -0.296 OA
ATOM    109  C3  SGN d 301     -33.157  45.335  12.958  0.00  0.00     0.083 C 
ATOM    110  O6S SGN d 301     -35.987  48.478  18.143  0.00  0.00    -0.572 OA
ATOM    111  O6  SGN d 301     -34.484  47.447  16.572  0.00  0.00    -0.254 OA
ATOM    112  C5  SGN d 301     -34.467  45.588  15.064  0.00  0.00     0.091 C 
ATOM    113  O5  SGN d 301     -35.489  46.257  14.321  0.00  0.00    -0.350 OA
ATOM    114  O5S SGN d 301     -33.901  49.569  17.583  0.00  0.00    -0.572 OA
ATOM    115  C6  SGN d 301     -34.628  46.049  16.511  0.00  0.00     0.067 C 
ATOM    116  O1S SGN d 301     -34.818  48.393  10.681  0.00  0.00    -0.296 OA
ATOM    117  O3  SGN d 301     -31.924  45.537  12.318  0.00  0.00    -0.391 OA
ATOM    118  O3S SGN d 301     -35.969  46.890   9.224  0.00  0.00    -0.296 OA
ATOM    119  C1  SGN d 301     -35.550  45.870  12.959  0.00  0.00     0.147 C 
ATOM    120  N   SGN d 301     -34.335  45.934  10.822  0.00  0.00    -0.210 NA
ATOM    121  O1  SGN d 301     -35.821  44.451  12.857  0.00  0.00    -0.369 OA
ATOM    122  O4S SGN d 301     -33.897  47.559  18.910  0.00  0.00    -0.572 OA
ATOM    123  C2  SGN d 301     -34.231  46.178  12.268  0.00  0.00     0.081 C 
ATOM    124  S1  SGN d 301     -34.707  47.218   9.842  0.00  0.00     0.156 S 
ATOM    125  C4  SGN d 301     -33.066  45.822  14.429  0.00  0.00     0.095 C 
ATOM    126  S2  SGN d 301     -34.573  48.321  17.878  0.00  0.00     0.251 S 
ATOM    127  O4  SGN d 301     -32.109  45.064  15.133  0.00  0.00    -0.348 OA
ATOM    128  H   SGN d 301     -33.803  48.075   8.292  0.00  0.00     0.231 HD
ATOM    129  H   SGN d 301     -33.398  44.294  12.915  0.00  0.00     0.089 H 
ATOM    130  H   SGN d 301     -34.561  44.522  15.041  0.00  0.00     0.090 H 
ATOM    131  H   SGN d 301     -35.597  45.773  16.869  0.00  0.00     0.080 H 
ATOM    132  H   SGN d 301     -33.879  45.585  17.120  0.00  0.00     0.080 H 
ATOM    133  H   SGN d 301     -35.037  49.163  10.132  0.00  0.00     0.231 HD
ATOM    134  H   SGN d 301     -31.694  46.478  12.350  0.00  0.00     0.210 HD
ATOM    135  H   SGN d 301     -36.238  47.612   8.635  0.00  0.00     0.231 HD
ATOM    136  H   SGN d 301     -36.337  46.418  12.486  0.00  0.00     0.131 H 
ATOM    137  H   SGN d 301     -35.057  45.228  10.684  0.00  0.00     0.140 HD
ATOM    138  H   SGN d 301     -35.107  43.954  13.286  0.00  0.00     0.212 HD
ATOM    139  H   SGN d 301     -33.967  47.211  12.356  0.00  0.00     0.076 H 
ATOM    140  H   SGN d 301     -32.779  46.851  14.470  0.00  0.00     0.091 H 
ATOM    141  S   IDS d 304     -24.311  50.807  10.232  0.00  0.00     0.252 S 
ATOM    142  O62 IDS d 304     -22.177  50.804  17.143  0.00  0.00    -0.646 OA
ATOM    143  O1S IDS d 304     -25.235  49.734  10.256  0.00  0.00    -0.572 OA
ATOM    144  O2  IDS d 304     -24.209  51.312  11.676  0.00  0.00    -0.244 OA
ATOM    145  O3  IDS d 304     -26.120  51.862  14.642  0.00  0.00    -0.390 OA
ATOM    146  C5  IDS d 304     -23.358  50.612  15.098  0.00  0.00     0.152 C 
ATOM    147  O5  IDS d 304     -23.198  49.785  14.000  0.00  0.00    -0.340 OA
ATOM    148  O3S IDS d 304     -23.004  50.398   9.921  0.00  0.00    -0.572 OA
ATOM    149  O4  IDS d 304     -22.732  52.584  13.883  0.00  0.00    -0.348 OA
ATOM    150  C3  IDS d 304     -25.006  52.020  13.793  0.00  0.00     0.094 C 
ATOM    151  C2  IDS d 304     -24.977  50.873  12.761  0.00  0.00     0.134 C 
ATOM    152  C1  IDS d 304     -24.391  49.556  13.271  0.00  0.00     0.161 C 
ATOM    153  O2S IDS d 304     -24.755  51.896   9.424  0.00  0.00    -0.572 OA
ATOM    154  O61 IDS d 304     -21.050  50.212  15.555  0.00  0.00    -0.646 OA
ATOM    155  C4  IDS d 304     -23.752  52.025  14.644  0.00  0.00     0.103 C 
ATOM    156  C6  IDS d 304     -22.126  50.532  15.984  0.00  0.00     0.206 C 
ATOM    157  H   IDS d 304     -26.932  51.857  14.112  0.00  0.00     0.210 HD
ATOM    158  H   IDS d 304     -24.172  50.286  15.711  0.00  0.00     0.104 H 
ATOM    159  H   IDS d 304     -25.068  52.944  13.257  0.00  0.00     0.091 H 
ATOM    160  H   IDS d 304     -25.993  50.656  12.508  0.00  0.00     0.097 H 
ATOM    161  H   IDS d 304     -24.136  48.936  12.437  0.00  0.00     0.133 H 
ATOM    162  H   IDS d 304     -23.931  52.594  15.532  0.00  0.00     0.092 H 
ENDROOT
TORSDOF 51
ENDMDL
MODEL 21
REMARK VINA RESULT:      -8.3      4.117     15.421
REMARK  0 active torsions:
REMARK  status: ('A' for Active; 'I' for Inactive)
REMARK       I    between atoms: N_2  and  C2_29 
REMARK       I    between atoms: N_2  and  S1_49 
REMARK       I    between atoms: S_3  and  O2_103 
REMARK       I    between atoms: C5_6  and  C6_92 
REMARK       I    between atoms: C4_8  and  O4_100 
REMARK       I    between atoms: C2_9  and  O2_103 
REMARK       I    between atoms: O1S_10  and  S1_36 
REMARK       I    between atoms: O2S_11  and  S1_93 
REMARK       I    between atoms: C3_12  and  O3_54 
REMARK       I    between atoms: O4_13  and  C4_20 
REMARK       I    between atoms: O4_13  and  C1_26 
REMARK       I    between atoms: O6_15  and  C6_46 
REMARK       I    between atoms: O6_15  and  S2_104 
REMARK       I    between atoms: C5_16  and  C6_46 
REMARK       I    between atoms: C4_17  and  O4_90 
REMARK       I    between atoms: S_18  and  O2_62 
REMARK       I    between atoms: C3_19  and  O3_68 
REMARK       I    between atoms: S2_25  and  O6_53 
REMARK       I    between atoms: O4_27  and  C4_69 
REMARK       I    between atoms: O4_27  and  C1_89 
REMARK       I    between atoms: O3_28  and  C3_37 
REMARK       I    between atoms: C1_30  and  O4_73 
REMARK       I    between atoms: O2S_32  and  S1_49 
REMARK       I    between atoms: S_33  and  O2_48 
REMARK       I    between atoms: C6_34  and  C5_43 
REMARK       I    between atoms: C6_34  and  O6_60 
REMARK       I    between atoms: S1_36  and  N_85 
REMARK       I    between atoms: S1_36  and  O2S_63 
REMARK       I    between atoms: S1_36  and  O3S_74 
REMARK       I    between atoms: C6_40  and  C5_94 
REMARK       I    between atoms: O3S_42  and  S1_49 
REMARK       I    between atoms: C5_44  and  C6_99 
REMARK       I    between atoms: C1_47  and  O4_106 
REMARK       I    between atoms: O2_48  and  C2_57 
REMARK       I    between atoms: S1_49  and  O1S_55 
REMARK       I    between atoms: O1S_51  and  S1_93 
REMARK       I    between atoms: C3_52  and  O3_87 
REMARK       I    between atoms: O6_53  and  C6_92 
REMARK       I    between atoms: O3S_56  and  S1_93 
REMARK       I    between atoms: O3_58  and  C3_98 
REMARK       I    between atoms: C1_59  and  O1_81 
REMARK       I    between atoms: O6_60  and  S2_65 
REMARK       I    between atoms: O2_62  and  C2_77 
REMARK       I    between atoms: O3_64  and  C3_75 
REMARK       I    between atoms: C5_67  and  C6_101 
REMARK       I    between atoms: O4_73  and  C4_96 
REMARK       I    between atoms: C2_76  and  N_85 
REMARK       I    between atoms: N_78  and  C2_91 
REMARK       I    between atoms: N_78  and  S1_93 
REMARK       I    between atoms: C1_80  and  O4_100 
REMARK       I    between atoms: C4_102  and  O4_106 
ROOT
ATOM      1  O5S SGN d 305     -25.178  43.784  17.445  0.00  0.00    -0.572 OA
ATOM      2  C5  SGN d 305     -25.231  47.069  14.258  0.00  0.00     0.091 C 
ATOM      3  O1S SGN d 305     -22.053  44.450  11.269  0.00  0.00    -0.296 OA
ATOM      4  O4  SGN d 305     -27.325  46.661  13.328  0.00  0.00    -0.348 OA
ATOM      5  C4  SGN d 305     -25.994  46.308  13.224  0.00  0.00     0.095 C 
ATOM      6  O5  SGN d 305     -23.911  46.652  14.247  0.00  0.00    -0.349 OA
ATOM      7  S2  SGN d 305     -25.957  44.996  17.346  0.00  0.00     0.251 S 
ATOM      8  O3  SGN d 305     -26.119  46.192  10.850  0.00  0.00    -0.391 OA
ATOM      9  C1  SGN d 305     -23.252  46.909  13.025  0.00  0.00     0.150 C 
ATOM     10  S1  SGN d 305     -22.117  45.491  10.297  0.00  0.00     0.156 S 
ATOM     11  C3  SGN d 305     -25.423  46.764  11.905  0.00  0.00     0.083 C 
ATOM     12  O6  SGN d 305     -25.717  45.555  15.937  0.00  0.00    -0.254 OA
ATOM     13  O2S SGN d 305     -22.456  44.996   9.028  0.00  0.00    -0.296 OA
ATOM     14  O4S SGN d 305     -27.381  44.774  17.399  0.00  0.00    -0.572 OA
ATOM     15  O3S SGN d 305     -20.946  46.284  10.319  0.00  0.00    -0.296 OA
ATOM     16  C2  SGN d 305     -24.020  46.255  11.898  0.00  0.00     0.081 C 
ATOM     17  N   SGN d 305     -23.346  46.485  10.655  0.00  0.00    -0.210 NA
ATOM     18  C6  SGN d 305     -25.726  46.904  15.650  0.00  0.00     0.067 C 
ATOM     19  O6S SGN d 305     -25.479  46.035  18.251  0.00  0.00    -0.572 OA
ATOM     20  H   SGN d 305     -25.353  48.099  13.995  0.00  0.00     0.090 H 
ATOM     21  H   SGN d 305     -22.866  43.924  11.232  0.00  0.00     0.231 HD
ATOM     22  H   SGN d 305     -25.921  45.246  13.331  0.00  0.00     0.091 H 
ATOM     23  H   SGN d 305     -27.032  46.519  10.849  0.00  0.00     0.210 HD
ATOM     24  H   SGN d 305     -22.265  46.499  13.074  0.00  0.00     0.131 H 
ATOM     25  H   SGN d 305     -25.484  47.827  11.795  0.00  0.00     0.089 H 
ATOM     26  H   SGN d 305     -23.265  44.465   9.094  0.00  0.00     0.231 HD
ATOM     27  H   SGN d 305     -20.778  46.587  11.224  0.00  0.00     0.231 HD
ATOM     28  H   SGN d 305     -24.064  45.195  12.032  0.00  0.00     0.076 H 
ATOM     29  H   SGN d 305     -24.036  46.403   9.909  0.00  0.00     0.140 HD
ATOM     30  H   SGN d 305     -26.721  47.288  15.732  0.00  0.00     0.080 H 
ATOM     31  H   SGN d 305     -25.104  47.439  16.337  0.00  0.00     0.080 H 
ATOM     32  N   SGN d 303     -21.260  55.345  17.078  0.00  0.00    -0.210 NA
ATOM     33  C4  SGN d 303     -21.320  53.453  13.782  0.00  0.00     0.095 C 
ATOM     34  C2  SGN d 303     -21.437  55.137  15.651  0.00  0.00     0.081 C 
ATOM     35  O5S SGN d 303     -23.899  54.991  10.261  0.00  0.00    -0.572 OA
ATOM     36  O2S SGN d 303     -23.175  56.577  18.007  0.00  0.00    -0.296 OA
ATOM     37  C6  SGN d 303     -20.487  54.407  11.580  0.00  0.00     0.067 C 
ATOM     38  O3S SGN d 303     -21.005  56.830  18.981  0.00  0.00    -0.296 OA
ATOM     39  C5  SGN d 303     -20.378  54.436  13.094  0.00  0.00     0.091 C 
ATOM     40  S1  SGN d 303     -21.770  56.735  17.774  0.00  0.00     0.156 S 
ATOM     41  O6S SGN d 303     -22.080  56.553  10.102  0.00  0.00    -0.572 OA
ATOM     42  O1S SGN d 303     -21.511  57.813  16.862  0.00  0.00    -0.296 OA
ATOM     43  O3  SGN d 303     -22.200  52.889  15.931  0.00  0.00    -0.391 OA
ATOM     44  O6  SGN d 303     -21.846  54.528  11.295  0.00  0.00    -0.254 OA
ATOM     45  S2  SGN d 303     -22.497  55.195  10.073  0.00  0.00     0.251 S 
ATOM     46  O5  SGN d 303     -20.652  55.772  13.498  0.00  0.00    -0.349 OA
ATOM     47  C1  SGN d 303     -20.470  56.008  14.877  0.00  0.00     0.150 C 
ATOM     48  O4S SGN d 303     -22.002  54.527   8.918  0.00  0.00    -0.572 OA
ATOM     49  C3  SGN d 303     -21.213  53.673  15.295  0.00  0.00     0.083 C 
ATOM     50  O4  SGN d 303     -20.894  52.155  13.476  0.00  0.00    -0.348 OA
ATOM     51  H   SGN d 303     -20.260  55.272  17.264  0.00  0.00     0.140 HD
ATOM     52  H   SGN d 303     -22.330  53.596  13.457  0.00  0.00     0.091 H 
ATOM     53  H   SGN d 303     -22.439  55.406  15.388  0.00  0.00     0.076 H 
ATOM     54  H   SGN d 303     -23.320  55.843  18.625  0.00  0.00     0.231 HD
ATOM     55  H   SGN d 303     -20.106  53.483  11.196  0.00  0.00     0.080 H 
ATOM     56  H   SGN d 303     -19.919  55.193  11.129  0.00  0.00     0.080 H 
ATOM     57  H   SGN d 303     -21.217  56.081  19.559  0.00  0.00     0.231 HD
ATOM     58  H   SGN d 303     -19.396  54.128  13.387  0.00  0.00     0.090 H 
ATOM     59  H   SGN d 303     -22.053  57.699  16.065  0.00  0.00     0.231 HD
ATOM     60  H   SGN d 303     -22.064  51.955  15.709  0.00  0.00     0.210 HD
ATOM     61  H   SGN d 303     -20.664  57.043  15.064  0.00  0.00     0.131 H 
ATOM     62  H   SGN d 303     -20.233  53.391  15.619  0.00  0.00     0.089 H 
ATOM     63  S   IDS d 302     -17.457  54.875  18.998  0.00  0.00     0.252 S 
ATOM     64  O2S IDS d 302     -18.546  53.968  19.131  0.00  0.00    -0.572 OA
ATOM     65  O62 IDS d 302     -18.183  56.742  12.056  0.00  0.00    -0.646 OA
ATOM     66  C2  IDS d 302     -16.664  56.268  16.958  0.00  0.00     0.134 C 
ATOM     67  O5  IDS d 302     -16.480  55.208  14.823  0.00  0.00    -0.340 OA
ATOM     68  O1S IDS d 302     -17.615  56.080  19.742  0.00  0.00    -0.572 OA
ATOM     69  O4  IDS d 302     -19.144  55.765  15.303  0.00  0.00    -0.348 OA
ATOM     70  O3S IDS d 302     -16.203  54.252  19.227  0.00  0.00    -0.572 OA
ATOM     71  C5  IDS d 302     -17.132  56.282  14.167  0.00  0.00     0.152 C 
ATOM     72  C1  IDS d 302     -15.753  55.594  15.976  0.00  0.00     0.161 C 
ATOM     73  C3  IDS d 302     -17.593  57.303  16.324  0.00  0.00     0.094 C 
ATOM     74  C4  IDS d 302     -18.229  56.805  15.040  0.00  0.00     0.103 C 
ATOM     75  O3  IDS d 302     -16.829  58.437  16.009  0.00  0.00    -0.390 OA
ATOM     76  O61 IDS d 302     -17.383  54.790  12.300  0.00  0.00    -0.646 OA
ATOM     77  C6  IDS d 302     -17.592  55.912  12.759  0.00  0.00     0.206 C 
ATOM     78  O2  IDS d 302     -17.455  55.313  17.532  0.00  0.00    -0.244 OA
ATOM     79  H   IDS d 302     -16.038  56.778  17.660  0.00  0.00     0.097 H 
ATOM     80  H   IDS d 302     -16.432  57.077  14.016  0.00  0.00     0.104 H 
ATOM     81  H   IDS d 302     -15.347  54.704  16.410  0.00  0.00     0.133 H 
ATOM     82  H   IDS d 302     -18.375  57.513  17.023  0.00  0.00     0.091 H 
ATOM     83  H   IDS d 302     -18.759  57.605  14.567  0.00  0.00     0.092 H 
ATOM     84  H   IDS d 302     -16.137  58.195  15.374  0.00  0.00     0.210 HD
ATOM     85  O5  IDS d 306     -28.618  44.742  13.494  0.00  0.00    -0.340 OA
ATOM     86  C4  IDS d 306     -30.590  45.878  12.675  0.00  0.00     0.097 C 
ATOM     87  C3  IDS d 306     -30.385  46.981  13.777  0.00  0.00     0.094 C 
ATOM     88  C1  IDS d 306     -28.088  45.848  14.186  0.00  0.00     0.161 C 
ATOM     89  S   IDS d 306     -30.791  46.691  16.805  0.00  0.00     0.252 S 
ATOM     90  O3S IDS d 306     -30.518  46.125  18.110  0.00  0.00    -0.572 OA
ATOM     91  C6  IDS d 306     -29.409  43.936  11.375  0.00  0.00     0.206 C 
ATOM     92  O61 IDS d 306     -28.557  43.052  11.375  0.00  0.00    -0.646 OA
ATOM     93  O2  IDS d 306     -29.771  46.043  15.844  0.00  0.00    -0.244 OA
ATOM     94  C2  IDS d 306     -29.215  46.687  14.748  0.00  0.00     0.134 C 
ATOM     95  O62 IDS d 306     -30.342  43.845  10.586  0.00  0.00    -0.646 OA
ATOM     96  O3  IDS d 306     -30.129  48.246  13.182  0.00  0.00    -0.390 OA
ATOM     97  O2S IDS d 306     -32.106  46.345  16.299  0.00  0.00    -0.572 OA
ATOM     98  O4  IDS d 306     -31.508  44.927  13.192  0.00  0.00    -0.390 OA
ATOM     99  C5  IDS d 306     -29.283  45.130  12.323  0.00  0.00     0.152 C 
ATOM    100  O1S IDS d 306     -30.509  48.113  16.702  0.00  0.00    -0.572 OA
ATOM    101  H   IDS d 306     -30.940  46.358  11.785  0.00  0.00     0.091 H 
ATOM    102  H   IDS d 306     -31.298  46.982  14.334  0.00  0.00     0.091 H 
ATOM    103  H   IDS d 306     -27.465  45.476  14.972  0.00  0.00     0.133 H 
ATOM    104  H   IDS d 306     -28.751  47.622  14.983  0.00  0.00     0.097 H 
ATOM    105  H   IDS d 306     -29.296  48.208  12.687  0.00  0.00     0.210 HD
ATOM    106  H   IDS d 306     -31.139  44.526  13.995  0.00  0.00     0.210 HD
ATOM    107  H   IDS d 306     -28.717  45.849  11.768  0.00  0.00     0.104 H 
ATOM    108  O2S SGN d 301     -12.165  54.663   9.592  0.00  0.00    -0.296 OA
ATOM    109  C3  SGN d 301     -13.343  56.379  13.643  0.00  0.00     0.083 C 
ATOM    110  O6S SGN d 301     -10.963  53.180  19.017  0.00  0.00    -0.572 OA
ATOM    111  O6  SGN d 301     -12.328  54.176  17.304  0.00  0.00    -0.254 OA
ATOM    112  C5  SGN d 301     -12.306  56.111  15.895  0.00  0.00     0.091 C 
ATOM    113  O5  SGN d 301     -11.141  55.570  15.269  0.00  0.00    -0.350 OA
ATOM    114  O5S SGN d 301     -12.853  51.959  18.127  0.00  0.00    -0.572 OA
ATOM    115  C6  SGN d 301     -12.300  55.582  17.328  0.00  0.00     0.067 C 
ATOM    116  O1S SGN d 301     -11.135  53.600  11.477  0.00  0.00    -0.296 OA
ATOM    117  O3  SGN d 301     -14.457  56.117  12.832  0.00  0.00    -0.391 OA
ATOM    118  O3S SGN d 301      -9.936  55.271  10.263  0.00  0.00    -0.296 OA
ATOM    119  C1  SGN d 301     -10.934  56.038  13.948  0.00  0.00     0.147 C 
ATOM    120  N   SGN d 301     -11.845  56.000  11.664  0.00  0.00    -0.210 NA
ATOM    121  O1  SGN d 301     -10.776  57.478  13.949  0.00  0.00    -0.369 OA
ATOM    122  O4S SGN d 301     -13.208  53.883  19.531  0.00  0.00    -0.572 OA
ATOM    123  C2  SGN d 301     -12.117  55.666  13.069  0.00  0.00     0.081 C 
ATOM    124  S1  SGN d 301     -11.236  54.808  10.685  0.00  0.00     0.156 S 
ATOM    125  C4  SGN d 301     -13.585  55.803  15.064  0.00  0.00     0.095 C 
ATOM    126  S2  SGN d 301     -12.337  53.238  18.569  0.00  0.00     0.251 S 
ATOM    127  O4  SGN d 301     -14.690  56.440  15.665  0.00  0.00    -0.348 OA
ATOM    128  H   SGN d 301     -11.849  53.972   8.989  0.00  0.00     0.231 HD
ATOM    129  H   SGN d 301     -13.190  57.437  13.682  0.00  0.00     0.089 H 
ATOM    130  H   SGN d 301     -12.304  57.181  15.935  0.00  0.00     0.090 H 
ATOM    131  H   SGN d 301     -11.414  55.914  17.828  0.00  0.00     0.080 H 
ATOM    132  H   SGN d 301     -13.160  55.949  17.850  0.00  0.00     0.080 H 
ATOM    133  H   SGN d 301     -10.779  52.883  10.929  0.00  0.00     0.231 HD
ATOM    134  H   SGN d 301     -14.607  55.160  12.789  0.00  0.00     0.210 HD
ATOM    135  H   SGN d 301      -9.529  54.608   9.683  0.00  0.00     0.231 HD
ATOM    136  H   SGN d 301     -10.046  55.583  13.562  0.00  0.00     0.131 H 
ATOM    137  H   SGN d 301     -11.174  56.769  11.659  0.00  0.00     0.140 HD
ATOM    138  H   SGN d 301     -11.581  57.891  14.300  0.00  0.00     0.212 HD
ATOM    139  H   SGN d 301     -12.300  54.611  13.073  0.00  0.00     0.076 H 
ATOM    140  H   SGN d 301     -13.785  54.753  15.018  0.00  0.00     0.091 H 
ATOM    141  S   IDS d 304     -21.240  50.383   9.483  0.00  0.00     0.252 S 
ATOM    142  O62 IDS d 304     -24.263  49.819  16.029  0.00  0.00    -0.646 OA
ATOM    143  O1S IDS d 304     -20.424  51.525   9.683  0.00  0.00    -0.572 OA
ATOM    144  O2  IDS d 304     -21.488  49.790  10.874  0.00  0.00    -0.244 OA
ATOM    145  O3  IDS d 304     -19.947  49.225  14.045  0.00  0.00    -0.390 OA
ATOM    146  C5  IDS d 304     -22.842  50.222  14.175  0.00  0.00     0.152 C 
ATOM    147  O5  IDS d 304     -22.927  51.095  13.106  0.00  0.00    -0.340 OA
ATOM    148  O3S IDS d 304     -22.525  50.705   9.015  0.00  0.00    -0.572 OA
ATOM    149  O4  IDS d 304     -23.129  48.279  12.796  0.00  0.00    -0.348 OA
ATOM    150  C3  IDS d 304     -20.920  49.027  13.045  0.00  0.00     0.094 C 
ATOM    151  C2  IDS d 304     -20.912  50.226  12.073  0.00  0.00     0.134 C 
ATOM    152  C1  IDS d 304     -21.672  51.461  12.558  0.00  0.00     0.161 C 
ATOM    153  O2S IDS d 304     -20.599  49.383   8.693  0.00  0.00    -0.572 OA
ATOM    154  O61 IDS d 304     -25.217  50.409  14.330  0.00  0.00    -0.646 OA
ATOM    155  C4  IDS d 304     -22.270  48.874  13.715  0.00  0.00     0.103 C 
ATOM    156  C6  IDS d 304     -24.183  50.152  14.887  0.00  0.00     0.206 C 
ATOM    157  H   IDS d 304     -19.075  49.326  13.632  0.00  0.00     0.210 HD
ATOM    158  H   IDS d 304     -22.149  50.576  14.909  0.00  0.00     0.104 H 
ATOM    159  H   IDS d 304     -20.708  48.143  12.480  0.00  0.00     0.091 H 
ATOM    160  H   IDS d 304     -19.894  50.537  11.971  0.00  0.00     0.097 H 
ATOM    161  H   IDS d 304     -21.868  52.105  11.727  0.00  0.00     0.133 H 
ATOM    162  H   IDS d 304     -22.163  48.270  14.592  0.00  0.00     0.092 H 
ENDROOT
TORSDOF 51
ENDMDL
MODEL 22
REMARK VINA RESULT:      -8.3      5.309     15.978
REMARK  0 active torsions:
REMARK  status: ('A' for Active; 'I' for Inactive)
REMARK       I    between atoms: N_2  and  C2_29 
REMARK       I    between atoms: N_2  and  S1_49 
REMARK       I    between atoms: S_3  and  O2_103 
REMARK       I    between atoms: C5_6  and  C6_92 
REMARK       I    between atoms: C4_8  and  O4_100 
REMARK       I    between atoms: C2_9  and  O2_103 
REMARK       I    between atoms: O1S_10  and  S1_36 
REMARK       I    between atoms: O2S_11  and  S1_93 
REMARK       I    between atoms: C3_12  and  O3_54 
REMARK       I    between atoms: O4_13  and  C4_20 
REMARK       I    between atoms: O4_13  and  C1_26 
REMARK       I    between atoms: O6_15  and  C6_46 
REMARK       I    between atoms: O6_15  and  S2_104 
REMARK       I    between atoms: C5_16  and  C6_46 
REMARK       I    between atoms: C4_17  and  O4_90 
REMARK       I    between atoms: S_18  and  O2_62 
REMARK       I    between atoms: C3_19  and  O3_68 
REMARK       I    between atoms: S2_25  and  O6_53 
REMARK       I    between atoms: O4_27  and  C4_69 
REMARK       I    between atoms: O4_27  and  C1_89 
REMARK       I    between atoms: O3_28  and  C3_37 
REMARK       I    between atoms: C1_30  and  O4_73 
REMARK       I    between atoms: O2S_32  and  S1_49 
REMARK       I    between atoms: S_33  and  O2_48 
REMARK       I    between atoms: C6_34  and  C5_43 
REMARK       I    between atoms: C6_34  and  O6_60 
REMARK       I    between atoms: S1_36  and  N_85 
REMARK       I    between atoms: S1_36  and  O2S_63 
REMARK       I    between atoms: S1_36  and  O3S_74 
REMARK       I    between atoms: C6_40  and  C5_94 
REMARK       I    between atoms: O3S_42  and  S1_49 
REMARK       I    between atoms: C5_44  and  C6_99 
REMARK       I    between atoms: C1_47  and  O4_106 
REMARK       I    between atoms: O2_48  and  C2_57 
REMARK       I    between atoms: S1_49  and  O1S_55 
REMARK       I    between atoms: O1S_51  and  S1_93 
REMARK       I    between atoms: C3_52  and  O3_87 
REMARK       I    between atoms: O6_53  and  C6_92 
REMARK       I    between atoms: O3S_56  and  S1_93 
REMARK       I    between atoms: O3_58  and  C3_98 
REMARK       I    between atoms: C1_59  and  O1_81 
REMARK       I    between atoms: O6_60  and  S2_65 
REMARK       I    between atoms: O2_62  and  C2_77 
REMARK       I    between atoms: O3_64  and  C3_75 
REMARK       I    between atoms: C5_67  and  C6_101 
REMARK       I    between atoms: O4_73  and  C4_96 
REMARK       I    between atoms: C2_76  and  N_85 
REMARK       I    between atoms: N_78  and  C2_91 
REMARK       I    between atoms: N_78  and  S1_93 
REMARK       I    between atoms: C1_80  and  O4_100 
REMARK       I    between atoms: C4_102  and  O4_106 
ROOT
ATOM      1  O5S SGN d 305     -33.148  50.819  15.882  0.00  0.00    -0.572 OA
ATOM      2  C5  SGN d 305     -30.319  47.570  14.337  0.00  0.00     0.091 C 
ATOM      3  O1S SGN d 305     -29.745  45.619  19.002  0.00  0.00    -0.296 OA
ATOM      4  O4  SGN d 305     -31.875  46.156  13.336  0.00  0.00    -0.348 OA
ATOM      5  C4  SGN d 305     -31.243  46.413  14.537  0.00  0.00     0.095 C 
ATOM      6  O5  SGN d 305     -29.754  47.915  15.552  0.00  0.00    -0.349 OA
ATOM      7  S2  SGN d 305     -32.754  50.466  14.538  0.00  0.00     0.251 S 
ATOM      8  O3  SGN d 305     -31.085  44.093  15.049  0.00  0.00    -0.391 OA
ATOM      9  C1  SGN d 305     -28.962  46.891  16.115  0.00  0.00     0.150 C 
ATOM     10  S1  SGN d 305     -28.885  44.614  18.470  0.00  0.00     0.156 S 
ATOM     11  C3  SGN d 305     -30.348  45.263  14.924  0.00  0.00     0.083 C 
ATOM     12  O6  SGN d 305     -31.989  49.140  14.642  0.00  0.00    -0.254 OA
ATOM     13  O2S SGN d 305     -29.300  43.326  18.843  0.00  0.00    -0.296 OA
ATOM     14  O4S SGN d 305     -33.864  50.165  13.669  0.00  0.00    -0.572 OA
ATOM     15  O3S SGN d 305     -27.530  44.895  18.760  0.00  0.00    -0.296 OA
ATOM     16  C2  SGN d 305     -29.797  45.638  16.259  0.00  0.00     0.081 C 
ATOM     17  N   SGN d 305     -29.011  44.598  16.855  0.00  0.00    -0.210 NA
ATOM     18  C6  SGN d 305     -30.959  48.796  13.792  0.00  0.00     0.067 C 
ATOM     19  O6S SGN d 305     -31.795  51.412  13.978  0.00  0.00    -0.572 OA
ATOM     20  H   SGN d 305     -29.603  47.235  13.616  0.00  0.00     0.090 H 
ATOM     21  H   SGN d 305     -30.666  45.401  18.789  0.00  0.00     0.231 HD
ATOM     22  H   SGN d 305     -31.993  46.586  15.280  0.00  0.00     0.091 H 
ATOM     23  H   SGN d 305     -31.446  43.845  14.184  0.00  0.00     0.210 HD
ATOM     24  H   SGN d 305     -28.620  47.209  17.078  0.00  0.00     0.131 H 
ATOM     25  H   SGN d 305     -29.588  45.090  14.191  0.00  0.00     0.089 H 
ATOM     26  H   SGN d 305     -30.235  43.208  18.614  0.00  0.00     0.231 HD
ATOM     27  H   SGN d 305     -27.320  45.798  18.476  0.00  0.00     0.231 HD
ATOM     28  H   SGN d 305     -30.627  45.808  16.911  0.00  0.00     0.076 H 
ATOM     29  H   SGN d 305     -29.425  43.706  16.586  0.00  0.00     0.140 HD
ATOM     30  H   SGN d 305     -31.343  48.602  12.812  0.00  0.00     0.080 H 
ATOM     31  H   SGN d 305     -30.247  49.592  13.720  0.00  0.00     0.080 H 
ATOM     32  N   SGN d 303     -21.973  50.905  10.958  0.00  0.00    -0.210 NA
ATOM     33  C4  SGN d 303     -22.956  47.798  12.913  0.00  0.00     0.095 C 
ATOM     34  C2  SGN d 303     -22.047  49.492  11.287  0.00  0.00     0.081 C 
ATOM     35  O5S SGN d 303     -23.040  43.667  10.831  0.00  0.00    -0.572 OA
ATOM     36  O2S SGN d 303     -22.454  51.256   8.572  0.00  0.00    -0.296 OA
ATOM     37  C6  SGN d 303     -21.400  45.839  13.345  0.00  0.00     0.067 C 
ATOM     38  O3S SGN d 303     -20.968  52.737   9.721  0.00  0.00    -0.296 OA
ATOM     39  C5  SGN d 303     -21.515  47.327  13.070  0.00  0.00     0.091 C 
ATOM     40  S1  SGN d 303     -21.378  51.381   9.510  0.00  0.00     0.156 S 
ATOM     41  O6S SGN d 303     -20.664  43.902  11.102  0.00  0.00    -0.572 OA
ATOM     42  O1S SGN d 303     -20.286  50.514   9.169  0.00  0.00    -0.296 OA
ATOM     43  O3  SGN d 303     -24.249  49.677  12.198  0.00  0.00    -0.391 OA
ATOM     44  O6  SGN d 303     -22.168  45.211  12.366  0.00  0.00    -0.254 OA
ATOM     45  S2  SGN d 303     -21.938  43.833  11.727  0.00  0.00     0.251 S 
ATOM     46  O5  SGN d 303     -20.764  47.583  11.889  0.00  0.00    -0.349 OA
ATOM     47  C1  SGN d 303     -20.660  48.949  11.555  0.00  0.00     0.150 C 
ATOM     48  O4S SGN d 303     -21.946  42.875  12.779  0.00  0.00    -0.572 OA
ATOM     49  C3  SGN d 303     -22.932  49.276  12.508  0.00  0.00     0.083 C 
ATOM     50  O4  SGN d 303     -23.592  47.675  14.155  0.00  0.00    -0.348 OA
ATOM     51  H   SGN d 303     -21.392  51.344  11.673  0.00  0.00     0.140 HD
ATOM     52  H   SGN d 303     -23.473  47.220  12.175  0.00  0.00     0.091 H 
ATOM     53  H   SGN d 303     -22.473  48.970  10.456  0.00  0.00     0.076 H 
ATOM     54  H   SGN d 303     -23.176  51.851   8.826  0.00  0.00     0.231 HD
ATOM     55  H   SGN d 303     -21.778  45.609  14.320  0.00  0.00     0.080 H 
ATOM     56  H   SGN d 303     -20.383  45.510  13.318  0.00  0.00     0.080 H 
ATOM     57  H   SGN d 303     -21.741  53.277   9.947  0.00  0.00     0.231 HD
ATOM     58  H   SGN d 303     -21.134  47.875  13.906  0.00  0.00     0.090 H 
ATOM     59  H   SGN d 303     -20.618  49.612   9.038  0.00  0.00     0.231 HD
ATOM     60  H   SGN d 303     -24.819  49.543  12.971  0.00  0.00     0.210 HD
ATOM     61  H   SGN d 303     -20.049  49.031  10.681  0.00  0.00     0.131 H 
ATOM     62  H   SGN d 303     -22.538  49.853  13.318  0.00  0.00     0.089 H 
ATOM     63  S   IDS d 302     -20.073  53.753  13.540  0.00  0.00     0.252 S 
ATOM     64  O2S IDS d 302     -21.480  53.646  13.350  0.00  0.00    -0.572 OA
ATOM     65  O62 IDS d 302     -18.220  46.773  13.299  0.00  0.00    -0.646 OA
ATOM     66  C2  IDS d 302     -18.241  51.917  13.611  0.00  0.00     0.134 C 
ATOM     67  O5  IDS d 302     -18.609  49.953  14.925  0.00  0.00    -0.340 OA
ATOM     68  O1S IDS d 302     -19.389  54.372  12.454  0.00  0.00    -0.572 OA
ATOM     69  O4  IDS d 302     -20.022  49.710  12.561  0.00  0.00    -0.348 OA
ATOM     70  O3S IDS d 302     -19.737  54.323  14.794  0.00  0.00    -0.572 OA
ATOM     71  C5  IDS d 302     -18.156  49.101  13.886  0.00  0.00     0.152 C 
ATOM     72  C1  IDS d 302     -18.003  51.234  14.925  0.00  0.00     0.161 C 
ATOM     73  C3  IDS d 302     -18.003  51.018  12.399  0.00  0.00     0.094 C 
ATOM     74  C4  IDS d 302     -18.614  49.640  12.567  0.00  0.00     0.103 C 
ATOM     75  O3  IDS d 302     -16.618  50.854  12.246  0.00  0.00    -0.390 OA
ATOM     76  O61 IDS d 302     -19.168  47.306  15.123  0.00  0.00    -0.646 OA
ATOM     77  C6  IDS d 302     -18.540  47.642  14.120  0.00  0.00     0.206 C 
ATOM     78  O2  IDS d 302     -19.547  52.316  13.568  0.00  0.00    -0.244 OA
ATOM     79  H   IDS d 302     -17.548  52.730  13.557  0.00  0.00     0.097 H 
ATOM     80  H   IDS d 302     -17.087  49.095  13.880  0.00  0.00     0.104 H 
ATOM     81  H   IDS d 302     -18.452  51.799  15.714  0.00  0.00     0.133 H 
ATOM     82  H   IDS d 302     -18.460  51.483  11.551  0.00  0.00     0.091 H 
ATOM     83  H   IDS d 302     -18.307  49.009  11.759  0.00  0.00     0.092 H 
ATOM     84  H   IDS d 302     -16.253  50.429  13.037  0.00  0.00     0.210 HD
ATOM     85  O5  IDS d 306     -34.168  46.081  13.676  0.00  0.00    -0.340 OA
ATOM     86  C4  IDS d 306     -34.519  44.732  11.699  0.00  0.00     0.097 C 
ATOM     87  C3  IDS d 306     -33.719  45.795  10.860  0.00  0.00     0.094 C 
ATOM     88  C1  IDS d 306     -33.096  46.830  13.154  0.00  0.00     0.161 C 
ATOM     89  S   IDS d 306     -34.618  48.630  10.101  0.00  0.00     0.252 S 
ATOM     90  O3S IDS d 306     -35.034  49.987  10.387  0.00  0.00    -0.572 OA
ATOM     91  C6  IDS d 306     -34.995  43.871  14.125  0.00  0.00     0.206 C 
ATOM     92  O61 IDS d 306     -35.085  44.131  15.321  0.00  0.00    -0.646 OA
ATOM     93  O2  IDS d 306     -34.290  47.993  11.469  0.00  0.00    -0.244 OA
ATOM     94  C2  IDS d 306     -33.298  47.045  11.670  0.00  0.00     0.134 C 
ATOM     95  O62 IDS d 306     -35.569  42.875  13.701  0.00  0.00    -0.646 OA
ATOM     96  O3  IDS d 306     -32.534  45.225  10.320  0.00  0.00    -0.390 OA
ATOM     97  O2S IDS d 306     -35.671  47.823   9.516  0.00  0.00    -0.572 OA
ATOM     98  O4  IDS d 306     -35.897  45.043  11.575  0.00  0.00    -0.390 OA
ATOM     99  C5  IDS d 306     -34.160  44.761  13.202  0.00  0.00     0.152 C 
ATOM    100  O1S IDS d 306     -33.366  48.534   9.367  0.00  0.00    -0.572 OA
ATOM    101  H   IDS d 306     -34.272  43.760  11.325  0.00  0.00     0.091 H 
ATOM    102  H   IDS d 306     -34.398  46.101  10.091  0.00  0.00     0.091 H 
ATOM    103  H   IDS d 306     -33.068  47.766  13.672  0.00  0.00     0.133 H 
ATOM    104  H   IDS d 306     -32.333  47.346  11.318  0.00  0.00     0.097 H 
ATOM    105  H   IDS d 306     -31.945  44.960  11.044  0.00  0.00     0.210 HD
ATOM    106  H   IDS d 306     -36.060  45.932  11.929  0.00  0.00     0.210 HD
ATOM    107  H   IDS d 306     -33.179  44.335  13.242  0.00  0.00     0.104 H 
ATOM    108  O2S SGN d 301     -15.446  46.028  19.492  0.00  0.00    -0.296 OA
ATOM    109  C3  SGN d 301     -15.512  49.557  16.614  0.00  0.00     0.083 C 
ATOM    110  O6S SGN d 301     -17.042  55.508  19.265  0.00  0.00    -0.572 OA
ATOM    111  O6  SGN d 301     -16.972  53.458  18.007  0.00  0.00    -0.254 OA
ATOM    112  C5  SGN d 301     -15.335  52.009  17.031  0.00  0.00     0.091 C 
ATOM    113  O5  SGN d 301     -14.880  51.728  18.356  0.00  0.00    -0.350 OA
ATOM    114  O5S SGN d 301     -19.069  54.225  18.945  0.00  0.00    -0.572 OA
ATOM    115  C6  SGN d 301     -15.918  53.420  17.076  0.00  0.00     0.067 C 
ATOM    116  O1S SGN d 301     -15.810  48.162  20.520  0.00  0.00    -0.296 OA
ATOM    117  O3  SGN d 301     -16.330  48.502  16.181  0.00  0.00    -0.391 OA
ATOM    118  O3S SGN d 301     -13.617  47.214  20.511  0.00  0.00    -0.296 OA
ATOM    119  C1  SGN d 301     -14.216  50.482  18.479  0.00  0.00     0.147 C 
ATOM    120  N   SGN d 301     -14.531  48.045  18.363  0.00  0.00    -0.210 NA
ATOM    121  O1  SGN d 301     -13.049  50.454  17.622  0.00  0.00    -0.369 OA
ATOM    122  O4S SGN d 301     -18.075  55.398  17.091  0.00  0.00    -0.572 OA
ATOM    123  C2  SGN d 301     -15.151  49.350  18.086  0.00  0.00     0.081 C 
ATOM    124  S1  SGN d 301     -14.875  47.313  19.810  0.00  0.00     0.156 S 
ATOM    125  C4  SGN d 301     -16.292  50.895  16.517  0.00  0.00     0.095 C 
ATOM    126  S2  SGN d 301     -17.845  54.721  18.352  0.00  0.00     0.251 S 
ATOM    127  O4  SGN d 301     -16.634  51.164  15.176  0.00  0.00    -0.348 OA
ATOM    128  H   SGN d 301     -15.664  45.559  20.313  0.00  0.00     0.231 HD
ATOM    129  H   SGN d 301     -14.635  49.583  16.002  0.00  0.00     0.089 H 
ATOM    130  H   SGN d 301     -14.549  51.996  16.305  0.00  0.00     0.090 H 
ATOM    131  H   SGN d 301     -15.157  54.112  17.369  0.00  0.00     0.080 H 
ATOM    132  H   SGN d 301     -16.287  53.687  16.107  0.00  0.00     0.080 H 
ATOM    133  H   SGN d 301     -16.030  47.757  21.374  0.00  0.00     0.231 HD
ATOM    134  H   SGN d 301     -17.130  48.469  16.728  0.00  0.00     0.210 HD
ATOM    135  H   SGN d 301     -13.759  46.790  21.372  0.00  0.00     0.231 HD
ATOM    136  H   SGN d 301     -13.913  50.357  19.497  0.00  0.00     0.131 H 
ATOM    137  H   SGN d 301     -13.520  48.174  18.322  0.00  0.00     0.140 HD
ATOM    138  H   SGN d 301     -13.323  50.567  16.698  0.00  0.00     0.212 HD
ATOM    139  H   SGN d 301     -16.051  49.357  18.665  0.00  0.00     0.076 H 
ATOM    140  H   SGN d 301     -17.193  50.851  17.092  0.00  0.00     0.091 H 
ATOM    141  S   IDS d 304     -24.581  43.815  15.980  0.00  0.00     0.252 S 
ATOM    142  O62 IDS d 304     -27.892  49.393  12.782  0.00  0.00    -0.646 OA
ATOM    143  O1S IDS d 304     -23.227  44.161  15.746  0.00  0.00    -0.572 OA
ATOM    144  O2  IDS d 304     -25.374  45.124  15.897  0.00  0.00    -0.244 OA
ATOM    145  O3  IDS d 304     -25.210  48.606  16.669  0.00  0.00    -0.390 OA
ATOM    146  C5  IDS d 304     -26.402  47.946  13.924  0.00  0.00     0.152 C 
ATOM    147  O5  IDS d 304     -25.666  46.849  13.512  0.00  0.00    -0.340 OA
ATOM    148  O3S IDS d 304     -25.127  43.020  14.959  0.00  0.00    -0.572 OA
ATOM    149  O4  IDS d 304     -27.837  46.635  15.331  0.00  0.00    -0.348 OA
ATOM    150  C3  IDS d 304     -25.861  47.402  16.334  0.00  0.00     0.094 C 
ATOM    151  C2  IDS d 304     -24.837  46.408  15.748  0.00  0.00     0.134 C 
ATOM    152  C1  IDS d 304     -24.493  46.623  14.273  0.00  0.00     0.161 C 
ATOM    153  O2S IDS d 304     -24.789  43.264  17.280  0.00  0.00    -0.572 OA
ATOM    154  O61 IDS d 304     -27.852  47.481  12.085  0.00  0.00    -0.646 OA
ATOM    155  C4  IDS d 304     -26.957  47.712  15.335  0.00  0.00     0.103 C 
ATOM    156  C6  IDS d 304     -27.437  48.295  12.866  0.00  0.00     0.206 C 
ATOM    157  H   IDS d 304     -24.503  48.425  17.308  0.00  0.00     0.210 HD
ATOM    158  H   IDS d 304     -25.784  48.815  14.013  0.00  0.00     0.104 H 
ATOM    159  H   IDS d 304     -26.296  46.953  17.203  0.00  0.00     0.091 H 
ATOM    160  H   IDS d 304     -23.921  46.554  16.280  0.00  0.00     0.097 H 
ATOM    161  H   IDS d 304     -24.032  45.739  13.885  0.00  0.00     0.133 H 
ATOM    162  H   IDS d 304     -27.453  48.616  15.624  0.00  0.00     0.092 H 
ENDROOT
TORSDOF 51
ENDMDL
MODEL 23
REMARK VINA RESULT:      -8.3      6.179     16.114
REMARK  0 active torsions:
REMARK  status: ('A' for Active; 'I' for Inactive)
REMARK       I    between atoms: N_2  and  C2_29 
REMARK       I    between atoms: N_2  and  S1_49 
REMARK       I    between atoms: S_3  and  O2_103 
REMARK       I    between atoms: C5_6  and  C6_92 
REMARK       I    between atoms: C4_8  and  O4_100 
REMARK       I    between atoms: C2_9  and  O2_103 
REMARK       I    between atoms: O1S_10  and  S1_36 
REMARK       I    between atoms: O2S_11  and  S1_93 
REMARK       I    between atoms: C3_12  and  O3_54 
REMARK       I    between atoms: O4_13  and  C4_20 
REMARK       I    between atoms: O4_13  and  C1_26 
REMARK       I    between atoms: O6_15  and  C6_46 
REMARK       I    between atoms: O6_15  and  S2_104 
REMARK       I    between atoms: C5_16  and  C6_46 
REMARK       I    between atoms: C4_17  and  O4_90 
REMARK       I    between atoms: S_18  and  O2_62 
REMARK       I    between atoms: C3_19  and  O3_68 
REMARK       I    between atoms: S2_25  and  O6_53 
REMARK       I    between atoms: O4_27  and  C4_69 
REMARK       I    between atoms: O4_27  and  C1_89 
REMARK       I    between atoms: O3_28  and  C3_37 
REMARK       I    between atoms: C1_30  and  O4_73 
REMARK       I    between atoms: O2S_32  and  S1_49 
REMARK       I    between atoms: S_33  and  O2_48 
REMARK       I    between atoms: C6_34  and  C5_43 
REMARK       I    between atoms: C6_34  and  O6_60 
REMARK       I    between atoms: S1_36  and  N_85 
REMARK       I    between atoms: S1_36  and  O2S_63 
REMARK       I    between atoms: S1_36  and  O3S_74 
REMARK       I    between atoms: C6_40  and  C5_94 
REMARK       I    between atoms: O3S_42  and  S1_49 
REMARK       I    between atoms: C5_44  and  C6_99 
REMARK       I    between atoms: C1_47  and  O4_106 
REMARK       I    between atoms: O2_48  and  C2_57 
REMARK       I    between atoms: S1_49  and  O1S_55 
REMARK       I    between atoms: O1S_51  and  S1_93 
REMARK       I    between atoms: C3_52  and  O3_87 
REMARK       I    between atoms: O6_53  and  C6_92 
REMARK       I    between atoms: O3S_56  and  S1_93 
REMARK       I    between atoms: O3_58  and  C3_98 
REMARK       I    between atoms: C1_59  and  O1_81 
REMARK       I    between atoms: O6_60  and  S2_65 
REMARK       I    between atoms: O2_62  and  C2_77 
REMARK       I    between atoms: O3_64  and  C3_75 
REMARK       I    between atoms: C5_67  and  C6_101 
REMARK       I    between atoms: O4_73  and  C4_96 
REMARK       I    between atoms: C2_76  and  N_85 
REMARK       I    between atoms: N_78  and  C2_91 
REMARK       I    between atoms: N_78  and  S1_93 
REMARK       I    between atoms: C1_80  and  O4_100 
REMARK       I    between atoms: C4_102  and  O4_106 
ROOT
ATOM      1  O5S SGN d 305     -29.169  43.347  10.859  0.00  0.00    -0.572 OA
ATOM      2  C5  SGN d 305     -27.447  46.984  13.038  0.00  0.00     0.091 C 
ATOM      3  O1S SGN d 305     -27.152  49.645   8.710  0.00  0.00    -0.296 OA
ATOM      4  O4  SGN d 305     -29.391  47.780  14.043  0.00  0.00    -0.348 OA
ATOM      5  C4  SGN d 305     -28.641  47.870  12.887  0.00  0.00     0.095 C 
ATOM      6  O5  SGN d 305     -26.736  46.973  11.851  0.00  0.00    -0.349 OA
ATOM      7  S2  SGN d 305     -28.970  43.601  12.267  0.00  0.00     0.251 S 
ATOM      8  O3  SGN d 305     -29.099  50.195  12.667  0.00  0.00    -0.391 OA
ATOM      9  C1  SGN d 305     -26.225  48.239  11.491  0.00  0.00     0.150 C 
ATOM     10  S1  SGN d 305     -26.637  50.758   9.436  0.00  0.00     0.156 S 
ATOM     11  C3  SGN d 305     -28.077  49.259  12.725  0.00  0.00     0.083 C 
ATOM     12  O6  SGN d 305     -28.596  45.084  12.392  0.00  0.00    -0.254 OA
ATOM     13  O2S SGN d 305     -27.368  51.929   9.178  0.00  0.00    -0.296 OA
ATOM     14  O4S SGN d 305     -30.171  43.473  13.054  0.00  0.00    -0.572 OA
ATOM     15  O3S SGN d 305     -25.242  50.891   9.247  0.00  0.00    -0.296 OA
ATOM     16  C2  SGN d 305     -27.363  49.232  11.414  0.00  0.00     0.081 C 
ATOM     17  N   SGN d 305     -26.860  50.516  11.022  0.00  0.00    -0.210 NA
ATOM     18  C6  SGN d 305     -27.755  45.569  13.372  0.00  0.00     0.067 C 
ATOM     19  O6S SGN d 305     -27.823  42.876  12.802  0.00  0.00    -0.572 OA
ATOM     20  H   SGN d 305     -26.897  47.394  13.859  0.00  0.00     0.090 H 
ATOM     21  H   SGN d 305     -28.109  49.578   8.857  0.00  0.00     0.231 HD
ATOM     22  H   SGN d 305     -29.268  47.608  12.060  0.00  0.00     0.091 H 
ATOM     23  H   SGN d 305     -29.566  50.217  13.516  0.00  0.00     0.210 HD
ATOM     24  H   SGN d 305     -25.751  48.160  10.535  0.00  0.00     0.131 H 
ATOM     25  H   SGN d 305     -27.440  49.524  13.543  0.00  0.00     0.089 H 
ATOM     26  H   SGN d 305     -28.312  51.760   9.328  0.00  0.00     0.231 HD
ATOM     27  H   SGN d 305     -24.808  50.046   9.443  0.00  0.00     0.231 HD
ATOM     28  H   SGN d 305     -28.073  48.940  10.670  0.00  0.00     0.076 H 
ATOM     29  H   SGN d 305     -27.520  51.219  11.352  0.00  0.00     0.140 HD
ATOM     30  H   SGN d 305     -28.237  45.515  14.326  0.00  0.00     0.080 H 
ATOM     31  H   SGN d 305     -26.858  44.988  13.418  0.00  0.00     0.080 H 
ATOM     32  N   SGN d 303     -18.726  45.553  16.792  0.00  0.00    -0.210 NA
ATOM     33  C4  SGN d 303     -20.409  48.526  15.128  0.00  0.00     0.095 C 
ATOM     34  C2  SGN d 303     -19.167  46.927  16.624  0.00  0.00     0.081 C 
ATOM     35  O5S SGN d 303     -21.756  52.157  17.660  0.00  0.00    -0.572 OA
ATOM     36  O2S SGN d 303     -19.236  44.760  19.063  0.00  0.00    -0.296 OA
ATOM     37  C6  SGN d 303     -19.431  50.870  15.079  0.00  0.00     0.067 C 
ATOM     38  O3S SGN d 303     -17.331  43.901  17.897  0.00  0.00    -0.296 OA
ATOM     39  C5  SGN d 303     -19.146  49.381  15.167  0.00  0.00     0.091 C 
ATOM     40  S1  SGN d 303     -18.112  45.057  18.225  0.00  0.00     0.156 S 
ATOM     41  O6S SGN d 303     -19.396  52.602  17.594  0.00  0.00    -0.572 OA
ATOM     42  O1S SGN d 303     -17.324  46.127  18.768  0.00  0.00    -0.296 OA
ATOM     43  O3  SGN d 303     -21.173  46.291  15.491  0.00  0.00    -0.391 OA
ATOM     44  O6  SGN d 303     -20.401  51.129  16.047  0.00  0.00    -0.254 OA
ATOM     45  S2  SGN d 303     -20.599  52.416  16.862  0.00  0.00     0.251 S 
ATOM     46  O5  SGN d 303     -18.427  49.173  16.376  0.00  0.00    -0.349 OA
ATOM     47  C1  SGN d 303     -17.970  47.851  16.556  0.00  0.00     0.150 C 
ATOM     48  O4S SGN d 303     -20.807  53.473  15.932  0.00  0.00    -0.572 OA
ATOM     49  C3  SGN d 303     -20.001  47.067  15.358  0.00  0.00     0.083 C 
ATOM     50  O4  SGN d 303     -20.977  48.647  13.853  0.00  0.00    -0.348 OA
ATOM     51  H   SGN d 303     -18.004  45.388  16.090  0.00  0.00     0.140 HD
ATOM     52  H   SGN d 303     -21.109  48.838  15.875  0.00  0.00     0.091 H 
ATOM     53  H   SGN d 303     -19.771  47.196  17.466  0.00  0.00     0.076 H 
ATOM     54  H   SGN d 303     -19.749  44.035  18.672  0.00  0.00     0.231 HD
ATOM     55  H   SGN d 303     -19.798  51.123  14.106  0.00  0.00     0.080 H 
ATOM     56  H   SGN d 303     -18.547  51.450  15.243  0.00  0.00     0.080 H 
ATOM     57  H   SGN d 303     -17.910  43.211  17.536  0.00  0.00     0.231 HD
ATOM     58  H   SGN d 303     -18.579  49.075  14.312  0.00  0.00     0.090 H 
ATOM     59  H   SGN d 303     -17.900  46.881  18.972  0.00  0.00     0.231 HD
ATOM     60  H   SGN d 303     -21.710  46.375  14.688  0.00  0.00     0.210 HD
ATOM     61  H   SGN d 303     -17.415  47.814  17.470  0.00  0.00     0.131 H 
ATOM     62  H   SGN d 303     -19.415  46.734  14.527  0.00  0.00     0.089 H 
ATOM     63  S   IDS d 302     -15.961  43.699  14.090  0.00  0.00     0.252 S 
ATOM     64  O2S IDS d 302     -17.351  43.401  14.154  0.00  0.00    -0.572 OA
ATOM     65  O62 IDS d 302     -16.125  50.817  15.322  0.00  0.00    -0.646 OA
ATOM     66  C2  IDS d 302     -14.706  45.948  14.410  0.00  0.00     0.134 C 
ATOM     67  O5  IDS d 302     -15.521  47.906  13.306  0.00  0.00    -0.340 OA
ATOM     68  O1S IDS d 302     -15.199  43.140  15.157  0.00  0.00    -0.572 OA
ATOM     69  O4  IDS d 302     -17.087  47.434  15.535  0.00  0.00    -0.348 OA
ATOM     70  O3S IDS d 302     -15.404  43.419  12.816  0.00  0.00    -0.572 OA
ATOM     71  C5  IDS d 302     -15.386  48.694  14.476  0.00  0.00     0.152 C 
ATOM     72  C1  IDS d 302     -14.586  46.845  13.215  0.00  0.00     0.161 C 
ATOM     73  C3  IDS d 302     -14.799  46.701  15.736  0.00  0.00     0.094 C 
ATOM     74  C4  IDS d 302     -15.755  47.876  15.673  0.00  0.00     0.103 C 
ATOM     75  O3  IDS d 302     -13.525  47.204  16.041  0.00  0.00    -0.390 OA
ATOM     76  O61 IDS d 302     -16.776  50.310  13.365  0.00  0.00    -0.646 OA
ATOM     77  C6  IDS d 302     -16.142  50.017  14.378  0.00  0.00     0.206 C 
ATOM     78  O2  IDS d 302     -15.851  45.214  14.281  0.00  0.00    -0.244 OA
ATOM     79  H   IDS d 302     -13.820  45.349  14.436  0.00  0.00     0.097 H 
ATOM     80  H   IDS d 302     -14.361  48.984  14.586  0.00  0.00     0.104 H 
ATOM     81  H   IDS d 302     -14.813  46.296  12.325  0.00  0.00     0.133 H 
ATOM     82  H   IDS d 302     -15.160  46.018  16.476  0.00  0.00     0.091 H 
ATOM     83  H   IDS d 302     -15.685  48.447  16.575  0.00  0.00     0.092 H 
ATOM     84  H   IDS d 302     -13.244  47.816  15.343  0.00  0.00     0.210 HD
ATOM     85  O5  IDS d 306     -31.591  47.289  13.495  0.00  0.00    -0.340 OA
ATOM     86  C4  IDS d 306     -32.419  48.209  15.573  0.00  0.00     0.097 C 
ATOM     87  C3  IDS d 306     -31.410  47.291  16.355  0.00  0.00     0.094 C 
ATOM     88  C1  IDS d 306     -30.387  46.787  14.026  0.00  0.00     0.161 C 
ATOM     89  S   IDS d 306     -31.535  44.242  16.688  0.00  0.00     0.252 S 
ATOM     90  O3S IDS d 306     -31.543  42.877  16.206  0.00  0.00    -0.572 OA
ATOM     91  C6  IDS d 306     -32.967  49.240  13.230  0.00  0.00     0.206 C 
ATOM     92  O61 IDS d 306     -32.909  49.134  12.008  0.00  0.00    -0.646 OA
ATOM     93  O2  IDS d 306     -31.314  45.127  15.441  0.00  0.00    -0.244 OA
ATOM     94  C2  IDS d 306     -30.611  46.323  15.449  0.00  0.00     0.134 C 
ATOM     95  O62 IDS d 306     -33.819  49.978  13.710  0.00  0.00    -0.646 OA
ATOM     96  O3  IDS d 306     -30.464  48.075  17.069  0.00  0.00    -0.390 OA
ATOM     97  O2S IDS d 306     -32.804  44.651  17.259  0.00  0.00    -0.572 OA
ATOM     98  O4  IDS d 306     -33.663  47.528  15.526  0.00  0.00    -0.390 OA
ATOM     99  C5  IDS d 306     -31.976  48.485  14.118  0.00  0.00     0.152 C 
ATOM    100  O1S IDS d 306     -30.406  44.565  17.545  0.00  0.00    -0.572 OA
ATOM    101  H   IDS d 306     -32.475  49.149  16.080  0.00  0.00     0.091 H 
ATOM    102  H   IDS d 306     -32.023  46.712  17.014  0.00  0.00     0.091 H 
ATOM    103  H   IDS d 306     -30.070  45.974  13.407  0.00  0.00     0.133 H 
ATOM    104  H   IDS d 306     -29.624  46.244  15.855  0.00  0.00     0.097 H 
ATOM    105  H   IDS d 306     -29.928  48.584  16.441  0.00  0.00     0.210 HD
ATOM    106  H   IDS d 306     -33.553  46.686  15.057  0.00  0.00     0.210 HD
ATOM    107  H   IDS d 306     -31.150  49.158  14.223  0.00  0.00     0.104 H 
ATOM    108  O2S SGN d 301     -13.294  53.125   9.554  0.00  0.00    -0.296 OA
ATOM    109  C3  SGN d 301     -12.558  49.341  11.981  0.00  0.00     0.083 C 
ATOM    110  O6S SGN d 301     -12.220  43.625   8.518  0.00  0.00    -0.572 OA
ATOM    111  O6  SGN d 301     -12.796  45.425  10.007  0.00  0.00    -0.254 OA
ATOM    112  C5  SGN d 301     -11.685  47.107  11.299  0.00  0.00     0.091 C 
ATOM    113  O5  SGN d 301     -11.245  47.680  10.066  0.00  0.00    -0.350 OA
ATOM    114  O5S SGN d 301     -14.538  44.265   8.789  0.00  0.00    -0.572 OA
ATOM    115  C6  SGN d 301     -11.852  45.612  11.033  0.00  0.00     0.067 C 
ATOM    116  O1S SGN d 301     -12.991  51.135   8.254  0.00  0.00    -0.296 OA
ATOM    117  O3  SGN d 301     -13.659  50.070  12.453  0.00  0.00    -0.391 OA
ATOM    118  O3S SGN d 301     -11.150  52.621   8.585  0.00  0.00    -0.296 OA
ATOM    119  C1  SGN d 301     -10.945  49.062  10.154  0.00  0.00     0.147 C 
ATOM    120  N   SGN d 301     -11.928  51.287  10.522  0.00  0.00    -0.210 NA
ATOM    121  O1  SGN d 301      -9.886  49.281  11.117  0.00  0.00    -0.369 OA
ATOM    122  O4S SGN d 301     -13.374  43.153  10.579  0.00  0.00    -0.572 OA
ATOM    123  C2  SGN d 301     -12.179  49.839  10.584  0.00  0.00     0.081 C 
ATOM    124  S1  SGN d 301     -12.372  52.094   9.144  0.00  0.00     0.156 S 
ATOM    125  C4  SGN d 301     -12.942  47.844  11.845  0.00  0.00     0.095 C 
ATOM    126  S2  SGN d 301     -13.263  44.035   9.434  0.00  0.00     0.251 S 
ATOM    127  O4  SGN d 301     -13.277  47.311  13.106  0.00  0.00    -0.348 OA
ATOM    128  H   SGN d 301     -13.583  53.628   8.777  0.00  0.00     0.231 HD
ATOM    129  H   SGN d 301     -11.746  49.465  12.667  0.00  0.00     0.089 H 
ATOM    130  H   SGN d 301     -10.979  47.227  12.094  0.00  0.00     0.090 H 
ATOM    131  H   SGN d 301     -10.913  45.195  10.736  0.00  0.00     0.080 H 
ATOM    132  H   SGN d 301     -12.191  45.125  11.924  0.00  0.00     0.080 H 
ATOM    133  H   SGN d 301     -13.262  51.580   7.436  0.00  0.00     0.231 HD
ATOM    134  H   SGN d 301     -14.403  49.965  11.839  0.00  0.00     0.210 HD
ATOM    135  H   SGN d 301     -11.351  53.107   7.770  0.00  0.00     0.231 HD
ATOM    136  H   SGN d 301     -10.627  49.403   9.191  0.00  0.00     0.131 H 
ATOM    137  H   SGN d 301     -10.925  51.427  10.646  0.00  0.00     0.140 HD
ATOM    138  H   SGN d 301     -10.173  48.971  11.990  0.00  0.00     0.212 HD
ATOM    139  H   SGN d 301     -13.005  49.673   9.924  0.00  0.00     0.076 H 
ATOM    140  H   SGN d 301     -13.784  47.726  11.195  0.00  0.00     0.091 H 
ATOM    141  S   IDS d 304     -22.880  52.320  12.405  0.00  0.00     0.252 S 
ATOM    142  O62 IDS d 304     -24.710  45.674  14.596  0.00  0.00    -0.646 OA
ATOM    143  O1S IDS d 304     -21.500  52.317  12.727  0.00  0.00    -0.572 OA
ATOM    144  O2  IDS d 304     -23.285  50.849  12.258  0.00  0.00    -0.244 OA
ATOM    145  O3  IDS d 304     -22.118  47.677  11.104  0.00  0.00    -0.390 OA
ATOM    146  C5  IDS d 304     -23.612  47.609  13.780  0.00  0.00     0.152 C 
ATOM    147  O5  IDS d 304     -23.234  48.794  14.386  0.00  0.00    -0.340 OA
ATOM    148  O3S IDS d 304     -23.686  52.791  13.454  0.00  0.00    -0.572 OA
ATOM    149  O4  IDS d 304     -25.264  48.674  12.404  0.00  0.00    -0.348 OA
ATOM    150  C3  IDS d 304     -23.096  48.606  11.513  0.00  0.00     0.094 C 
ATOM    151  C2  IDS d 304     -22.424  49.746  12.307  0.00  0.00     0.134 C 
ATOM    152  C1  IDS d 304     -22.124  49.428  13.772  0.00  0.00     0.161 C 
ATOM    153  O2S IDS d 304     -23.154  52.970  11.165  0.00  0.00    -0.572 OA
ATOM    154  O61 IDS d 304     -25.242  47.412  15.512  0.00  0.00    -0.646 OA
ATOM    155  C4  IDS d 304     -24.123  47.880  12.358  0.00  0.00     0.103 C 
ATOM    156  C6  IDS d 304     -24.572  46.854  14.685  0.00  0.00     0.206 C 
ATOM    157  H   IDS d 304     -21.452  48.126  10.561  0.00  0.00     0.210 HD
ATOM    158  H   IDS d 304     -22.773  46.958  13.649  0.00  0.00     0.104 H 
ATOM    159  H   IDS d 304     -23.585  49.039  10.665  0.00  0.00     0.091 H 
ATOM    160  H   IDS d 304     -21.473  49.924  11.852  0.00  0.00     0.097 H 
ATOM    161  H   IDS d 304     -21.950  50.340  14.304  0.00  0.00     0.133 H 
ATOM    162  H   IDS d 304     -24.331  46.926  11.920  0.00  0.00     0.092 H 
ENDROOT
TORSDOF 51
ENDMDL
MODEL 24
REMARK VINA RESULT:      -8.0      6.194     14.755
REMARK  0 active torsions:
REMARK  status: ('A' for Active; 'I' for Inactive)
REMARK       I    between atoms: N_2  and  C2_29 
REMARK       I    between atoms: N_2  and  S1_49 
REMARK       I    between atoms: S_3  and  O2_103 
REMARK       I    between atoms: C5_6  and  C6_92 
REMARK       I    between atoms: C4_8  and  O4_100 
REMARK       I    between atoms: C2_9  and  O2_103 
REMARK       I    between atoms: O1S_10  and  S1_36 
REMARK       I    between atoms: O2S_11  and  S1_93 
REMARK       I    between atoms: C3_12  and  O3_54 
REMARK       I    between atoms: O4_13  and  C4_20 
REMARK       I    between atoms: O4_13  and  C1_26 
REMARK       I    between atoms: O6_15  and  C6_46 
REMARK       I    between atoms: O6_15  and  S2_104 
REMARK       I    between atoms: C5_16  and  C6_46 
REMARK       I    between atoms: C4_17  and  O4_90 
REMARK       I    between atoms: S_18  and  O2_62 
REMARK       I    between atoms: C3_19  and  O3_68 
REMARK       I    between atoms: S2_25  and  O6_53 
REMARK       I    between atoms: O4_27  and  C4_69 
REMARK       I    between atoms: O4_27  and  C1_89 
REMARK       I    between atoms: O3_28  and  C3_37 
REMARK       I    between atoms: C1_30  and  O4_73 
REMARK       I    between atoms: O2S_32  and  S1_49 
REMARK       I    between atoms: S_33  and  O2_48 
REMARK       I    between atoms: C6_34  and  C5_43 
REMARK       I    between atoms: C6_34  and  O6_60 
REMARK       I    between atoms: S1_36  and  N_85 
REMARK       I    between atoms: S1_36  and  O2S_63 
REMARK       I    between atoms: S1_36  and  O3S_74 
REMARK       I    between atoms: C6_40  and  C5_94 
REMARK       I    between atoms: O3S_42  and  S1_49 
REMARK       I    between atoms: C5_44  and  C6_99 
REMARK       I    between atoms: C1_47  and  O4_106 
REMARK       I    between atoms: O2_48  and  C2_57 
REMARK       I    between atoms: S1_49  and  O1S_55 
REMARK       I    between atoms: O1S_51  and  S1_93 
REMARK       I    between atoms: C3_52  and  O3_87 
REMARK       I    between atoms: O6_53  and  C6_92 
REMARK       I    between atoms: O3S_56  and  S1_93 
REMARK       I    between atoms: O3_58  and  C3_98 
REMARK       I    between atoms: C1_59  and  O1_81 
REMARK       I    between atoms: O6_60  and  S2_65 
REMARK       I    between atoms: O2_62  and  C2_77 
REMARK       I    between atoms: O3_64  and  C3_75 
REMARK       I    between atoms: C5_67  and  C6_101 
REMARK       I    between atoms: O4_73  and  C4_96 
REMARK       I    between atoms: C2_76  and  N_85 
REMARK       I    between atoms: N_78  and  C2_91 
REMARK       I    between atoms: N_78  and  S1_93 
REMARK       I    between atoms: C1_80  and  O4_100 
REMARK       I    between atoms: C4_102  and  O4_106 
ROOT
ATOM      1  O5S SGN d 305     -25.000  57.786  14.184  0.00  0.00    -0.572 OA
ATOM      2  C5  SGN d 305     -23.872  53.787  12.266  0.00  0.00     0.091 C 
ATOM      3  O1S SGN d 305     -26.008  51.170  16.072  0.00  0.00    -0.296 OA
ATOM      4  O4  SGN d 305     -25.473  53.710  10.577  0.00  0.00    -0.348 OA
ATOM      5  C4  SGN d 305     -25.256  53.364  11.897  0.00  0.00     0.095 C 
ATOM      6  O5  SGN d 305     -23.668  53.549  13.614  0.00  0.00    -0.349 OA
ATOM      7  S2  SGN d 305     -24.404  57.484  12.903  0.00  0.00     0.251 S 
ATOM      8  O3  SGN d 305     -26.479  51.336  11.656  0.00  0.00    -0.391 OA
ATOM      9  C1  SGN d 305     -23.752  52.183  13.961  0.00  0.00     0.150 C 
ATOM     10  S1  SGN d 305     -25.652  49.950  15.426  0.00  0.00     0.156 S 
ATOM     11  C3  SGN d 305     -25.262  51.865  12.062  0.00  0.00     0.083 C 
ATOM     12  O6  SGN d 305     -24.504  55.963  12.724  0.00  0.00    -0.254 OA
ATOM     13  O2S SGN d 305     -26.759  49.101  15.275  0.00  0.00    -0.296 OA
ATOM     14  O4S SGN d 305     -25.136  58.020  11.783  0.00  0.00    -0.572 OA
ATOM     15  O3S SGN d 305     -24.537  49.346  16.052  0.00  0.00    -0.296 OA
ATOM     16  C2  SGN d 305     -25.095  51.641  13.528  0.00  0.00     0.081 C 
ATOM     17  N   SGN d 305     -25.204  50.261  13.900  0.00  0.00    -0.210 NA
ATOM     18  C6  SGN d 305     -23.571  55.223  12.029  0.00  0.00     0.067 C 
ATOM     19  O6S SGN d 305     -22.975  57.774  12.878  0.00  0.00    -0.572 OA
ATOM     20  H   SGN d 305     -23.226  53.216  11.632  0.00  0.00     0.090 H 
ATOM     21  H   SGN d 305     -26.773  51.562  15.623  0.00  0.00     0.231 HD
ATOM     22  H   SGN d 305     -26.018  53.822  12.492  0.00  0.00     0.091 H 
ATOM     23  H   SGN d 305     -26.593  51.480  10.704  0.00  0.00     0.210 HD
ATOM     24  H   SGN d 305     -23.652  52.091  15.023  0.00  0.00     0.131 H 
ATOM     25  H   SGN d 305     -24.496  51.401  11.477  0.00  0.00     0.089 H 
ATOM     26  H   SGN d 305     -27.480  49.583  14.840  0.00  0.00     0.231 HD
ATOM     27  H   SGN d 305     -23.816  49.992  16.120  0.00  0.00     0.231 HD
ATOM     28  H   SGN d 305     -25.891  52.156  14.022  0.00  0.00     0.076 H 
ATOM     29  H   SGN d 305     -25.890  49.827  13.283  0.00  0.00     0.140 HD
ATOM     30  H   SGN d 305     -23.636  55.443  10.983  0.00  0.00     0.080 H 
ATOM     31  H   SGN d 305     -22.581  55.461  12.359  0.00  0.00     0.080 H 
ATOM     32  N   SGN d 303     -14.418  52.153  11.855  0.00  0.00    -0.210 NA
ATOM     33  C4  SGN d 303     -17.439  49.931  12.472  0.00  0.00     0.095 C 
ATOM     34  C2  SGN d 303     -15.304  51.014  11.690  0.00  0.00     0.081 C 
ATOM     35  O5S SGN d 303     -18.876  46.993   9.199  0.00  0.00    -0.572 OA
ATOM     36  O2S SGN d 303     -13.802  53.082   9.662  0.00  0.00    -0.296 OA
ATOM     37  C6  SGN d 303     -17.346  47.395  12.549  0.00  0.00     0.067 C 
ATOM     38  O3S SGN d 303     -12.272  53.231  11.496  0.00  0.00    -0.296 OA
ATOM     39  C5  SGN d 303     -16.590  48.696  12.750  0.00  0.00     0.091 C 
ATOM     40  S1  SGN d 303     -13.209  52.414  10.783  0.00  0.00     0.156 S 
ATOM     41  O6S SGN d 303     -16.970  45.765   9.994  0.00  0.00    -0.572 OA
ATOM     42  O1S SGN d 303     -12.665  51.141  10.404  0.00  0.00    -0.296 OA
ATOM     43  O3  SGN d 303     -17.267  52.295  12.159  0.00  0.00    -0.391 OA
ATOM     44  O6  SGN d 303     -17.935  47.488  11.288  0.00  0.00    -0.254 OA
ATOM     45  S2  SGN d 303     -18.229  46.350  10.299  0.00  0.00     0.251 S 
ATOM     46  O5  SGN d 303     -15.460  48.649  11.886  0.00  0.00    -0.349 OA
ATOM     47  C1  SGN d 303     -14.573  49.735  12.037  0.00  0.00     0.150 C 
ATOM     48  O4S SGN d 303     -19.081  45.425  10.964  0.00  0.00    -0.572 OA
ATOM     49  C3  SGN d 303     -16.533  51.164  12.577  0.00  0.00     0.083 C 
ATOM     50  O4  SGN d 303     -18.432  50.008  13.457  0.00  0.00    -0.348 OA
ATOM     51  H   SGN d 303     -13.983  52.058  12.772  0.00  0.00     0.140 HD
ATOM     52  H   SGN d 303     -17.886  49.882  11.501  0.00  0.00     0.091 H 
ATOM     53  H   SGN d 303     -15.620  50.971  10.669  0.00  0.00     0.076 H 
ATOM     54  H   SGN d 303     -14.160  53.937   9.947  0.00  0.00     0.231 HD
ATOM     55  H   SGN d 303     -18.096  47.279  13.303  0.00  0.00     0.080 H 
ATOM     56  H   SGN d 303     -16.697  46.547  12.618  0.00  0.00     0.080 H 
ATOM     57  H   SGN d 303     -12.689  54.076  11.727  0.00  0.00     0.231 HD
ATOM     58  H   SGN d 303     -16.300  48.785  13.776  0.00  0.00     0.090 H 
ATOM     59  H   SGN d 303     -13.339  50.631   9.927  0.00  0.00     0.231 HD
ATOM     60  H   SGN d 303     -18.052  52.397  12.719  0.00  0.00     0.210 HD
ATOM     61  H   SGN d 303     -13.747  49.582  11.374  0.00  0.00     0.131 H 
ATOM     62  H   SGN d 303     -16.209  51.272  13.591  0.00  0.00     0.089 H 
ATOM     63  S   IDS d 302     -12.364  52.935  15.535  0.00  0.00     0.252 S 
ATOM     64  O2S IDS d 302     -13.466  53.693  15.049  0.00  0.00    -0.572 OA
ATOM     65  O62 IDS d 302     -14.341  46.310  13.433  0.00  0.00    -0.646 OA
ATOM     66  C2  IDS d 302     -11.866  50.393  15.373  0.00  0.00     0.134 C 
ATOM     67  O5  IDS d 302     -13.601  48.830  15.885  0.00  0.00    -0.340 OA
ATOM     68  O1S IDS d 302     -11.136  53.203  14.864  0.00  0.00    -0.572 OA
ATOM     69  O4  IDS d 302     -14.029  49.819  13.340  0.00  0.00    -0.348 OA
ATOM     70  O3S IDS d 302     -12.241  53.003  16.947  0.00  0.00    -0.572 OA
ATOM     71  C5  IDS d 302     -13.316  48.047  14.738  0.00  0.00     0.152 C 
ATOM     72  C1  IDS d 302     -12.474  49.505  16.416  0.00  0.00     0.161 C 
ATOM     73  C3  IDS d 302     -11.715  49.723  14.008  0.00  0.00     0.094 C 
ATOM     74  C4  IDS d 302     -12.952  48.947  13.600  0.00  0.00     0.103 C 
ATOM     75  O3  IDS d 302     -10.649  48.815  14.086  0.00  0.00    -0.390 OA
ATOM     76  O61 IDS d 302     -15.449  47.003  15.107  0.00  0.00    -0.646 OA
ATOM     77  C6  IDS d 302     -14.437  47.065  14.410  0.00  0.00     0.206 C 
ATOM     78  O2  IDS d 302     -12.683  51.475  15.203  0.00  0.00    -0.244 OA
ATOM     79  H   IDS d 302     -10.888  50.652  15.720  0.00  0.00     0.097 H 
ATOM     80  H   IDS d 302     -12.470  47.425  14.941  0.00  0.00     0.104 H 
ATOM     81  H   IDS d 302     -12.816  50.095  17.241  0.00  0.00     0.133 H 
ATOM     82  H   IDS d 302     -11.550  50.492  13.282  0.00  0.00     0.091 H 
ATOM     83  H   IDS d 302     -12.751  48.390  12.709  0.00  0.00     0.092 H 
ATOM     84  H   IDS d 302     -10.847  48.141  14.755  0.00  0.00     0.210 HD
ATOM     85  O5  IDS d 306     -27.443  54.924  10.416  0.00  0.00    -0.340 OA
ATOM     86  C4  IDS d 306     -27.722  54.353   8.082  0.00  0.00     0.097 C 
ATOM     87  C3  IDS d 306     -26.264  54.872   7.804  0.00  0.00     0.094 C 
ATOM     88  C1  IDS d 306     -26.037  54.985  10.385  0.00  0.00     0.161 C 
ATOM     89  S   IDS d 306     -25.281  57.779   7.836  0.00  0.00     0.252 S 
ATOM     90  O3S IDS d 306     -25.024  59.063   8.456  0.00  0.00    -0.572 OA
ATOM     91  C6  IDS d 306     -29.368  53.563   9.958  0.00  0.00     0.206 C 
ATOM     92  O61 IDS d 306     -29.720  53.638  11.132  0.00  0.00    -0.646 OA
ATOM     93  O2  IDS d 306     -25.815  56.868   8.963  0.00  0.00    -0.244 OA
ATOM     94  C2  IDS d 306     -25.577  55.503   9.040  0.00  0.00     0.134 C 
ATOM     95  O62 IDS d 306     -30.181  53.163   9.132  0.00  0.00    -0.646 OA
ATOM     96  O3  IDS d 306     -25.428  53.813   7.355  0.00  0.00    -0.390 OA
ATOM     97  O2S IDS d 306     -26.322  57.833   6.827  0.00  0.00    -0.572 OA
ATOM     98  O4  IDS d 306     -28.613  55.418   7.796  0.00  0.00    -0.390 OA
ATOM     99  C5  IDS d 306     -27.940  53.935   9.554  0.00  0.00     0.152 C 
ATOM    100  O1S IDS d 306     -24.087  57.092   7.372  0.00  0.00    -0.572 OA
ATOM    101  H   IDS d 306     -27.890  53.490   7.472  0.00  0.00     0.091 H 
ATOM    102  H   IDS d 306     -26.382  55.628   7.057  0.00  0.00     0.091 H 
ATOM    103  H   IDS d 306     -25.720  55.637  11.171  0.00  0.00     0.133 H 
ATOM    104  H   IDS d 306     -24.541  55.240   9.001  0.00  0.00     0.097 H 
ATOM    105  H   IDS d 306     -25.344  53.148   8.056  0.00  0.00     0.210 HD
ATOM    106  H   IDS d 306     -28.415  56.170   8.377  0.00  0.00     0.210 HD
ATOM    107  H   IDS d 306     -27.393  53.021   9.648  0.00  0.00     0.104 H 
ATOM    108  O2S SGN d 301     -14.652  43.149  19.476  0.00  0.00    -0.296 OA
ATOM    109  C3  SGN d 301     -11.931  46.460  17.932  0.00  0.00     0.083 C 
ATOM    110  O6S SGN d 301     -11.047  51.700  21.999  0.00  0.00    -0.572 OA
ATOM    111  O6  SGN d 301     -11.595  50.213  20.189  0.00  0.00    -0.254 OA
ATOM    112  C5  SGN d 301     -10.695  48.256  19.142  0.00  0.00     0.091 C 
ATOM    113  O5  SGN d 301     -10.933  47.562  20.369  0.00  0.00    -0.350 OA
ATOM    114  O5S SGN d 301     -13.189  51.895  20.891  0.00  0.00    -0.572 OA
ATOM    115  C6  SGN d 301     -10.460  49.717  19.523  0.00  0.00     0.067 C 
ATOM    116  O1S SGN d 301     -14.215  44.910  21.043  0.00  0.00    -0.296 OA
ATOM    117  O3  SGN d 301     -12.962  46.155  17.031  0.00  0.00    -0.391 OA
ATOM    118  O3S SGN d 301     -12.955  42.884  21.162  0.00  0.00    -0.296 OA
ATOM    119  C1  SGN d 301     -11.079  46.162  20.213  0.00  0.00     0.147 C 
ATOM    120  N   SGN d 301     -12.520  44.411  19.260  0.00  0.00    -0.210 NA
ATOM    121  O1  SGN d 301      -9.875  45.597  19.640  0.00  0.00    -0.369 OA
ATOM    122  O4S SGN d 301     -11.173  52.547  19.748  0.00  0.00    -0.572 OA
ATOM    123  C2  SGN d 301     -12.257  45.857  19.301  0.00  0.00     0.081 C 
ATOM    124  S1  SGN d 301     -13.660  43.799  20.297  0.00  0.00     0.156 S 
ATOM    125  C4  SGN d 301     -11.839  47.998  18.120  0.00  0.00     0.095 C 
ATOM    126  S2  SGN d 301     -11.766  51.676  20.743  0.00  0.00     0.251 S 
ATOM    127  O4  SGN d 301     -11.512  48.618  16.896  0.00  0.00    -0.348 OA
ATOM    128  H   SGN d 301     -15.344  42.773  20.043  0.00  0.00     0.231 HD
ATOM    129  H   SGN d 301     -11.013  46.068  17.547  0.00  0.00     0.089 H 
ATOM    130  H   SGN d 301      -9.830  47.904  18.621  0.00  0.00     0.090 H 
ATOM    131  H   SGN d 301      -9.608  49.785  20.167  0.00  0.00     0.080 H 
ATOM    132  H   SGN d 301     -10.283  50.294  18.638  0.00  0.00     0.080 H 
ATOM    133  H   SGN d 301     -14.887  44.581  21.660  0.00  0.00     0.231 HD
ATOM    134  H   SGN d 301     -13.801  46.506  17.369  0.00  0.00     0.210 HD
ATOM    135  H   SGN d 301     -13.578  42.492  21.794  0.00  0.00     0.231 HD
ATOM    136  H   SGN d 301     -11.253  45.729  21.175  0.00  0.00     0.131 H 
ATOM    137  H   SGN d 301     -11.640  43.936  19.462  0.00  0.00     0.140 HD
ATOM    138  H   SGN d 301      -9.717  45.989  18.767  0.00  0.00     0.212 HD
ATOM    139  H   SGN d 301     -13.164  46.294  19.662  0.00  0.00     0.076 H 
ATOM    140  H   SGN d 301     -12.773  48.394  18.460  0.00  0.00     0.091 H 
ATOM    141  S   IDS d 304     -21.792  47.206  13.712  0.00  0.00     0.252 S 
ATOM    142  O62 IDS d 304     -20.494  54.084  11.890  0.00  0.00    -0.646 OA
ATOM    143  O1S IDS d 304     -20.465  46.736  13.873  0.00  0.00    -0.572 OA
ATOM    144  O2  IDS d 304     -21.730  48.726  13.899  0.00  0.00    -0.244 OA
ATOM    145  O3  IDS d 304     -20.106  51.300  15.766  0.00  0.00    -0.390 OA
ATOM    146  C5  IDS d 304     -20.439  51.887  12.776  0.00  0.00     0.152 C 
ATOM    147  O5  IDS d 304     -20.269  50.646  12.187  0.00  0.00    -0.340 OA
ATOM    148  O3S IDS d 304     -22.275  47.044  12.402  0.00  0.00    -0.572 OA
ATOM    149  O4  IDS d 304     -22.721  51.449  13.375  0.00  0.00    -0.348 OA
ATOM    150  C3  IDS d 304     -21.114  50.765  14.940  0.00  0.00     0.094 C 
ATOM    151  C2  IDS d 304     -20.605  49.466  14.279  0.00  0.00     0.134 C 
ATOM    152  C1  IDS d 304     -19.717  49.668  13.051  0.00  0.00     0.161 C 
ATOM    153  O2S IDS d 304     -22.682  46.684  14.696  0.00  0.00    -0.572 OA
ATOM    154  O61 IDS d 304     -21.189  52.638  10.638  0.00  0.00    -0.646 OA
ATOM    155  C4  IDS d 304     -21.482  51.802  13.899  0.00  0.00     0.103 C 
ATOM    156  C6  IDS d 304     -20.718  52.929  11.705  0.00  0.00     0.206 C 
ATOM    157  H   IDS d 304     -19.858  50.647  16.439  0.00  0.00     0.210 HD
ATOM    158  H   IDS d 304     -19.542  52.210  13.260  0.00  0.00     0.104 H 
ATOM    159  H   IDS d 304     -21.984  50.522  15.515  0.00  0.00     0.091 H 
ATOM    160  H   IDS d 304     -19.989  48.971  15.000  0.00  0.00     0.097 H 
ATOM    161  H   IDS d 304     -19.665  48.754  12.498  0.00  0.00     0.133 H 
ATOM    162  H   IDS d 304     -21.517  52.767  14.359  0.00  0.00     0.092 H 
ENDROOT
TORSDOF 51
ENDMDL
MODEL 25
REMARK VINA RESULT:      -7.4      5.903     15.017
REMARK  0 active torsions:
REMARK  status: ('A' for Active; 'I' for Inactive)
REMARK       I    between atoms: N_2  and  C2_29 
REMARK       I    between atoms: N_2  and  S1_49 
REMARK       I    between atoms: S_3  and  O2_103 
REMARK       I    between atoms: C5_6  and  C6_92 
REMARK       I    between atoms: C4_8  and  O4_100 
REMARK       I    between atoms: C2_9  and  O2_103 
REMARK       I    between atoms: O1S_10  and  S1_36 
REMARK       I    between atoms: O2S_11  and  S1_93 
REMARK       I    between atoms: C3_12  and  O3_54 
REMARK       I    between atoms: O4_13  and  C4_20 
REMARK       I    between atoms: O4_13  and  C1_26 
REMARK       I    between atoms: O6_15  and  C6_46 
REMARK       I    between atoms: O6_15  and  S2_104 
REMARK       I    between atoms: C5_16  and  C6_46 
REMARK       I    between atoms: C4_17  and  O4_90 
REMARK       I    between atoms: S_18  and  O2_62 
REMARK       I    between atoms: C3_19  and  O3_68 
REMARK       I    between atoms: S2_25  and  O6_53 
REMARK       I    between atoms: O4_27  and  C4_69 
REMARK       I    between atoms: O4_27  and  C1_89 
REMARK       I    between atoms: O3_28  and  C3_37 
REMARK       I    between atoms: C1_30  and  O4_73 
REMARK       I    between atoms: O2S_32  and  S1_49 
REMARK       I    between atoms: S_33  and  O2_48 
REMARK       I    between atoms: C6_34  and  C5_43 
REMARK       I    between atoms: C6_34  and  O6_60 
REMARK       I    between atoms: S1_36  and  N_85 
REMARK       I    between atoms: S1_36  and  O2S_63 
REMARK       I    between atoms: S1_36  and  O3S_74 
REMARK       I    between atoms: C6_40  and  C5_94 
REMARK       I    between atoms: O3S_42  and  S1_49 
REMARK       I    between atoms: C5_44  and  C6_99 
REMARK       I    between atoms: C1_47  and  O4_106 
REMARK       I    between atoms: O2_48  and  C2_57 
REMARK       I    between atoms: S1_49  and  O1S_55 
REMARK       I    between atoms: O1S_51  and  S1_93 
REMARK       I    between atoms: C3_52  and  O3_87 
REMARK       I    between atoms: O6_53  and  C6_92 
REMARK       I    between atoms: O3S_56  and  S1_93 
REMARK       I    between atoms: O3_58  and  C3_98 
REMARK       I    between atoms: C1_59  and  O1_81 
REMARK       I    between atoms: O6_60  and  S2_65 
REMARK       I    between atoms: O2_62  and  C2_77 
REMARK       I    between atoms: O3_64  and  C3_75 
REMARK       I    between atoms: C5_67  and  C6_101 
REMARK       I    between atoms: O4_73  and  C4_96 
REMARK       I    between atoms: C2_76  and  N_85 
REMARK       I    between atoms: N_78  and  C2_91 
REMARK       I    between atoms: N_78  and  S1_93 
REMARK       I    between atoms: C1_80  and  O4_100 
REMARK       I    between atoms: C4_102  and  O4_106 
ROOT
ATOM      1  O5S SGN d 305     -17.721  43.864  13.715  0.00  0.00    -0.572 OA
ATOM      2  C5  SGN d 305     -19.518  47.674  15.502  0.00  0.00     0.091 C 
ATOM      3  O1S SGN d 305     -22.555  48.331  11.473  0.00  0.00    -0.296 OA
ATOM      4  O4  SGN d 305     -20.918  46.721  17.099  0.00  0.00    -0.348 OA
ATOM      5  C4  SGN d 305     -20.879  47.123  15.779  0.00  0.00     0.095 C 
ATOM      6  O5  SGN d 305     -19.417  47.984  14.157  0.00  0.00    -0.349 OA
ATOM      7  S2  SGN d 305     -17.542  44.478  15.010  0.00  0.00     0.251 S 
ATOM      8  O3  SGN d 305     -23.122  47.914  15.860  0.00  0.00    -0.391 OA
ATOM      9  C1  SGN d 305     -20.323  48.986  13.743  0.00  0.00     0.150 C 
ATOM     10  S1  SGN d 305     -23.098  49.501  12.079  0.00  0.00     0.156 S 
ATOM     11  C3  SGN d 305     -21.820  48.276  15.544  0.00  0.00     0.083 C 
ATOM     12  O6  SGN d 305     -18.595  45.590  15.113  0.00  0.00    -0.254 OA
ATOM     13  O2S SGN d 305     -24.500  49.454  12.132  0.00  0.00    -0.296 OA
ATOM     14  O4S SGN d 305     -17.846  43.603  16.114  0.00  0.00    -0.572 OA
ATOM     15  O3S SGN d 305     -22.578  50.673  11.486  0.00  0.00    -0.296 OA
ATOM     16  C2  SGN d 305     -21.732  48.553  14.080  0.00  0.00     0.081 C 
ATOM     17  N   SGN d 305     -22.663  49.549  13.639  0.00  0.00    -0.210 NA
ATOM     18  C6  SGN d 305     -18.393  46.756  15.821  0.00  0.00     0.067 C 
ATOM     19  O6S SGN d 305     -16.259  45.163  15.123  0.00  0.00    -0.572 OA
ATOM     20  H   SGN d 305     -19.426  48.527  16.143  0.00  0.00     0.090 H 
ATOM     21  H   SGN d 305     -22.928  47.543  11.898  0.00  0.00     0.231 HD
ATOM     22  H   SGN d 305     -21.134  46.284  15.165  0.00  0.00     0.091 H 
ATOM     23  H   SGN d 305     -23.186  47.733  16.811  0.00  0.00     0.210 HD
ATOM     24  H   SGN d 305     -20.229  49.118  12.685  0.00  0.00     0.131 H 
ATOM     25  H   SGN d 305     -21.565  49.123  16.146  0.00  0.00     0.089 H 
ATOM     26  H   SGN d 305     -24.781  48.625  12.550  0.00  0.00     0.231 HD
ATOM     27  H   SGN d 305     -21.609  50.633  11.485  0.00  0.00     0.231 HD
ATOM     28  H   SGN d 305     -21.985  47.648  13.569  0.00  0.00     0.076 H 
ATOM     29  H   SGN d 305     -23.509  49.450  14.199  0.00  0.00     0.140 HD
ATOM     30  H   SGN d 305     -18.377  46.548  16.871  0.00  0.00     0.080 H 
ATOM     31  H   SGN d 305     -17.457  47.200  15.554  0.00  0.00     0.080 H 
ATOM     32  N   SGN d 303     -13.295  54.940  16.334  0.00  0.00    -0.210 NA
ATOM     33  C4  SGN d 303     -16.987  54.737  15.456  0.00  0.00     0.095 C 
ATOM     34  C2  SGN d 303     -14.711  55.258  16.398  0.00  0.00     0.081 C 
ATOM     35  O5S SGN d 303     -20.184  56.102  18.510  0.00  0.00    -0.572 OA
ATOM     36  O2S SGN d 303     -12.385  54.619  18.596  0.00  0.00    -0.296 OA
ATOM     37  C6  SGN d 303     -18.516  56.756  15.267  0.00  0.00     0.067 C 
ATOM     38  O3S SGN d 303     -10.983  55.471  16.854  0.00  0.00    -0.296 OA
ATOM     39  C5  SGN d 303     -17.095  56.230  15.167  0.00  0.00     0.091 C 
ATOM     40  S1  SGN d 303     -12.272  55.508  17.478  0.00  0.00     0.156 S 
ATOM     41  O6S SGN d 303     -19.437  58.259  17.761  0.00  0.00    -0.572 OA
ATOM     42  O1S SGN d 303     -12.686  56.838  17.826  0.00  0.00    -0.296 OA
ATOM     43  O3  SGN d 303     -15.379  53.021  15.887  0.00  0.00    -0.391 OA
ATOM     44  O6  SGN d 303     -18.999  56.313  16.498  0.00  0.00    -0.254 OA
ATOM     45  S2  SGN d 303     -20.015  57.007  17.417  0.00  0.00     0.251 S 
ATOM     46  O5  SGN d 303     -16.315  56.985  16.085  0.00  0.00    -0.349 OA
ATOM     47  C1  SGN d 303     -14.932  56.710  16.032  0.00  0.00     0.150 C 
ATOM     48  O4S SGN d 303     -21.212  57.180  16.666  0.00  0.00    -0.572 OA
ATOM     49  C3  SGN d 303     -15.501  54.360  15.456  0.00  0.00     0.083 C 
ATOM     50  O4  SGN d 303     -17.635  54.045  14.425  0.00  0.00    -0.348 OA
ATOM     51  H   SGN d 303     -12.955  55.288  15.437  0.00  0.00     0.140 HD
ATOM     52  H   SGN d 303     -17.431  54.494  16.400  0.00  0.00     0.091 H 
ATOM     53  H   SGN d 303     -15.052  55.093  17.399  0.00  0.00     0.076 H 
ATOM     54  H   SGN d 303     -12.099  53.730  18.333  0.00  0.00     0.231 HD
ATOM     55  H   SGN d 303     -19.115  56.367  14.470  0.00  0.00     0.080 H 
ATOM     56  H   SGN d 303     -18.548  57.822  15.193  0.00  0.00     0.080 H 
ATOM     57  H   SGN d 303     -10.753  54.553  16.641  0.00  0.00     0.231 HD
ATOM     58  H   SGN d 303     -16.744  56.343  14.163  0.00  0.00     0.090 H 
ATOM     59  H   SGN d 303     -13.561  56.806  18.243  0.00  0.00     0.231 HD
ATOM     60  H   SGN d 303     -15.881  52.443  15.292  0.00  0.00     0.210 HD
ATOM     61  H   SGN d 303     -14.439  57.354  16.729  0.00  0.00     0.131 H 
ATOM     62  H   SGN d 303     -15.112  54.480  14.467  0.00  0.00     0.089 H 
ATOM     63  S   IDS d 302     -10.959  55.632  12.806  0.00  0.00     0.252 S 
ATOM     64  O2S IDS d 302     -11.362  54.348  13.269  0.00  0.00    -0.572 OA
ATOM     65  O62 IDS d 302     -16.825  59.499  14.493  0.00  0.00    -0.646 OA
ATOM     66  C2  IDS d 302     -12.196  57.912  12.877  0.00  0.00     0.134 C 
ATOM     67  O5  IDS d 302     -14.488  58.017  12.202  0.00  0.00    -0.340 OA
ATOM     68  O1S IDS d 302      -9.890  56.206  13.553  0.00  0.00    -0.572 OA
ATOM     69  O4  IDS d 302     -14.369  56.987  14.765  0.00  0.00    -0.348 OA
ATOM     70  O3S IDS d 302     -10.723  55.654  11.408  0.00  0.00    -0.572 OA
ATOM     71  C5  IDS d 302     -14.844  58.805  13.325  0.00  0.00     0.152 C 
ATOM     72  C1  IDS d 302     -13.155  58.209  11.763  0.00  0.00     0.161 C 
ATOM     73  C3  IDS d 302     -12.599  58.528  14.216  0.00  0.00     0.094 C 
ATOM     74  C4  IDS d 302     -14.073  58.343  14.522  0.00  0.00     0.103 C 
ATOM     75  O3  IDS d 302     -12.347  59.907  14.152  0.00  0.00    -0.390 OA
ATOM     76  O61 IDS d 302     -17.123  58.256  12.797  0.00  0.00    -0.646 OA
ATOM     77  C6  IDS d 302     -16.353  58.853  13.548  0.00  0.00     0.206 C 
ATOM     78  O2  IDS d 302     -12.153  56.557  13.053  0.00  0.00    -0.244 OA
ATOM     79  H   IDS d 302     -11.254  58.332  12.594  0.00  0.00     0.097 H 
ATOM     80  H   IDS d 302     -14.572  59.823  13.138  0.00  0.00     0.104 H 
ATOM     81  H   IDS d 302     -12.986  57.535  10.950  0.00  0.00     0.133 H 
ATOM     82  H   IDS d 302     -12.036  58.041  14.984  0.00  0.00     0.091 H 
ATOM     83  H   IDS d 302     -14.333  58.904  15.395  0.00  0.00     0.092 H 
ATOM     84  H   IDS d 302     -12.880  60.301  13.443  0.00  0.00     0.210 HD
ATOM     85  O5  IDS d 306     -21.680  44.533  17.213  0.00  0.00    -0.340 OA
ATOM     86  C4  IDS d 306     -22.420  44.802  19.500  0.00  0.00     0.097 C 
ATOM     87  C3  IDS d 306     -20.987  45.328  19.877  0.00  0.00     0.094 C 
ATOM     88  C1  IDS d 306     -20.560  45.379  17.320  0.00  0.00     0.161 C 
ATOM     89  S   IDS d 306     -18.386  43.705  20.032  0.00  0.00     0.252 S 
ATOM     90  O3S IDS d 306     -17.332  42.876  19.487  0.00  0.00    -0.572 OA
ATOM     91  C6  IDS d 306     -24.058  44.363  17.505  0.00  0.00     0.206 C 
ATOM     92  O61 IDS d 306     -24.199  44.079  16.319  0.00  0.00    -0.646 OA
ATOM     93  O2  IDS d 306     -19.295  44.068  18.837  0.00  0.00    -0.244 OA
ATOM     94  C2  IDS d 306     -19.971  45.273  18.710  0.00  0.00     0.134 C 
ATOM     95  O62 IDS d 306     -24.994  44.158  18.268  0.00  0.00    -0.646 OA
ATOM     96  O3  IDS d 306     -21.044  46.677  20.321  0.00  0.00    -0.390 OA
ATOM     97  O2S IDS d 306     -19.225  43.006  20.986  0.00  0.00    -0.572 OA
ATOM     98  O4  IDS d 306     -22.452  43.414  19.788  0.00  0.00    -0.390 OA
ATOM     99  C5  IDS d 306     -22.749  44.983  18.000  0.00  0.00     0.152 C 
ATOM    100  O1S IDS d 306     -17.933  44.996  20.525  0.00  0.00    -0.572 OA
ATOM    101  H   IDS d 306     -23.138  45.364  20.060  0.00  0.00     0.091 H 
ATOM    102  H   IDS d 306     -20.651  44.670  20.652  0.00  0.00     0.091 H 
ATOM    103  H   IDS d 306     -19.847  45.074  16.583  0.00  0.00     0.133 H 
ATOM    104  H   IDS d 306     -19.341  46.135  18.792  0.00  0.00     0.097 H 
ATOM    105  H   IDS d 306     -21.352  47.243  19.595  0.00  0.00     0.210 HD
ATOM    106  H   IDS d 306     -21.783  42.958  19.253  0.00  0.00     0.210 HD
ATOM    107  H   IDS d 306     -22.900  46.037  17.894  0.00  0.00     0.104 H 
ATOM    108  O2S SGN d 301     -18.644  61.730   8.302  0.00  0.00    -0.296 OA
ATOM    109  C3  SGN d 301     -14.558  60.903  10.138  0.00  0.00     0.083 C 
ATOM    110  O6S SGN d 301     -10.274  57.407   6.370  0.00  0.00    -0.572 OA
ATOM    111  O6  SGN d 301     -11.765  58.212   8.078  0.00  0.00    -0.254 OA
ATOM    112  C5  SGN d 301     -12.383  60.297   9.080  0.00  0.00     0.091 C 
ATOM    113  O5  SGN d 301     -12.920  60.680   7.811  0.00  0.00    -0.350 OA
ATOM    114  O5S SGN d 301     -11.879  55.899   7.372  0.00  0.00    -0.572 OA
ATOM    115  C6  SGN d 301     -11.250  59.318   8.780  0.00  0.00     0.067 C 
ATOM    116  O1S SGN d 301     -17.083  60.643   6.844  0.00  0.00    -0.296 OA
ATOM    117  O3  SGN d 301     -15.609  60.486  10.969  0.00  0.00    -0.391 OA
ATOM    118  O3S SGN d 301     -17.387  63.008   6.698  0.00  0.00    -0.296 OA
ATOM    119  C1  SGN d 301     -13.931  61.669   7.895  0.00  0.00     0.147 C 
ATOM    120  N   SGN d 301     -16.217  62.109   8.688  0.00  0.00    -0.210 NA
ATOM    121  O1  SGN d 301     -13.401  62.872   8.503  0.00  0.00    -0.369 OA
ATOM    122  O4S SGN d 301      -9.992  56.678   8.649  0.00  0.00    -0.572 OA
ATOM    123  C2  SGN d 301     -15.095  61.159   8.729  0.00  0.00     0.081 C 
ATOM    124  S1  SGN d 301     -17.410  61.855   7.566  0.00  0.00     0.156 S 
ATOM    125  C4  SGN d 301     -13.500  59.773  10.028  0.00  0.00     0.095 C 
ATOM    126  S2  SGN d 301     -10.931  56.972   7.584  0.00  0.00     0.251 S 
ATOM    127  O4  SGN d 301     -12.941  59.504  11.294  0.00  0.00    -0.348 OA
ATOM    128  H   SGN d 301     -19.376  61.580   7.684  0.00  0.00     0.231 HD
ATOM    129  H   SGN d 301     -14.126  61.790  10.552  0.00  0.00     0.089 H 
ATOM    130  H   SGN d 301     -11.976  61.120   9.629  0.00  0.00     0.090 H 
ATOM    131  H   SGN d 301     -10.505  59.804   8.185  0.00  0.00     0.080 H 
ATOM    132  H   SGN d 301     -10.811  58.986   9.698  0.00  0.00     0.080 H 
ATOM    133  H   SGN d 301     -17.766  60.469   6.178  0.00  0.00     0.231 HD
ATOM    134  H   SGN d 301     -16.009  59.682  10.604  0.00  0.00     0.210 HD
ATOM    135  H   SGN d 301     -18.070  62.913   6.016  0.00  0.00     0.231 HD
ATOM    136  H   SGN d 301     -14.271  61.891   6.905  0.00  0.00     0.131 H 
ATOM    137  H   SGN d 301     -15.826  63.034   8.511  0.00  0.00     0.140 HD
ATOM    138  H   SGN d 301     -13.091  62.671   9.400  0.00  0.00     0.212 HD
ATOM    139  H   SGN d 301     -15.493  60.245   8.341  0.00  0.00     0.076 H 
ATOM    140  H   SGN d 301     -13.945  58.873   9.657  0.00  0.00     0.091 H 
ATOM    141  S   IDS d 304     -21.981  54.076  13.865  0.00  0.00     0.252 S 
ATOM    142  O62 IDS d 304     -16.753  49.590  16.068  0.00  0.00    -0.646 OA
ATOM    143  O1S IDS d 304     -21.245  55.281  13.753  0.00  0.00    -0.572 OA
ATOM    144  O2  IDS d 304     -20.958  52.940  13.752  0.00  0.00    -0.244 OA
ATOM    145  O3  IDS d 304     -17.945  51.979  12.094  0.00  0.00    -0.390 OA
ATOM    146  C5  IDS d 304     -18.040  51.321  15.086  0.00  0.00     0.152 C 
ATOM    147  O5  IDS d 304     -18.735  52.388  15.625  0.00  0.00    -0.340 OA
ATOM    148  O3S IDS d 304     -22.548  53.897  15.138  0.00  0.00    -0.572 OA
ATOM    149  O4  IDS d 304     -20.034  50.209  14.349  0.00  0.00    -0.348 OA
ATOM    150  C3  IDS d 304     -19.119  51.754  12.840  0.00  0.00     0.094 C 
ATOM    151  C2  IDS d 304     -19.595  53.082  13.466  0.00  0.00     0.134 C 
ATOM    152  C1  IDS d 304     -18.869  53.493  14.747  0.00  0.00     0.161 C 
ATOM    153  O2S IDS d 304     -22.929  53.911  12.812  0.00  0.00    -0.572 OA
ATOM    154  O61 IDS d 304     -18.292  50.269  17.214  0.00  0.00    -0.646 OA
ATOM    155  C4  IDS d 304     -18.819  50.721  13.907  0.00  0.00     0.103 C 
ATOM    156  C6  IDS d 304     -17.670  50.341  16.188  0.00  0.00     0.206 C 
ATOM    157  H   IDS d 304     -18.121  52.639  11.405  0.00  0.00     0.210 HD
ATOM    158  H   IDS d 304     -17.109  51.639  14.665  0.00  0.00     0.104 H 
ATOM    159  H   IDS d 304     -19.903  51.387  12.210  0.00  0.00     0.091 H 
ATOM    160  H   IDS d 304     -19.383  53.854  12.756  0.00  0.00     0.097 H 
ATOM    161  H   IDS d 304     -19.446  54.233  15.260  0.00  0.00     0.133 H 
ATOM    162  H   IDS d 304     -18.202  49.952  13.491  0.00  0.00     0.092 H 
ENDROOT
TORSDOF 51
ENDMDL
MODEL 26
REMARK VINA RESULT:      -7.0      7.144     14.764
REMARK  0 active torsions:
REMARK  status: ('A' for Active; 'I' for Inactive)
REMARK       I    between atoms: N_2  and  C2_29 
REMARK       I    between atoms: N_2  and  S1_49 
REMARK       I    between atoms: S_3  and  O2_103 
REMARK       I    between atoms: C5_6  and  C6_92 
REMARK       I    between atoms: C4_8  and  O4_100 
REMARK       I    between atoms: C2_9  and  O2_103 
REMARK       I    between atoms: O1S_10  and  S1_36 
REMARK       I    between atoms: O2S_11  and  S1_93 
REMARK       I    between atoms: C3_12  and  O3_54 
REMARK       I    between atoms: O4_13  and  C4_20 
REMARK       I    between atoms: O4_13  and  C1_26 
REMARK       I    between atoms: O6_15  and  C6_46 
REMARK       I    between atoms: O6_15  and  S2_104 
REMARK       I    between atoms: C5_16  and  C6_46 
REMARK       I    between atoms: C4_17  and  O4_90 
REMARK       I    between atoms: S_18  and  O2_62 
REMARK       I    between atoms: C3_19  and  O3_68 
REMARK       I    between atoms: S2_25  and  O6_53 
REMARK       I    between atoms: O4_27  and  C4_69 
REMARK       I    between atoms: O4_27  and  C1_89 
REMARK       I    between atoms: O3_28  and  C3_37 
REMARK       I    between atoms: C1_30  and  O4_73 
REMARK       I    between atoms: O2S_32  and  S1_49 
REMARK       I    between atoms: S_33  and  O2_48 
REMARK       I    between atoms: C6_34  and  C5_43 
REMARK       I    between atoms: C6_34  and  O6_60 
REMARK       I    between atoms: S1_36  and  N_85 
REMARK       I    between atoms: S1_36  and  O2S_63 
REMARK       I    between atoms: S1_36  and  O3S_74 
REMARK       I    between atoms: C6_40  and  C5_94 
REMARK       I    between atoms: O3S_42  and  S1_49 
REMARK       I    between atoms: C5_44  and  C6_99 
REMARK       I    between atoms: C1_47  and  O4_106 
REMARK       I    between atoms: O2_48  and  C2_57 
REMARK       I    between atoms: S1_49  and  O1S_55 
REMARK       I    between atoms: O1S_51  and  S1_93 
REMARK       I    between atoms: C3_52  and  O3_87 
REMARK       I    between atoms: O6_53  and  C6_92 
REMARK       I    between atoms: O3S_56  and  S1_93 
REMARK       I    between atoms: O3_58  and  C3_98 
REMARK       I    between atoms: C1_59  and  O1_81 
REMARK       I    between atoms: O6_60  and  S2_65 
REMARK       I    between atoms: O2_62  and  C2_77 
REMARK       I    between atoms: O3_64  and  C3_75 
REMARK       I    between atoms: C5_67  and  C6_101 
REMARK       I    between atoms: O4_73  and  C4_96 
REMARK       I    between atoms: C2_76  and  N_85 
REMARK       I    between atoms: N_78  and  C2_91 
REMARK       I    between atoms: N_78  and  S1_93 
REMARK       I    between atoms: C1_80  and  O4_100 
REMARK       I    between atoms: C4_102  and  O4_106 
ROOT
ATOM      1  O5S SGN d 305     -13.963  44.187  13.755  0.00  0.00    -0.572 OA
ATOM      2  C5  SGN d 305     -16.607  47.514  15.454  0.00  0.00     0.091 C 
ATOM      3  O1S SGN d 305     -19.991  46.972  11.693  0.00  0.00    -0.296 OA
ATOM      4  O4  SGN d 305     -17.571  46.361  17.233  0.00  0.00    -0.348 OA
ATOM      5  C4  SGN d 305     -17.739  46.642  15.892  0.00  0.00     0.095 C 
ATOM      6  O5  SGN d 305     -16.694  47.720  14.089  0.00  0.00    -0.349 OA
ATOM      7  S2  SGN d 305     -13.867  44.938  14.985  0.00  0.00     0.251 S 
ATOM      8  O3  SGN d 305     -20.102  46.803  16.132  0.00  0.00    -0.391 OA
ATOM      9  C1  SGN d 305     -17.868  48.401  13.698  0.00  0.00     0.150 C 
ATOM     10  S1  SGN d 305     -20.791  48.001  12.271  0.00  0.00     0.156 S 
ATOM     11  C3  SGN d 305     -18.977  47.474  15.673  0.00  0.00     0.083 C 
ATOM     12  O6  SGN d 305     -15.176  45.729  15.115  0.00  0.00    -0.254 OA
ATOM     13  O2S SGN d 305     -22.118  47.583  12.458  0.00  0.00    -0.296 OA
ATOM     14  O4S SGN d 305     -13.837  44.113  16.167  0.00  0.00    -0.572 OA
ATOM     15  O3S SGN d 305     -20.659  49.214  11.557  0.00  0.00    -0.296 OA
ATOM     16  C2  SGN d 305     -19.075  47.635  14.192  0.00  0.00     0.081 C 
ATOM     17  N   SGN d 305     -20.274  48.301  13.777  0.00  0.00    -0.210 NA
ATOM     18  C6  SGN d 305     -15.252  46.964  15.725  0.00  0.00     0.067 C 
ATOM     19  O6S SGN d 305     -12.818  45.950  14.934  0.00  0.00    -0.572 OA
ATOM     20  H   SGN d 305     -16.708  48.412  16.027  0.00  0.00     0.090 H 
ATOM     21  H   SGN d 305     -20.101  46.154  12.201  0.00  0.00     0.231 HD
ATOM     22  H   SGN d 305     -17.797  45.715  15.360  0.00  0.00     0.091 H 
ATOM     23  H   SGN d 305     -20.044  46.695  17.094  0.00  0.00     0.210 HD
ATOM     24  H   SGN d 305     -17.892  48.460  12.629  0.00  0.00     0.131 H 
ATOM     25  H   SGN d 305     -18.922  48.408  16.193  0.00  0.00     0.089 H 
ATOM     26  H   SGN d 305     -22.127  46.748  12.953  0.00  0.00     0.231 HD
ATOM     27  H   SGN d 305     -19.719  49.436  11.468  0.00  0.00     0.231 HD
ATOM     28  H   SGN d 305     -19.104  46.655  13.766  0.00  0.00     0.076 H 
ATOM     29  H   SGN d 305     -21.017  48.026  14.419  0.00  0.00     0.140 HD
ATOM     30  H   SGN d 305     -15.104  46.861  16.780  0.00  0.00     0.080 H 
ATOM     31  H   SGN d 305     -14.497  47.619  15.344  0.00  0.00     0.080 H 
ATOM     32  N   SGN d 303     -12.588  56.231  15.231  0.00  0.00    -0.210 NA
ATOM     33  C4  SGN d 303     -16.134  54.965  14.718  0.00  0.00     0.095 C 
ATOM     34  C2  SGN d 303     -14.028  56.161  15.407  0.00  0.00     0.081 C 
ATOM     35  O5S SGN d 303     -19.354  55.679  17.963  0.00  0.00    -0.572 OA
ATOM     36  O2S SGN d 303     -11.463  56.367  17.414  0.00  0.00    -0.296 OA
ATOM     37  C6  SGN d 303     -18.170  56.472  14.543  0.00  0.00     0.067 C 
ATOM     38  O3S SGN d 303     -10.481  57.409  15.497  0.00  0.00    -0.296 OA
ATOM     39  C5  SGN d 303     -16.671  56.342  14.344  0.00  0.00     0.091 C 
ATOM     40  S1  SGN d 303     -11.682  57.152  16.236  0.00  0.00     0.156 S 
ATOM     41  O6S SGN d 303     -19.288  57.884  17.010  0.00  0.00    -0.572 OA
ATOM     42  O1S SGN d 303     -12.420  58.347  16.534  0.00  0.00    -0.296 OA
ATOM     43  O3  SGN d 303     -14.089  53.790  15.106  0.00  0.00    -0.391 OA
ATOM     44  O6  SGN d 303     -18.422  56.025  15.840  0.00  0.00    -0.254 OA
ATOM     45  S2  SGN d 303     -19.521  56.497  16.803  0.00  0.00     0.251 S 
ATOM     46  O5  SGN d 303     -16.065  57.357  15.135  0.00  0.00    -0.349 OA
ATOM     47  C1  SGN d 303     -14.668  57.461  14.970  0.00  0.00     0.150 C 
ATOM     48  O4S SGN d 303     -20.770  56.275  16.158  0.00  0.00    -0.572 OA
ATOM     49  C3  SGN d 303     -14.606  55.004  14.603  0.00  0.00     0.083 C 
ATOM     50  O4  SGN d 303     -16.639  54.037  13.799  0.00  0.00    -0.348 OA
ATOM     51  H   SGN d 303     -12.423  56.579  14.286  0.00  0.00     0.140 HD
ATOM     52  H   SGN d 303     -16.424  54.695  15.712  0.00  0.00     0.091 H 
ATOM     53  H   SGN d 303     -14.238  55.998  16.444  0.00  0.00     0.076 H 
ATOM     54  H   SGN d 303     -10.964  55.568  17.183  0.00  0.00     0.231 HD
ATOM     55  H   SGN d 303     -18.695  55.868  13.832  0.00  0.00     0.080 H 
ATOM     56  H   SGN d 303     -18.500  57.480  14.404  0.00  0.00     0.080 H 
ATOM     57  H   SGN d 303     -10.023  56.572  15.323  0.00  0.00     0.231 HD
ATOM     58  H   SGN d 303     -16.438  56.458  13.306  0.00  0.00     0.090 H 
ATOM     59  H   SGN d 303     -13.220  58.116  17.033  0.00  0.00     0.231 HD
ATOM     60  H   SGN d 303     -14.452  53.049  14.598  0.00  0.00     0.210 HD
ATOM     61  H   SGN d 303     -14.322  58.272  15.576  0.00  0.00     0.131 H 
ATOM     62  H   SGN d 303     -14.337  55.137  13.576  0.00  0.00     0.089 H 
ATOM     63  S   IDS d 302     -10.796  57.216  11.463  0.00  0.00     0.252 S 
ATOM     64  O2S IDS d 302     -10.794  55.916  12.043  0.00  0.00    -0.572 OA
ATOM     65  O62 IDS d 302     -17.362  59.492  13.439  0.00  0.00    -0.646 OA
ATOM     66  C2  IDS d 302     -12.605  59.075  11.503  0.00  0.00     0.134 C 
ATOM     67  O5  IDS d 302     -14.879  58.499  11.040  0.00  0.00    -0.340 OA
ATOM     68  O1S IDS d 302      -9.875  58.120  12.068  0.00  0.00    -0.572 OA
ATOM     69  O4  IDS d 302     -14.296  57.767  13.641  0.00  0.00    -0.348 OA
ATOM     70  O3S IDS d 302     -10.677  57.179  10.050  0.00  0.00    -0.572 OA
ATOM     71  C5  IDS d 302     -15.357  59.258  12.138  0.00  0.00     0.152 C 
ATOM     72  C1  IDS d 302     -13.687  59.005  10.466  0.00  0.00     0.161 C 
ATOM     73  C3  IDS d 302     -13.065  59.675  12.831  0.00  0.00     0.094 C 
ATOM     74  C4  IDS d 302     -14.404  59.127  13.284  0.00  0.00     0.103 C 
ATOM     75  O3  IDS d 302     -13.209  61.060  12.655  0.00  0.00    -0.390 OA
ATOM     76  O61 IDS d 302     -17.429  58.071  11.862  0.00  0.00    -0.646 OA
ATOM     77  C6  IDS d 302     -16.801  58.916  12.498  0.00  0.00     0.206 C 
ATOM     78  O2  IDS d 302     -12.177  57.803  11.760  0.00  0.00    -0.244 OA
ATOM     79  H   IDS d 302     -11.839  59.708  11.106  0.00  0.00     0.097 H 
ATOM     80  H   IDS d 302     -15.391  60.291  11.862  0.00  0.00     0.104 H 
ATOM     81  H   IDS d 302     -13.398  58.332   9.686  0.00  0.00     0.133 H 
ATOM     82  H   IDS d 302     -12.335  59.427  13.572  0.00  0.00     0.091 H 
ATOM     83  H   IDS d 302     -14.744  59.671  14.141  0.00  0.00     0.092 H 
ATOM     84  H   IDS d 302     -13.879  61.232  11.975  0.00  0.00     0.210 HD
ATOM     85  O5  IDS d 306     -17.689  44.068  17.558  0.00  0.00    -0.340 OA
ATOM     86  C4  IDS d 306     -18.306  44.327  19.882  0.00  0.00     0.097 C 
ATOM     87  C3  IDS d 306     -17.051  45.250  20.090  0.00  0.00     0.094 C 
ATOM     88  C1  IDS d 306     -16.841  45.191  17.506  0.00  0.00     0.161 C 
ATOM     89  S   IDS d 306     -14.099  44.409  20.104  0.00  0.00     0.252 S 
ATOM     90  O3S IDS d 306     -12.899  43.849  19.517  0.00  0.00    -0.572 OA
ATOM     91  C6  IDS d 306     -19.899  43.289  18.082  0.00  0.00     0.206 C 
ATOM     92  O61 IDS d 306     -20.042  42.875  16.935  0.00  0.00    -0.646 OA
ATOM     93  O2  IDS d 306     -15.157  44.407  18.979  0.00  0.00    -0.244 OA
ATOM     94  C2  IDS d 306     -16.147  45.369  18.838  0.00  0.00     0.134 C 
ATOM     95  O62 IDS d 306     -20.685  42.907  18.941  0.00  0.00    -0.646 OA
ATOM     96  O3  IDS d 306     -17.446  46.567  20.448  0.00  0.00    -0.390 OA
ATOM     97  O2S IDS d 306     -14.641  43.595  21.175  0.00  0.00    -0.572 OA
ATOM     98  O4  IDS d 306     -17.933  43.012  20.260  0.00  0.00    -0.390 OA
ATOM     99  C5  IDS d 306     -18.781  44.280  18.412  0.00  0.00     0.152 C 
ATOM    100  O1S IDS d 306     -13.986  45.811  20.469  0.00  0.00    -0.572 OA
ATOM    101  H   IDS d 306     -19.109  44.721  20.470  0.00  0.00     0.091 H 
ATOM    102  H   IDS d 306     -16.491  44.778  20.870  0.00  0.00     0.091 H 
ATOM    103  H   IDS d 306     -16.127  45.026  16.726  0.00  0.00     0.133 H 
ATOM    104  H   IDS d 306     -15.775  46.372  18.805  0.00  0.00     0.097 H 
ATOM    105  H   IDS d 306     -17.949  46.963  19.720  0.00  0.00     0.210 HD
ATOM    106  H   IDS d 306     -17.205  42.708  19.696  0.00  0.00     0.210 HD
ATOM    107  H   IDS d 306     -19.224  45.241  18.252  0.00  0.00     0.104 H 
ATOM    108  O2S SGN d 301     -20.170  60.599   7.315  0.00  0.00    -0.296 OA
ATOM    109  C3  SGN d 301     -15.893  61.068   8.810  0.00  0.00     0.083 C 
ATOM    110  O6S SGN d 301     -11.095  58.540   4.890  0.00  0.00    -0.572 OA
ATOM    111  O6  SGN d 301     -12.622  59.060   6.675  0.00  0.00    -0.254 OA
ATOM    112  C5  SGN d 301     -13.718  60.981   7.594  0.00  0.00     0.091 C 
ATOM    113  O5  SGN d 301     -14.430  61.092   6.359  0.00  0.00    -0.350 OA
ATOM    114  O5S SGN d 301     -12.145  56.749   6.133  0.00  0.00    -0.572 OA
ATOM    115  C6  SGN d 301     -12.383  60.320   7.253  0.00  0.00     0.067 C 
ATOM    116  O1S SGN d 301     -18.480  59.850   5.790  0.00  0.00    -0.296 OA
ATOM    117  O3  SGN d 301     -16.725  60.457   9.761  0.00  0.00    -0.391 OA
ATOM    118  O3S SGN d 301     -19.434  62.023   5.521  0.00  0.00    -0.296 OA
ATOM    119  C1  SGN d 301     -15.666  61.776   6.473  0.00  0.00     0.147 C 
ATOM    120  N   SGN d 301     -17.921  61.650   7.447  0.00  0.00    -0.210 NA
ATOM    121  O1  SGN d 301     -15.445  63.125   6.951  0.00  0.00    -0.369 OA
ATOM    122  O4S SGN d 301     -10.459  58.117   7.175  0.00  0.00    -0.572 OA
ATOM    123  C2  SGN d 301     -16.580  61.046   7.444  0.00  0.00     0.081 C 
ATOM    124  S1  SGN d 301     -19.076  60.987   6.460  0.00  0.00     0.156 S 
ATOM    125  C4  SGN d 301     -14.575  60.260   8.674  0.00  0.00     0.095 C 
ATOM    126  S2  SGN d 301     -11.517  58.052   6.186  0.00  0.00     0.251 S 
ATOM    127  O4  SGN d 301     -13.874  60.263   9.897  0.00  0.00    -0.348 OA
ATOM    128  H   SGN d 301     -20.875  60.204   6.779  0.00  0.00     0.231 HD
ATOM    129  H   SGN d 301     -15.694  62.071   9.124  0.00  0.00     0.089 H 
ATOM    130  H   SGN d 301     -13.515  61.927   8.049  0.00  0.00     0.090 H 
ATOM    131  H   SGN d 301     -11.847  60.935   6.561  0.00  0.00     0.080 H 
ATOM    132  H   SGN d 301     -11.804  60.201   8.145  0.00  0.00     0.080 H 
ATOM    133  H   SGN d 301     -19.134  59.441   5.203  0.00  0.00     0.231 HD
ATOM    134  H   SGN d 301     -16.913  59.546   9.487  0.00  0.00     0.210 HD
ATOM    135  H   SGN d 301     -20.112  61.689   4.914  0.00  0.00     0.231 HD
ATOM    136  H   SGN d 301     -16.125  61.810   5.508  0.00  0.00     0.131 H 
ATOM    137  H   SGN d 301     -17.814  62.628   7.175  0.00  0.00     0.140 HD
ATOM    138  H   SGN d 301     -15.028  63.094   7.826  0.00  0.00     0.212 HD
ATOM    139  H   SGN d 301     -16.737  60.027   7.154  0.00  0.00     0.076 H 
ATOM    140  H   SGN d 301     -14.780  59.245   8.405  0.00  0.00     0.091 H 
ATOM    141  S   IDS d 304     -20.853  52.845  13.647  0.00  0.00     0.252 S 
ATOM    142  O62 IDS d 304     -14.445  50.146  15.635  0.00  0.00    -0.646 OA
ATOM    143  O1S IDS d 304     -20.488  54.190  13.389  0.00  0.00    -0.572 OA
ATOM    144  O2  IDS d 304     -19.568  52.023  13.511  0.00  0.00    -0.244 OA
ATOM    145  O3  IDS d 304     -16.535  51.767  11.644  0.00  0.00    -0.390 OA
ATOM    146  C5  IDS d 304     -16.227  51.372  14.668  0.00  0.00     0.152 C 
ATOM    147  O5  IDS d 304     -17.149  52.256  15.200  0.00  0.00    -0.340 OA
ATOM    148  O3S IDS d 304     -21.255  52.633  14.976  0.00  0.00    -0.572 OA
ATOM    149  O4  IDS d 304     -17.885  49.704  14.193  0.00  0.00    -0.348 OA
ATOM    150  C3  IDS d 304     -17.544  51.301  12.510  0.00  0.00     0.094 C 
ATOM    151  C2  IDS d 304     -18.321  52.500  13.091  0.00  0.00     0.134 C 
ATOM    152  C1  IDS d 304     -17.645  53.202  14.269  0.00  0.00     0.161 C 
ATOM    153  O2S IDS d 304     -21.793  52.340  12.700  0.00  0.00    -0.572 OA
ATOM    154  O61 IDS d 304     -16.024  50.482  16.873  0.00  0.00    -0.646 OA
ATOM    155  C4  IDS d 304     -16.894  50.485  13.608  0.00  0.00     0.103 C 
ATOM    156  C6  IDS d 304     -15.522  50.630  15.791  0.00  0.00     0.206 C 
ATOM    157  H   IDS d 304     -16.935  52.293  10.934  0.00  0.00     0.210 HD
ATOM    158  H   IDS d 304     -15.454  51.892  14.142  0.00  0.00     0.104 H 
ATOM    159  H   IDS d 304     -18.240  50.683  11.981  0.00  0.00     0.091 H 
ATOM    160  H   IDS d 304     -18.383  53.236  12.316  0.00  0.00     0.097 H 
ATOM    161  H   IDS d 304     -18.366  53.802  14.785  0.00  0.00     0.133 H 
ATOM    162  H   IDS d 304     -16.120  49.877  13.186  0.00  0.00     0.092 H 
ENDROOT
TORSDOF 51
ENDMDL
MODEL 27
REMARK VINA RESULT:      -6.9      5.104     15.191
REMARK  0 active torsions:
REMARK  status: ('A' for Active; 'I' for Inactive)
REMARK       I    between atoms: N_2  and  C2_29 
REMARK       I    between atoms: N_2  and  S1_49 
REMARK       I    between atoms: S_3  and  O2_103 
REMARK       I    between atoms: C5_6  and  C6_92 
REMARK       I    between atoms: C4_8  and  O4_100 
REMARK       I    between atoms: C2_9  and  O2_103 
REMARK       I    between atoms: O1S_10  and  S1_36 
REMARK       I    between atoms: O2S_11  and  S1_93 
REMARK       I    between atoms: C3_12  and  O3_54 
REMARK       I    between atoms: O4_13  and  C4_20 
REMARK       I    between atoms: O4_13  and  C1_26 
REMARK       I    between atoms: O6_15  and  C6_46 
REMARK       I    between atoms: O6_15  and  S2_104 
REMARK       I    between atoms: C5_16  and  C6_46 
REMARK       I    between atoms: C4_17  and  O4_90 
REMARK       I    between atoms: S_18  and  O2_62 
REMARK       I    between atoms: C3_19  and  O3_68 
REMARK       I    between atoms: S2_25  and  O6_53 
REMARK       I    between atoms: O4_27  and  C4_69 
REMARK       I    between atoms: O4_27  and  C1_89 
REMARK       I    between atoms: O3_28  and  C3_37 
REMARK       I    between atoms: C1_30  and  O4_73 
REMARK       I    between atoms: O2S_32  and  S1_49 
REMARK       I    between atoms: S_33  and  O2_48 
REMARK       I    between atoms: C6_34  and  C5_43 
REMARK       I    between atoms: C6_34  and  O6_60 
REMARK       I    between atoms: S1_36  and  N_85 
REMARK       I    between atoms: S1_36  and  O2S_63 
REMARK       I    between atoms: S1_36  and  O3S_74 
REMARK       I    between atoms: C6_40  and  C5_94 
REMARK       I    between atoms: O3S_42  and  S1_49 
REMARK       I    between atoms: C5_44  and  C6_99 
REMARK       I    between atoms: C1_47  and  O4_106 
REMARK       I    between atoms: O2_48  and  C2_57 
REMARK       I    between atoms: S1_49  and  O1S_55 
REMARK       I    between atoms: O1S_51  and  S1_93 
REMARK       I    between atoms: C3_52  and  O3_87 
REMARK       I    between atoms: O6_53  and  C6_92 
REMARK       I    between atoms: O3S_56  and  S1_93 
REMARK       I    between atoms: O3_58  and  C3_98 
REMARK       I    between atoms: C1_59  and  O1_81 
REMARK       I    between atoms: O6_60  and  S2_65 
REMARK       I    between atoms: O2_62  and  C2_77 
REMARK       I    between atoms: O3_64  and  C3_75 
REMARK       I    between atoms: C5_67  and  C6_101 
REMARK       I    between atoms: O4_73  and  C4_96 
REMARK       I    between atoms: C2_76  and  N_85 
REMARK       I    between atoms: N_78  and  C2_91 
REMARK       I    between atoms: N_78  and  S1_93 
REMARK       I    between atoms: C1_80  and  O4_100 
REMARK       I    between atoms: C4_102  and  O4_106 
ROOT
ATOM      1  O5S SGN d 305     -20.590  44.290  12.443  0.00  0.00    -0.572 OA
ATOM      2  C5  SGN d 305     -21.348  48.312  14.490  0.00  0.00     0.091 C 
ATOM      3  O1S SGN d 305     -24.139  49.969  10.571  0.00  0.00    -0.296 OA
ATOM      4  O4  SGN d 305     -22.937  47.647  16.057  0.00  0.00    -0.348 OA
ATOM      5  C4  SGN d 305     -22.803  48.108  14.762  0.00  0.00     0.095 C 
ATOM      6  O5  SGN d 305     -21.179  48.670  13.165  0.00  0.00    -0.349 OA
ATOM      7  S2  SGN d 305     -20.254  44.757  13.768  0.00  0.00     0.251 S 
ATOM      8  O3  SGN d 305     -24.771  49.435  14.937  0.00  0.00    -0.391 OA
ATOM      9  C1  SGN d 305     -21.801  49.892  12.830  0.00  0.00     0.150 C 
ATOM     10  S1  SGN d 305     -24.363  51.198  11.258  0.00  0.00     0.156 S 
ATOM     11  C3  SGN d 305     -23.421  49.475  14.616  0.00  0.00     0.083 C 
ATOM     12  O6  SGN d 305     -20.988  46.090  13.958  0.00  0.00    -0.254 OA
ATOM     13  O2S SGN d 305     -25.731  51.506  11.337  0.00  0.00    -0.296 OA
ATOM     14  O4S SGN d 305     -20.765  43.919  14.824  0.00  0.00    -0.572 OA
ATOM     15  O3S SGN d 305     -23.564  52.235  10.724  0.00  0.00    -0.296 OA
ATOM     16  C2  SGN d 305     -23.273  49.811  13.170  0.00  0.00     0.081 C 
ATOM     17  N   SGN d 305     -23.922  51.036  12.808  0.00  0.00    -0.210 NA
ATOM     18  C6  SGN d 305     -20.492  47.120  14.730  0.00  0.00     0.067 C 
ATOM     19  O6S SGN d 305     -18.838  45.084  13.895  0.00  0.00    -0.572 OA
ATOM     20  H   SGN d 305     -21.039  49.071  15.178  0.00  0.00     0.090 H 
ATOM     21  H   SGN d 305     -24.698  49.277  10.957  0.00  0.00     0.231 HD
ATOM     22  H   SGN d 305     -23.267  47.401  14.105  0.00  0.00     0.091 H 
ATOM     23  H   SGN d 305     -24.873  49.217  15.877  0.00  0.00     0.210 HD
ATOM     24  H   SGN d 305     -21.683  50.063  11.780  0.00  0.00     0.131 H 
ATOM     25  H   SGN d 305     -22.955  50.190  15.262  0.00  0.00     0.089 H 
ATOM     26  H   SGN d 305     -26.211  50.750  11.711  0.00  0.00     0.231 HD
ATOM     27  H   SGN d 305     -22.638  51.950  10.700  0.00  0.00     0.231 HD
ATOM     28  H   SGN d 305     -23.750  49.034  12.611  0.00  0.00     0.076 H 
ATOM     29  H   SGN d 305     -24.763  51.120  13.379  0.00  0.00     0.140 HD
ATOM     30  H   SGN d 305     -20.525  46.850  15.765  0.00  0.00     0.080 H 
ATOM     31  H   SGN d 305     -19.475  47.328  14.471  0.00  0.00     0.080 H 
ATOM     32  N   SGN d 303     -13.476  53.693  15.621  0.00  0.00    -0.210 NA
ATOM     33  C4  SGN d 303     -17.103  54.489  14.811  0.00  0.00     0.095 C 
ATOM     34  C2  SGN d 303     -14.764  54.356  15.734  0.00  0.00     0.081 C 
ATOM     35  O5S SGN d 303     -19.831  56.427  18.006  0.00  0.00    -0.572 OA
ATOM     36  O2S SGN d 303     -12.666  53.011  17.841  0.00  0.00    -0.296 OA
ATOM     37  C6  SGN d 303     -18.068  56.838  14.774  0.00  0.00     0.067 C 
ATOM     38  O3S SGN d 303     -11.103  53.587  16.123  0.00  0.00    -0.296 OA
ATOM     39  C5  SGN d 303     -16.829  55.976  14.612  0.00  0.00     0.091 C 
ATOM     40  S1  SGN d 303     -12.337  53.911  16.775  0.00  0.00     0.156 S 
ATOM     41  O6S SGN d 303     -18.563  58.366  17.371  0.00  0.00    -0.572 OA
ATOM     42  O1S SGN d 303     -12.396  55.278  17.210  0.00  0.00    -0.296 OA
ATOM     43  O3  SGN d 303     -15.983  52.398  15.105  0.00  0.00    -0.391 OA
ATOM     44  O6  SGN d 303     -18.642  56.456  15.986  0.00  0.00    -0.254 OA
ATOM     45  S2  SGN d 303     -19.443  57.326  16.966  0.00  0.00     0.251 S 
ATOM     46  O5  SGN d 303     -15.877  56.450  15.558  0.00  0.00    -0.349 OA
ATOM     47  C1  SGN d 303     -14.610  55.836  15.459  0.00  0.00     0.150 C 
ATOM     48  O4S SGN d 303     -20.560  57.844  16.251  0.00  0.00    -0.572 OA
ATOM     49  C3  SGN d 303     -15.762  53.748  14.757  0.00  0.00     0.083 C 
ATOM     50  O4  SGN d 303     -17.911  54.051  13.754  0.00  0.00    -0.348 OA
ATOM     51  H   SGN d 303     -13.063  53.999  14.739  0.00  0.00     0.140 HD
ATOM     52  H   SGN d 303     -17.589  54.308  15.747  0.00  0.00     0.091 H 
ATOM     53  H   SGN d 303     -15.131  54.220  16.730  0.00  0.00     0.076 H 
ATOM     54  H   SGN d 303     -12.618  52.097  17.519  0.00  0.00     0.231 HD
ATOM     55  H   SGN d 303     -18.751  56.664  13.968  0.00  0.00     0.080 H 
ATOM     56  H   SGN d 303     -17.828  57.880  14.764  0.00  0.00     0.080 H 
ATOM     57  H   SGN d 303     -11.115  52.656  15.851  0.00  0.00     0.231 HD
ATOM     58  H   SGN d 303     -16.465  56.059  13.610  0.00  0.00     0.090 H 
ATOM     59  H   SGN d 303     -13.249  55.442  17.643  0.00  0.00     0.231 HD
ATOM     60  H   SGN d 303     -16.618  52.005  14.487  0.00  0.00     0.210 HD
ATOM     61  H   SGN d 303     -13.966  56.289  16.183  0.00  0.00     0.131 H 
ATOM     62  H   SGN d 303     -15.360  53.827  13.769  0.00  0.00     0.089 H 
ATOM     63  S   IDS d 302     -11.059  53.989  12.092  0.00  0.00     0.252 S 
ATOM     64  O2S IDS d 302     -11.774  52.823  12.486  0.00  0.00    -0.572 OA
ATOM     65  O62 IDS d 302     -15.738  59.105  14.128  0.00  0.00    -0.646 OA
ATOM     66  C2  IDS d 302     -11.675  56.500  12.324  0.00  0.00     0.134 C 
ATOM     67  O5  IDS d 302     -13.868  57.225  11.705  0.00  0.00    -0.340 OA
ATOM     68  O1S IDS d 302      -9.875  54.225  12.849  0.00  0.00    -0.572 OA
ATOM     69  O4  IDS d 302     -14.002  56.040  14.199  0.00  0.00    -0.348 OA
ATOM     70  O3S IDS d 302     -10.832  54.039  10.693  0.00  0.00    -0.572 OA
ATOM     71  C5  IDS d 302     -14.005  58.006  12.880  0.00  0.00     0.152 C 
ATOM     72  C1  IDS d 302     -12.531  57.100  11.250  0.00  0.00     0.161 C 
ATOM     73  C3  IDS d 302     -11.901  57.113  13.705  0.00  0.00     0.094 C 
ATOM     74  C4  IDS d 302     -13.371  57.289  14.031  0.00  0.00     0.103 C 
ATOM     75  O3  IDS d 302     -11.306  58.384  13.718  0.00  0.00    -0.390 OA
ATOM     76  O61 IDS d 302     -16.352  58.088  12.368  0.00  0.00    -0.646 OA
ATOM     77  C6  IDS d 302     -15.452  58.421  13.137  0.00  0.00     0.206 C 
ATOM     78  O2  IDS d 302     -11.977  55.170  12.419  0.00  0.00    -0.244 OA
ATOM     79  H   IDS d 302     -10.658  56.684  12.047  0.00  0.00     0.097 H 
ATOM     80  H   IDS d 302     -13.484  58.931  12.748  0.00  0.00     0.104 H 
ATOM     81  H   IDS d 302     -12.544  56.457  10.395  0.00  0.00     0.133 H 
ATOM     82  H   IDS d 302     -11.476  56.452  14.431  0.00  0.00     0.091 H 
ATOM     83  H   IDS d 302     -13.475  57.842  14.941  0.00  0.00     0.092 H 
ATOM     84  H   IDS d 302     -11.725  58.944  13.045  0.00  0.00     0.210 HD
ATOM     85  O5  IDS d 306     -24.230  45.721  16.057  0.00  0.00    -0.340 OA
ATOM     86  C4  IDS d 306     -24.865  46.026  18.371  0.00  0.00     0.097 C 
ATOM     87  C3  IDS d 306     -23.343  46.146  18.748  0.00  0.00     0.094 C 
ATOM     88  C1  IDS d 306     -22.930  46.247  16.190  0.00  0.00     0.161 C 
ATOM     89  S   IDS d 306     -21.240  43.910  18.752  0.00  0.00     0.252 S 
ATOM     90  O3S IDS d 306     -20.435  42.876  18.136  0.00  0.00    -0.572 OA
ATOM     91  C6  IDS d 306     -26.571  46.142  16.388  0.00  0.00     0.206 C 
ATOM     92  O61 IDS d 306     -26.786  45.978  15.191  0.00  0.00    -0.646 OA
ATOM     93  O2  IDS d 306     -22.034  44.566  17.600  0.00  0.00    -0.244 OA
ATOM     94  C2  IDS d 306     -22.381  45.908  17.559  0.00  0.00     0.134 C 
ATOM     95  O62 IDS d 306     -27.525  46.134  17.157  0.00  0.00    -0.646 OA
ATOM     96  O3  IDS d 306     -23.053  47.435  19.272  0.00  0.00    -0.390 OA
ATOM     97  O2S IDS d 306     -22.225  43.388  19.680  0.00  0.00    -0.572 OA
ATOM     98  O4  IDS d 306     -25.248  44.676  18.576  0.00  0.00    -0.390 OA
ATOM     99  C5  IDS d 306     -25.145  46.377  16.891  0.00  0.00     0.152 C 
ATOM    100  O1S IDS d 306     -20.472  45.009  19.311  0.00  0.00    -0.572 OA
ATOM    101  H   IDS d 306     -25.413  46.715  18.978  0.00  0.00     0.091 H 
ATOM    102  H   IDS d 306     -23.182  45.377  19.475  0.00  0.00     0.091 H 
ATOM    103  H   IDS d 306     -22.323  45.818  15.421  0.00  0.00     0.133 H 
ATOM    104  H   IDS d 306     -21.552  46.575  17.678  0.00  0.00     0.097 H 
ATOM    105  H   IDS d 306     -23.210  48.104  18.587  0.00  0.00     0.210 HD
ATOM    106  H   IDS d 306     -24.720  44.099  18.002  0.00  0.00     0.210 HD
ATOM    107  H   IDS d 306     -25.024  47.440  16.851  0.00  0.00     0.104 H 
ATOM    108  O2S SGN d 301     -16.961  62.108   8.120  0.00  0.00    -0.296 OA
ATOM    109  C3  SGN d 301     -13.211  60.158   9.818  0.00  0.00     0.083 C 
ATOM    110  O6S SGN d 301      -9.978  55.932   5.760  0.00  0.00    -0.572 OA
ATOM    111  O6  SGN d 301     -11.206  56.981   7.543  0.00  0.00    -0.254 OA
ATOM    112  C5  SGN d 301     -11.268  59.088   8.680  0.00  0.00     0.091 C 
ATOM    113  O5  SGN d 301     -11.697  59.673   7.448  0.00  0.00    -0.350 OA
ATOM    114  O5S SGN d 301     -11.909  54.821   6.704  0.00  0.00    -0.572 OA
ATOM    115  C6  SGN d 301     -10.423  57.873   8.299  0.00  0.00     0.067 C 
ATOM    116  O1S SGN d 301     -15.736  60.755   6.567  0.00  0.00    -0.296 OA
ATOM    117  O3  SGN d 301     -14.329  59.970  10.644  0.00  0.00    -0.391 OA
ATOM    118  O3S SGN d 301     -15.428  63.124   6.569  0.00  0.00    -0.296 OA
ATOM    119  C1  SGN d 301     -12.421  60.879   7.611  0.00  0.00     0.147 C 
ATOM    120  N   SGN d 301     -14.516  61.834   8.477  0.00  0.00    -0.210 NA
ATOM    121  O1  SGN d 301     -11.599  61.867   8.278  0.00  0.00    -0.369 OA
ATOM    122  O4S SGN d 301      -9.879  55.015   7.985  0.00  0.00    -0.572 OA
ATOM    123  C2  SGN d 301     -13.673  60.630   8.438  0.00  0.00     0.081 C 
ATOM    124  S1  SGN d 301     -15.740  61.962   7.367  0.00  0.00     0.156 S 
ATOM    125  C4  SGN d 301     -12.477  58.806   9.618  0.00  0.00     0.095 C 
ATOM    126  S2  SGN d 301     -10.718  55.604   6.959  0.00  0.00     0.251 S 
ATOM    127  O4  SGN d 301     -11.998  58.325  10.854  0.00  0.00    -0.348 OA
ATOM    128  H   SGN d 301     -17.710  62.188   7.509  0.00  0.00     0.231 HD
ATOM    129  H   SGN d 301     -12.565  60.879  10.275  0.00  0.00     0.089 H 
ATOM    130  H   SGN d 301     -10.662  59.744   9.268  0.00  0.00     0.090 H 
ATOM    131  H   SGN d 301      -9.582  58.191   7.719  0.00  0.00     0.080 H 
ATOM    132  H   SGN d 301     -10.078  57.384   9.186  0.00  0.00     0.080 H 
ATOM    133  H   SGN d 301     -16.444  60.802   5.907  0.00  0.00     0.231 HD
ATOM    134  H   SGN d 301     -14.923  59.318  10.241  0.00  0.00     0.210 HD
ATOM    135  H   SGN d 301     -16.117  63.248   5.897  0.00  0.00     0.231 HD
ATOM    136  H   SGN d 301     -12.699  61.242   6.644  0.00  0.00     0.131 H 
ATOM    137  H   SGN d 301     -13.903  62.639   8.347  0.00  0.00     0.140 HD
ATOM    138  H   SGN d 301     -11.347  61.539   9.155  0.00  0.00     0.212 HD
ATOM    139  H   SGN d 301     -14.292  59.873   8.005  0.00  0.00     0.076 H 
ATOM    140  H   SGN d 301     -13.137  58.073   9.204  0.00  0.00     0.091 H 
ATOM    141  S   IDS d 304     -22.109  55.218  13.288  0.00  0.00     0.252 S 
ATOM    142  O62 IDS d 304     -18.183  49.424  15.111  0.00  0.00    -0.646 OA
ATOM    143  O1S IDS d 304     -21.090  56.202  13.232  0.00  0.00    -0.572 OA
ATOM    144  O2  IDS d 304     -21.409  53.870  13.086  0.00  0.00    -0.244 OA
ATOM    145  O3  IDS d 304     -18.749  52.281  11.311  0.00  0.00    -0.390 OA
ATOM    146  C5  IDS d 304     -18.992  51.482  14.260  0.00  0.00     0.152 C 
ATOM    147  O5  IDS d 304     -19.390  52.656  14.876  0.00  0.00    -0.340 OA
ATOM    148  O3S IDS d 304     -22.695  55.110  14.560  0.00  0.00    -0.572 OA
ATOM    149  O4  IDS d 304     -21.208  50.962  13.500  0.00  0.00    -0.348 OA
ATOM    150  C3  IDS d 304     -19.938  52.315  12.067  0.00  0.00     0.094 C 
ATOM    151  C2  IDS d 304     -20.056  53.679  12.780  0.00  0.00     0.134 C 
ATOM    152  C1  IDS d 304     -19.243  53.810  14.068  0.00  0.00     0.161 C 
ATOM    153  O2S IDS d 304     -23.073  55.367  12.247  0.00  0.00    -0.572 OA
ATOM    154  O61 IDS d 304     -19.493  50.398  16.327  0.00  0.00    -0.646 OA
ATOM    155  C4  IDS d 304     -19.904  51.176  13.065  0.00  0.00     0.103 C 
ATOM    156  C6  IDS d 304     -18.878  50.374  15.294  0.00  0.00     0.206 C 
ATOM    157  H   IDS d 304     -18.754  53.006  10.667  0.00  0.00     0.210 HD
ATOM    158  H   IDS d 304     -18.013  51.580  13.839  0.00  0.00     0.104 H 
ATOM    159  H   IDS d 304     -20.792  52.200  11.433  0.00  0.00     0.091 H 
ATOM    160  H   IDS d 304     -19.659  54.414  12.114  0.00  0.00     0.097 H 
ATOM    161  H   IDS d 304     -19.610  54.640  14.636  0.00  0.00     0.133 H 
ATOM    162  H   IDS d 304     -19.506  50.303  12.590  0.00  0.00     0.092 H 
ENDROOT
TORSDOF 51
ENDMDL
MODEL 28
REMARK VINA RESULT:      -6.7      4.440      5.977
REMARK  0 active torsions:
REMARK  status: ('A' for Active; 'I' for Inactive)
REMARK       I    between atoms: N_2  and  C2_29 
REMARK       I    between atoms: N_2  and  S1_49 
REMARK       I    between atoms: S_3  and  O2_103 
REMARK       I    between atoms: C5_6  and  C6_92 
REMARK       I    between atoms: C4_8  and  O4_100 
REMARK       I    between atoms: C2_9  and  O2_103 
REMARK       I    between atoms: O1S_10  and  S1_36 
REMARK       I    between atoms: O2S_11  and  S1_93 
REMARK       I    between atoms: C3_12  and  O3_54 
REMARK       I    between atoms: O4_13  and  C4_20 
REMARK       I    between atoms: O4_13  and  C1_26 
REMARK       I    between atoms: O6_15  and  C6_46 
REMARK       I    between atoms: O6_15  and  S2_104 
REMARK       I    between atoms: C5_16  and  C6_46 
REMARK       I    between atoms: C4_17  and  O4_90 
REMARK       I    between atoms: S_18  and  O2_62 
REMARK       I    between atoms: C3_19  and  O3_68 
REMARK       I    between atoms: S2_25  and  O6_53 
REMARK       I    between atoms: O4_27  and  C4_69 
REMARK       I    between atoms: O4_27  and  C1_89 
REMARK       I    between atoms: O3_28  and  C3_37 
REMARK       I    between atoms: C1_30  and  O4_73 
REMARK       I    between atoms: O2S_32  and  S1_49 
REMARK       I    between atoms: S_33  and  O2_48 
REMARK       I    between atoms: C6_34  and  C5_43 
REMARK       I    between atoms: C6_34  and  O6_60 
REMARK       I    between atoms: S1_36  and  N_85 
REMARK       I    between atoms: S1_36  and  O2S_63 
REMARK       I    between atoms: S1_36  and  O3S_74 
REMARK       I    between atoms: C6_40  and  C5_94 
REMARK       I    between atoms: O3S_42  and  S1_49 
REMARK       I    between atoms: C5_44  and  C6_99 
REMARK       I    between atoms: C1_47  and  O4_106 
REMARK       I    between atoms: O2_48  and  C2_57 
REMARK       I    between atoms: S1_49  and  O1S_55 
REMARK       I    between atoms: O1S_51  and  S1_93 
REMARK       I    between atoms: C3_52  and  O3_87 
REMARK       I    between atoms: O6_53  and  C6_92 
REMARK       I    between atoms: O3S_56  and  S1_93 
REMARK       I    between atoms: O3_58  and  C3_98 
REMARK       I    between atoms: C1_59  and  O1_81 
REMARK       I    between atoms: O6_60  and  S2_65 
REMARK       I    between atoms: O2_62  and  C2_77 
REMARK       I    between atoms: O3_64  and  C3_75 
REMARK       I    between atoms: C5_67  and  C6_101 
REMARK       I    between atoms: O4_73  and  C4_96 
REMARK       I    between atoms: C2_76  and  N_85 
REMARK       I    between atoms: N_78  and  C2_91 
REMARK       I    between atoms: N_78  and  S1_93 
REMARK       I    between atoms: C1_80  and  O4_100 
REMARK       I    between atoms: C4_102  and  O4_106 
ROOT
ATOM      1  O5S SGN d 305     -17.209  44.597  10.751  0.00  0.00    -0.572 OA
ATOM      2  C5  SGN d 305     -17.869  48.736  12.589  0.00  0.00     0.091 C 
ATOM      3  O1S SGN d 305     -19.071  46.722  17.105  0.00  0.00    -0.296 OA
ATOM      4  O4  SGN d 305     -15.651  49.393  12.851  0.00  0.00    -0.348 OA
ATOM      5  C4  SGN d 305     -16.678  48.728  13.491  0.00  0.00     0.095 C 
ATOM      6  O5  SGN d 305     -18.878  47.982  13.161  0.00  0.00    -0.349 OA
ATOM      7  S2  SGN d 305     -16.983  45.919  10.215  0.00  0.00     0.251 S 
ATOM      8  O3  SGN d 305     -16.058  49.624  15.607  0.00  0.00    -0.391 OA
ATOM      9  C1  SGN d 305     -19.334  48.498  14.394  0.00  0.00     0.150 C 
ATOM     10  S1  SGN d 305     -19.245  48.032  17.637  0.00  0.00     0.156 S 
ATOM     11  C3  SGN d 305     -17.116  49.481  14.721  0.00  0.00     0.083 C 
ATOM     12  O6  SGN d 305     -17.150  46.898  11.384  0.00  0.00    -0.254 OA
ATOM     13  O2S SGN d 305     -18.496  48.220  18.809  0.00  0.00    -0.296 OA
ATOM     14  O4S SGN d 305     -15.631  46.137   9.763  0.00  0.00    -0.572 OA
ATOM     15  O3S SGN d 305     -20.616  48.354  17.766  0.00  0.00    -0.296 OA
ATOM     16  C2  SGN d 305     -18.164  48.621  15.345  0.00  0.00     0.081 C 
ATOM     17  N   SGN d 305     -18.618  49.117  16.610  0.00  0.00    -0.210 NA
ATOM     18  C6  SGN d 305     -17.631  48.181  11.230  0.00  0.00     0.067 C 
ATOM     19  O6S SGN d 305     -18.006  46.306   9.250  0.00  0.00    -0.572 OA
ATOM     20  H   SGN d 305     -18.125  49.768  12.472  0.00  0.00     0.090 H 
ATOM     21  H   SGN d 305     -18.124  46.528  17.027  0.00  0.00     0.231 HD
ATOM     22  H   SGN d 305     -16.336  47.745  13.741  0.00  0.00     0.091 H 
ATOM     23  H   SGN d 305     -15.374  50.183  15.206  0.00  0.00     0.210 HD
ATOM     24  H   SGN d 305     -20.060  47.825  14.802  0.00  0.00     0.131 H 
ATOM     25  H   SGN d 305     -17.470  50.462  14.478  0.00  0.00     0.089 H 
ATOM     26  H   SGN d 305     -17.571  47.980  18.643  0.00  0.00     0.231 HD
ATOM     27  H   SGN d 305     -21.065  48.199  16.921  0.00  0.00     0.231 HD
ATOM     28  H   SGN d 305     -17.722  47.664  15.531  0.00  0.00     0.076 H 
ATOM     29  H   SGN d 305     -17.823  49.557  17.073  0.00  0.00     0.140 HD
ATOM     30  H   SGN d 305     -16.912  48.781  10.712  0.00  0.00     0.080 H 
ATOM     31  H   SGN d 305     -18.536  48.177  10.660  0.00  0.00     0.080 H 
ATOM     32  N   SGN d 303     -25.309  53.543   8.882  0.00  0.00    -0.210 NA
ATOM     33  C4  SGN d 303     -23.851  53.259  12.380  0.00  0.00     0.095 C 
ATOM     34  C2  SGN d 303     -24.790  53.993  10.161  0.00  0.00     0.081 C 
ATOM     35  O5S SGN d 303     -21.482  56.788  14.208  0.00  0.00    -0.572 OA
ATOM     36  O2S SGN d 303     -24.276  54.810   7.044  0.00  0.00    -0.296 OA
ATOM     37  C6  SGN d 303     -24.553  54.719  14.335  0.00  0.00     0.067 C 
ATOM     38  O3S SGN d 303     -26.508  53.979   6.816  0.00  0.00    -0.296 OA
ATOM     39  C5  SGN d 303     -24.957  54.100  13.009  0.00  0.00     0.091 C 
ATOM     40  S1  SGN d 303     -25.550  54.616   7.670  0.00  0.00     0.156 S 
ATOM     41  O6S SGN d 303     -23.708  57.651  14.480  0.00  0.00    -0.572 OA
ATOM     42  O1S SGN d 303     -26.040  55.837   8.246  0.00  0.00    -0.296 OA
ATOM     43  O3  SGN d 303     -23.255  52.169  10.337  0.00  0.00    -0.391 OA
ATOM     44  O6  SGN d 303     -23.332  55.350  14.104  0.00  0.00    -0.254 OA
ATOM     45  S2  SGN d 303     -22.781  56.616  14.779  0.00  0.00     0.251 S 
ATOM     46  O5  SGN d 303     -25.330  55.173  12.154  0.00  0.00    -0.349 OA
ATOM     47  C1  SGN d 303     -25.855  54.765  10.910  0.00  0.00     0.150 C 
ATOM     48  O4S SGN d 303     -22.729  56.357  16.177  0.00  0.00    -0.572 OA
ATOM     49  C3  SGN d 303     -24.330  52.805  10.996  0.00  0.00     0.083 C 
ATOM     50  O4  SGN d 303     -23.648  52.132  13.186  0.00  0.00    -0.348 OA
ATOM     51  H   SGN d 303     -26.211  53.102   9.068  0.00  0.00     0.140 HD
ATOM     52  H   SGN d 303     -22.943  53.818  12.293  0.00  0.00     0.091 H 
ATOM     53  H   SGN d 303     -23.952  54.634   9.983  0.00  0.00     0.076 H 
ATOM     54  H   SGN d 303     -23.970  53.971   6.665  0.00  0.00     0.231 HD
ATOM     55  H   SGN d 303     -24.446  53.962  15.083  0.00  0.00     0.080 H 
ATOM     56  H   SGN d 303     -25.291  55.408  14.689  0.00  0.00     0.080 H 
ATOM     57  H   SGN d 303     -26.128  53.163   6.455  0.00  0.00     0.231 HD
ATOM     58  H   SGN d 303     -25.767  53.419  13.166  0.00  0.00     0.090 H 
ATOM     59  H   SGN d 303     -25.355  56.224   8.812  0.00  0.00     0.231 HD
ATOM     60  H   SGN d 303     -22.956  51.411  10.863  0.00  0.00     0.210 HD
ATOM     61  H   SGN d 303     -26.137  55.642  10.365  0.00  0.00     0.131 H 
ATOM     62  H   SGN d 303     -25.155  52.134  11.115  0.00  0.00     0.089 H 
ATOM     63  S   IDS d 302     -28.893  51.211   8.565  0.00  0.00     0.252 S 
ATOM     64  O2S IDS d 302     -27.579  50.704   8.361  0.00  0.00    -0.572 OA
ATOM     65  O62 IDS d 302     -27.649  55.847  13.966  0.00  0.00    -0.646 OA
ATOM     66  C2  IDS d 302     -29.767  52.999  10.230  0.00  0.00     0.134 C 
ATOM     67  O5  IDS d 302     -29.089  52.890  12.521  0.00  0.00    -0.340 OA
ATOM     68  O1S IDS d 302     -29.383  52.000   7.484  0.00  0.00    -0.572 OA
ATOM     69  O4  IDS d 302     -27.026  53.983  11.041  0.00  0.00    -0.348 OA
ATOM     70  O3S IDS d 302     -29.807  50.203   8.964  0.00  0.00    -0.572 OA
ATOM     71  C5  IDS d 302     -28.812  54.280  12.566  0.00  0.00     0.152 C 
ATOM     72  C1  IDS d 302     -30.119  52.538  11.613  0.00  0.00     0.161 C 
ATOM     73  C3  IDS d 302     -29.231  54.429  10.177  0.00  0.00     0.094 C 
ATOM     74  C4  IDS d 302     -28.213  54.710  11.265  0.00  0.00     0.103 C 
ATOM     75  O3  IDS d 302     -30.311  55.305  10.369  0.00  0.00    -0.390 OA
ATOM     76  O61 IDS d 302     -27.622  53.821  14.604  0.00  0.00    -0.646 OA
ATOM     77  C6  IDS d 302     -27.978  54.667  13.785  0.00  0.00     0.206 C 
ATOM     78  O2  IDS d 302     -28.786  52.182   9.744  0.00  0.00    -0.244 OA
ATOM     79  H   IDS d 302     -30.669  52.966   9.656  0.00  0.00     0.097 H 
ATOM     80  H   IDS d 302     -29.729  54.815  12.693  0.00  0.00     0.104 H 
ATOM     81  H   IDS d 302     -30.207  51.472  11.629  0.00  0.00     0.133 H 
ATOM     82  H   IDS d 302     -28.753  54.565   9.230  0.00  0.00     0.091 H 
ATOM     83  H   IDS d 302     -27.970  55.752  11.271  0.00  0.00     0.092 H 
ATOM     84  H   IDS d 302     -30.709  55.143  11.238  0.00  0.00     0.210 HD
ATOM     85  O5  IDS d 306     -13.753  48.059  12.854  0.00  0.00    -0.340 OA
ATOM     86  C4  IDS d 306     -12.289  49.967  12.590  0.00  0.00     0.097 C 
ATOM     87  C3  IDS d 306     -13.133  50.413  11.340  0.00  0.00     0.094 C 
ATOM     88  C1  IDS d 306     -14.808  48.575  12.077  0.00  0.00     0.161 C 
ATOM     89  S   IDS d 306     -13.241  49.062   8.586  0.00  0.00     0.252 S 
ATOM     90  O3S IDS d 306     -13.510  47.964   7.681  0.00  0.00    -0.572 OA
ATOM     91  C6  IDS d 306     -12.308  48.458  14.730  0.00  0.00     0.206 C 
ATOM     92  O61 IDS d 306     -12.713  47.438  15.279  0.00  0.00    -0.646 OA
ATOM     93  O2  IDS d 306     -13.705  48.583   9.979  0.00  0.00    -0.244 OA
ATOM     94  C2  IDS d 306     -14.249  49.413  10.948  0.00  0.00     0.134 C 
ATOM     95  O62 IDS d 306     -11.284  48.981  15.155  0.00  0.00    -0.646 OA
ATOM     96  O3  IDS d 306     -13.757  51.668  11.573  0.00  0.00    -0.390 OA
ATOM     97  O2S IDS d 306     -11.828  49.365   8.708  0.00  0.00    -0.572 OA
ATOM     98  O4  IDS d 306     -11.186  49.215  12.111  0.00  0.00    -0.390 OA
ATOM     99  C5  IDS d 306     -13.087  49.069  13.563  0.00  0.00     0.152 C 
ATOM    100  O1S IDS d 306     -14.048  50.246   8.342  0.00  0.00    -0.572 OA
ATOM    101  H   IDS d 306     -11.998  50.847  13.125  0.00  0.00     0.091 H 
ATOM    102  H   IDS d 306     -12.425  50.464  10.539  0.00  0.00     0.091 H 
ATOM    103  H   IDS d 306     -15.368  47.748  11.693  0.00  0.00     0.133 H 
ATOM    104  H   IDS d 306     -15.087  49.985  10.609  0.00  0.00     0.097 H 
ATOM    105  H   IDS d 306     -14.389  51.583  12.304  0.00  0.00     0.210 HD
ATOM    106  H   IDS d 306     -11.509  48.433  11.637  0.00  0.00     0.210 HD
ATOM    107  H   IDS d 306     -13.776  49.742  14.030  0.00  0.00     0.104 H 
ATOM    108  O2S SGN d 301     -31.709  53.227  18.789  0.00  0.00    -0.296 OA
ATOM    109  C3  SGN d 301     -32.136  53.429  14.259  0.00  0.00     0.083 C 
ATOM    110  O6S SGN d 301     -34.017  47.777  11.210  0.00  0.00    -0.572 OA
ATOM    111  O6  SGN d 301     -32.866  49.741  11.989  0.00  0.00    -0.254 OA
ATOM    112  C5  SGN d 301     -33.393  51.975  12.670  0.00  0.00     0.091 C 
ATOM    113  O5  SGN d 301     -34.094  51.408  13.779  0.00  0.00    -0.350 OA
ATOM    114  O5S SGN d 301     -31.661  47.654  11.749  0.00  0.00    -0.572 OA
ATOM    115  C6  SGN d 301     -33.463  50.937  11.552  0.00  0.00     0.067 C 
ATOM    116  O1S SGN d 301     -32.567  51.237  17.767  0.00  0.00    -0.296 OA
ATOM    117  O3  SGN d 301     -30.877  53.868  14.695  0.00  0.00    -0.391 OA
ATOM    118  O3S SGN d 301     -34.078  52.808  18.744  0.00  0.00    -0.296 OA
ATOM    119  C1  SGN d 301     -34.212  52.283  14.887  0.00  0.00     0.147 C 
ATOM    120  N   SGN d 301     -32.938  53.448  16.639  0.00  0.00    -0.210 NA
ATOM    121  O1  SGN d 301     -34.934  53.478  14.503  0.00  0.00    -0.369 OA
ATOM    122  O4S SGN d 301     -32.394  48.855   9.795  0.00  0.00    -0.572 OA
ATOM    123  C2  SGN d 301     -32.833  52.674  15.394  0.00  0.00     0.081 C 
ATOM    124  S1  SGN d 301     -32.811  52.631  18.076  0.00  0.00     0.156 S 
ATOM    125  C4  SGN d 301     -31.964  52.431  13.083  0.00  0.00     0.095 C 
ATOM    126  S2  SGN d 301     -32.725  48.424  11.139  0.00  0.00     0.251 S 
ATOM    127  O4  SGN d 301     -31.350  53.073  11.987  0.00  0.00    -0.348 OA
ATOM    128  H   SGN d 301     -31.595  52.779  19.642  0.00  0.00     0.231 HD
ATOM    129  H   SGN d 301     -32.709  54.281  13.955  0.00  0.00     0.089 H 
ATOM    130  H   SGN d 301     -33.835  52.882  12.313  0.00  0.00     0.090 H 
ATOM    131  H   SGN d 301     -34.487  50.755  11.298  0.00  0.00     0.080 H 
ATOM    132  H   SGN d 301     -32.944  51.303  10.690  0.00  0.00     0.080 H 
ATOM    133  H   SGN d 301     -32.488  50.732  18.591  0.00  0.00     0.231 HD
ATOM    134  H   SGN d 301     -30.348  53.104  14.973  0.00  0.00     0.210 HD
ATOM    135  H   SGN d 301     -34.060  52.347  19.597  0.00  0.00     0.231 HD
ATOM    136  H   SGN d 301     -34.746  51.778  15.664  0.00  0.00     0.131 H 
ATOM    137  H   SGN d 301     -33.847  53.912  16.634  0.00  0.00     0.140 HD
ATOM    138  H   SGN d 301     -34.450  53.937  13.799  0.00  0.00     0.212 HD
ATOM    139  H   SGN d 301     -32.244  51.818  15.649  0.00  0.00     0.076 H 
ATOM    140  H   SGN d 301     -31.353  51.604  13.375  0.00  0.00     0.091 H 
ATOM    141  S   IDS d 304     -21.847  52.320  17.177  0.00  0.00     0.252 S 
ATOM    142  O62 IDS d 304     -20.189  50.103  10.495  0.00  0.00    -0.646 OA
ATOM    143  O1S IDS d 304     -23.077  52.978  16.924  0.00  0.00    -0.572 OA
ATOM    144  O2  IDS d 304     -21.656  51.321  16.031  0.00  0.00    -0.244 OA
ATOM    145  O3  IDS d 304     -23.422  49.087  13.877  0.00  0.00    -0.390 OA
ATOM    146  C5  IDS d 304     -21.262  50.770  12.501  0.00  0.00     0.152 C 
ATOM    147  O5  IDS d 304     -21.331  51.981  13.165  0.00  0.00    -0.340 OA
ATOM    148  O3S IDS d 304     -20.737  53.175  17.073  0.00  0.00    -0.572 OA
ATOM    149  O4  IDS d 304     -19.953  49.736  14.226  0.00  0.00    -0.348 OA
ATOM    150  C3  IDS d 304     -22.278  49.614  14.508  0.00  0.00     0.094 C 
ATOM    151  C2  IDS d 304     -22.580  51.039  15.018  0.00  0.00     0.134 C 
ATOM    152  C1  IDS d 304     -22.494  52.139  13.959  0.00  0.00     0.161 C 
ATOM    153  O2S IDS d 304     -21.862  51.581  18.397  0.00  0.00    -0.572 OA
ATOM    154  O61 IDS d 304     -19.245  51.587  11.520  0.00  0.00    -0.646 OA
ATOM    155  C4  IDS d 304     -21.139  49.619  13.509  0.00  0.00     0.103 C 
ATOM    156  C6  IDS d 304     -20.173  50.827  11.441  0.00  0.00     0.206 C 
ATOM    157  H   IDS d 304     -24.162  49.077  14.504  0.00  0.00     0.210 HD
ATOM    158  H   IDS d 304     -22.167  50.570  11.967  0.00  0.00     0.104 H 
ATOM    159  H   IDS d 304     -22.001  49.015  15.351  0.00  0.00     0.091 H 
ATOM    160  H   IDS d 304     -23.596  51.041  15.351  0.00  0.00     0.097 H 
ATOM    161  H   IDS d 304     -22.417  53.090  14.443  0.00  0.00     0.133 H 
ATOM    162  H   IDS d 304     -21.162  48.711  12.943  0.00  0.00     0.092 H 
ENDROOT
TORSDOF 51
ENDMDL
MODEL 29
REMARK VINA RESULT:      -5.9      2.252      2.743
REMARK  0 active torsions:
REMARK  status: ('A' for Active; 'I' for Inactive)
REMARK       I    between atoms: N_2  and  C2_29 
REMARK       I    between atoms: N_2  and  S1_49 
REMARK       I    between atoms: S_3  and  O2_103 
REMARK       I    between atoms: C5_6  and  C6_92 
REMARK       I    between atoms: C4_8  and  O4_100 
REMARK       I    between atoms: C2_9  and  O2_103 
REMARK       I    between atoms: O1S_10  and  S1_36 
REMARK       I    between atoms: O2S_11  and  S1_93 
REMARK       I    between atoms: C3_12  and  O3_54 
REMARK       I    between atoms: O4_13  and  C4_20 
REMARK       I    between atoms: O4_13  and  C1_26 
REMARK       I    between atoms: O6_15  and  C6_46 
REMARK       I    between atoms: O6_15  and  S2_104 
REMARK       I    between atoms: C5_16  and  C6_46 
REMARK       I    between atoms: C4_17  and  O4_90 
REMARK       I    between atoms: S_18  and  O2_62 
REMARK       I    between atoms: C3_19  and  O3_68 
REMARK       I    between atoms: S2_25  and  O6_53 
REMARK       I    between atoms: O4_27  and  C4_69 
REMARK       I    between atoms: O4_27  and  C1_89 
REMARK       I    between atoms: O3_28  and  C3_37 
REMARK       I    between atoms: C1_30  and  O4_73 
REMARK       I    between atoms: O2S_32  and  S1_49 
REMARK       I    between atoms: S_33  and  O2_48 
REMARK       I    between atoms: C6_34  and  C5_43 
REMARK       I    between atoms: C6_34  and  O6_60 
REMARK       I    between atoms: S1_36  and  N_85 
REMARK       I    between atoms: S1_36  and  O2S_63 
REMARK       I    between atoms: S1_36  and  O3S_74 
REMARK       I    between atoms: C6_40  and  C5_94 
REMARK       I    between atoms: O3S_42  and  S1_49 
REMARK       I    between atoms: C5_44  and  C6_99 
REMARK       I    between atoms: C1_47  and  O4_106 
REMARK       I    between atoms: O2_48  and  C2_57 
REMARK       I    between atoms: S1_49  and  O1S_55 
REMARK       I    between atoms: O1S_51  and  S1_93 
REMARK       I    between atoms: C3_52  and  O3_87 
REMARK       I    between atoms: O6_53  and  C6_92 
REMARK       I    between atoms: O3S_56  and  S1_93 
REMARK       I    between atoms: O3_58  and  C3_98 
REMARK       I    between atoms: C1_59  and  O1_81 
REMARK       I    between atoms: O6_60  and  S2_65 
REMARK       I    between atoms: O2_62  and  C2_77 
REMARK       I    between atoms: O3_64  and  C3_75 
REMARK       I    between atoms: C5_67  and  C6_101 
REMARK       I    between atoms: O4_73  and  C4_96 
REMARK       I    between atoms: C2_76  and  N_85 
REMARK       I    between atoms: N_78  and  C2_91 
REMARK       I    between atoms: N_78  and  S1_93 
REMARK       I    between atoms: C1_80  and  O4_100 
REMARK       I    between atoms: C4_102  and  O4_106 
ROOT
ATOM      1  O5S SGN d 305     -15.264  49.085  13.397  0.00  0.00    -0.572 OA
ATOM      2  C5  SGN d 305     -17.295  53.177  13.650  0.00  0.00     0.091 C 
ATOM      3  O1S SGN d 305     -18.360  52.528  18.584  0.00  0.00    -0.296 OA
ATOM      4  O4  SGN d 305     -15.406  54.538  13.669  0.00  0.00    -0.348 OA
ATOM      5  C4  SGN d 305     -16.262  53.842  14.500  0.00  0.00     0.095 C 
ATOM      6  O5  SGN d 305     -18.100  52.385  14.450  0.00  0.00    -0.349 OA
ATOM      7  S2  SGN d 305     -15.371  50.151  12.428  0.00  0.00     0.251 S 
ATOM      8  O3  SGN d 305     -16.169  55.542  16.164  0.00  0.00    -0.391 OA
ATOM      9  C1  SGN d 305     -18.821  53.117  15.420  0.00  0.00     0.150 C 
ATOM     10  S1  SGN d 305     -18.965  53.818  18.618  0.00  0.00     0.156 S 
ATOM     11  C3  SGN d 305     -17.034  54.789  15.383  0.00  0.00     0.083 C 
ATOM     12  O6  SGN d 305     -15.944  51.362  13.176  0.00  0.00    -0.254 OA
ATOM     13  O2S SGN d 305     -18.438  54.611  19.650  0.00  0.00    -0.296 OA
ATOM     14  O4S SGN d 305     -14.098  50.613  11.932  0.00  0.00    -0.572 OA
ATOM     15  O3S SGN d 305     -20.376  53.722  18.621  0.00  0.00    -0.296 OA
ATOM     16  C2  SGN d 305     -17.851  53.908  16.269  0.00  0.00     0.081 C 
ATOM     17  N   SGN d 305     -18.568  54.633  17.275  0.00  0.00    -0.210 NA
ATOM     18  C6  SGN d 305     -16.756  52.302  12.577  0.00  0.00     0.067 C 
ATOM     19  O6S SGN d 305     -16.348  49.854  11.386  0.00  0.00    -0.572 OA
ATOM     20  H   SGN d 305     -17.824  53.977  13.176  0.00  0.00     0.090 H 
ATOM     21  H   SGN d 305     -17.395  52.623  18.582  0.00  0.00     0.231 HD
ATOM     22  H   SGN d 305     -15.680  53.158  15.082  0.00  0.00     0.091 H 
ATOM     23  H   SGN d 305     -15.635  56.117  15.593  0.00  0.00     0.210 HD
ATOM     24  H   SGN d 305     -19.362  52.430  16.037  0.00  0.00     0.131 H 
ATOM     25  H   SGN d 305     -17.627  55.470  14.808  0.00  0.00     0.089 H 
ATOM     26  H   SGN d 305     -17.471  54.628  19.582  0.00  0.00     0.231 HD
ATOM     27  H   SGN d 305     -20.663  53.161  17.884  0.00  0.00     0.231 HD
ATOM     28  H   SGN d 305     -17.175  53.257  16.782  0.00  0.00     0.076 H 
ATOM     29  H   SGN d 305     -17.991  55.426  17.555  0.00  0.00     0.140 HD
ATOM     30  H   SGN d 305     -16.188  52.885  11.881  0.00  0.00     0.080 H 
ATOM     31  H   SGN d 305     -17.552  51.827  12.043  0.00  0.00     0.080 H 
ATOM     32  N   SGN d 303     -25.344  53.899   8.464  0.00  0.00    -0.210 NA
ATOM     33  C4  SGN d 303     -24.268  55.273  11.841  0.00  0.00     0.095 C 
ATOM     34  C2  SGN d 303     -25.125  54.890   9.504  0.00  0.00     0.081 C 
ATOM     35  O5S SGN d 303     -23.243  59.761  12.309  0.00  0.00    -0.572 OA
ATOM     36  O2S SGN d 303     -24.523  54.731   6.300  0.00  0.00    -0.296 OA
ATOM     37  C6  SGN d 303     -25.577  57.010  13.151  0.00  0.00     0.067 C 
ATOM     38  O3S SGN d 303     -26.379  53.223   6.375  0.00  0.00    -0.296 OA
ATOM     39  C5  SGN d 303     -25.633  55.889  12.129  0.00  0.00     0.091 C 
ATOM     40  S1  SGN d 303     -25.749  54.373   6.951  0.00  0.00     0.156 S 
ATOM     41  O6S SGN d 303     -25.639  59.928  12.253  0.00  0.00    -0.572 OA
ATOM     42  O1S SGN d 303     -26.632  55.500   7.057  0.00  0.00    -0.296 OA
ATOM     43  O3  SGN d 303     -23.157  53.804  10.317  0.00  0.00    -0.391 OA
ATOM     44  O6  SGN d 303     -24.573  57.873  12.715  0.00  0.00    -0.254 OA
ATOM     45  S2  SGN d 303     -24.492  59.396  12.900  0.00  0.00     0.251 S 
ATOM     46  O5  SGN d 303     -26.203  56.441  10.948  0.00  0.00    -0.349 OA
ATOM     47  C1  SGN d 303     -26.445  55.498   9.928  0.00  0.00     0.150 C 
ATOM     48  O4S SGN d 303     -24.524  59.651  14.300  0.00  0.00    -0.572 OA
ATOM     49  C3  SGN d 303     -24.436  54.257  10.706  0.00  0.00     0.083 C 
ATOM     50  O4  SGN d 303     -23.839  54.604  12.994  0.00  0.00    -0.348 OA
ATOM     51  H   SGN d 303     -26.095  53.290   8.792  0.00  0.00     0.140 HD
ATOM     52  H   SGN d 303     -23.557  56.024  11.564  0.00  0.00     0.091 H 
ATOM     53  H   SGN d 303     -24.493  55.661   9.113  0.00  0.00     0.076 H 
ATOM     54  H   SGN d 303     -23.947  53.953   6.243  0.00  0.00     0.231 HD
ATOM     55  H   SGN d 303     -25.339  56.621  14.119  0.00  0.00     0.080 H 
ATOM     56  H   SGN d 303     -26.518  57.513  13.236  0.00  0.00     0.080 H 
ATOM     57  H   SGN d 303     -25.741  52.494   6.327  0.00  0.00     0.231 HD
ATOM     58  H   SGN d 303     -26.224  55.084  12.514  0.00  0.00     0.090 H 
ATOM     59  H   SGN d 303     -26.156  56.247   7.451  0.00  0.00     0.231 HD
ATOM     60  H   SGN d 303     -22.712  53.399  11.078  0.00  0.00     0.210 HD
ATOM     61  H   SGN d 303     -26.905  56.007   9.108  0.00  0.00     0.131 H 
ATOM     62  H   SGN d 303     -25.040  53.444  11.052  0.00  0.00     0.089 H 
ATOM     63  S   IDS d 302     -28.041  50.607   8.984  0.00  0.00     0.252 S 
ATOM     64  O2S IDS d 302     -26.622  50.496   8.976  0.00  0.00    -0.572 OA
ATOM     65  O62 IDS d 302     -28.805  56.928  12.400  0.00  0.00    -0.646 OA
ATOM     66  C2  IDS d 302     -29.576  52.485   9.907  0.00  0.00     0.134 C 
ATOM     67  O5  IDS d 302     -29.156  53.367  12.090  0.00  0.00    -0.340 OA
ATOM     68  O1S IDS d 302     -28.614  50.794   7.693  0.00  0.00    -0.572 OA
ATOM     69  O4  IDS d 302     -27.345  54.483  10.325  0.00  0.00    -0.348 OA
ATOM     70  O3S IDS d 302     -28.662  49.560   9.712  0.00  0.00    -0.572 OA
ATOM     71  C5  IDS d 302     -29.300  54.704  11.642  0.00  0.00     0.152 C 
ATOM     72  C1  IDS d 302     -29.931  52.429  11.363  0.00  0.00     0.161 C 
ATOM     73  C3  IDS d 302     -29.475  53.905   9.353  0.00  0.00     0.094 C 
ATOM     74  C4  IDS d 302     -28.709  54.836  10.274  0.00  0.00     0.103 C 
ATOM     75  O3  IDS d 302     -30.776  54.412   9.220  0.00  0.00    -0.390 OA
ATOM     76  O61 IDS d 302     -28.264  55.348  13.713  0.00  0.00    -0.646 OA
ATOM     77  C6  IDS d 302     -28.756  55.716  12.647  0.00  0.00     0.206 C 
ATOM     78  O2  IDS d 302     -28.352  51.899   9.744  0.00  0.00    -0.244 OA
ATOM     79  H   IDS d 302     -30.359  51.982   9.379  0.00  0.00     0.097 H 
ATOM     80  H   IDS d 302     -30.341  54.938  11.569  0.00  0.00     0.104 H 
ATOM     81  H   IDS d 302     -29.708  51.459  11.754  0.00  0.00     0.133 H 
ATOM     82  H   IDS d 302     -28.953  53.856   8.420  0.00  0.00     0.091 H 
ATOM     83  H   IDS d 302     -28.781  55.840   9.911  0.00  0.00     0.092 H 
ATOM     84  H   IDS d 302     -31.204  54.437  10.090  0.00  0.00     0.210 HD
ATOM     85  O5  IDS d 306     -13.216  53.943  14.148  0.00  0.00    -0.340 OA
ATOM     86  C4  IDS d 306     -12.348  56.005  13.230  0.00  0.00     0.097 C 
ATOM     87  C3  IDS d 306     -13.139  55.720  11.901  0.00  0.00     0.094 C 
ATOM     88  C1  IDS d 306     -14.281  53.813  13.236  0.00  0.00     0.161 C 
ATOM     89  S   IDS d 306     -12.542  53.562   9.802  0.00  0.00     0.252 S 
ATOM     90  O3S IDS d 306     -12.379  52.198   9.344  0.00  0.00    -0.572 OA
ATOM     91  C6  IDS d 306     -12.168  55.376  15.765  0.00  0.00     0.206 C 
ATOM     92  O61 IDS d 306     -12.319  54.526  16.639  0.00  0.00    -0.646 OA
ATOM     93  O2  IDS d 306     -13.000  53.459  11.274  0.00  0.00    -0.244 OA
ATOM     94  C2  IDS d 306     -13.866  54.354  11.885  0.00  0.00     0.134 C 
ATOM     95  O62 IDS d 306     -11.393  56.300  15.980  0.00  0.00    -0.646 OA
ATOM     96  O3  IDS d 306     -14.121  56.722  11.674  0.00  0.00    -0.390 OA
ATOM     97  O2S IDS d 306     -11.300  54.311   9.813  0.00  0.00    -0.572 OA
ATOM     98  O4  IDS d 306     -11.028  55.519  13.051  0.00  0.00    -0.390 OA
ATOM     99  C5  IDS d 306     -12.955  55.285  14.456  0.00  0.00     0.152 C 
ATOM    100  O1S IDS d 306     -13.625  54.283   9.153  0.00  0.00    -0.572 OA
ATOM    101  H   IDS d 306     -12.385  57.057  13.420  0.00  0.00     0.091 H 
ATOM    102  H   IDS d 306     -12.391  55.717  11.136  0.00  0.00     0.091 H 
ATOM    103  H   IDS d 306     -14.531  52.775  13.168  0.00  0.00     0.133 H 
ATOM    104  H   IDS d 306     -14.790  54.488  11.363  0.00  0.00     0.097 H 
ATOM    105  H   IDS d 306     -14.780  56.695  12.386  0.00  0.00     0.210 HD
ATOM    106  H   IDS d 306     -11.055  54.563  12.883  0.00  0.00     0.210 HD
ATOM    107  H   IDS d 306     -13.857  55.826  14.653  0.00  0.00     0.104 H 
ATOM    108  O2S SGN d 301     -32.446  54.956  17.828  0.00  0.00    -0.296 OA
ATOM    109  C3  SGN d 301     -32.404  53.483  13.518  0.00  0.00     0.083 C 
ATOM    110  O6S SGN d 301     -32.213  46.849  12.660  0.00  0.00    -0.572 OA
ATOM    111  O6  SGN d 301     -31.775  49.215  12.696  0.00  0.00    -0.254 OA
ATOM    112  C5  SGN d 301     -32.999  51.267  12.542  0.00  0.00     0.091 C 
ATOM    113  O5  SGN d 301     -33.626  50.917  13.779  0.00  0.00    -0.350 OA
ATOM    114  O5S SGN d 301     -29.998  47.652  13.213  0.00  0.00    -0.572 OA
ATOM    115  C6  SGN d 301     -32.640  49.947  11.863  0.00  0.00     0.067 C 
ATOM    116  O1S SGN d 301     -32.571  52.576  17.573  0.00  0.00    -0.296 OA
ATOM    117  O3  SGN d 301     -31.382  54.410  13.773  0.00  0.00    -0.391 OA
ATOM    118  O3S SGN d 301     -34.571  53.832  17.927  0.00  0.00    -0.296 OA
ATOM    119  C1  SGN d 301     -34.115  52.030  14.505  0.00  0.00     0.147 C 
ATOM    120  N   SGN d 301     -33.438  54.050  15.735  0.00  0.00    -0.210 NA
ATOM    121  O1  SGN d 301     -35.105  52.740  13.722  0.00  0.00    -0.369 OA
ATOM    122  O4S SGN d 301     -30.824  47.837  10.959  0.00  0.00    -0.572 OA
ATOM    123  C2  SGN d 301     -32.974  52.976  14.844  0.00  0.00     0.081 C 
ATOM    124  S1  SGN d 301     -33.241  53.844  17.368  0.00  0.00     0.156 S 
ATOM    125  C4  SGN d 301     -31.819  52.255  12.771  0.00  0.00     0.095 C 
ATOM    126  S2  SGN d 301     -31.164  47.802  12.367  0.00  0.00     0.251 S 
ATOM    127  O4  SGN d 301     -31.299  52.648  11.521  0.00  0.00    -0.348 OA
ATOM    128  H   SGN d 301     -32.304  54.878  18.784  0.00  0.00     0.231 HD
ATOM    129  H   SGN d 301     -33.160  53.961  12.931  0.00  0.00     0.089 H 
ATOM    130  H   SGN d 301     -33.641  51.816  11.886  0.00  0.00     0.090 H 
ATOM    131  H   SGN d 301     -33.532  49.381  11.688  0.00  0.00     0.080 H 
ATOM    132  H   SGN d 301     -32.156  50.144  10.929  0.00  0.00     0.080 H 
ATOM    133  H   SGN d 301     -32.442  52.428  18.523  0.00  0.00     0.231 HD
ATOM    134  H   SGN d 301     -30.689  53.988  14.305  0.00  0.00     0.210 HD
ATOM    135  H   SGN d 301     -34.517  53.714  18.889  0.00  0.00     0.231 HD
ATOM    136  H   SGN d 301     -34.564  51.675  15.409  0.00  0.00     0.131 H 
ATOM    137  H   SGN d 301     -34.435  54.178  15.564  0.00  0.00     0.140 HD
ATOM    138  H   SGN d 301     -34.698  53.062  12.902  0.00  0.00     0.212 HD
ATOM    139  H   SGN d 301     -32.195  52.483  15.387  0.00  0.00     0.076 H 
ATOM    140  H   SGN d 301     -31.031  51.806  13.339  0.00  0.00     0.091 H 
ATOM    141  S   IDS d 304     -22.629  56.669  16.665  0.00  0.00     0.252 S 
ATOM    142  O62 IDS d 304     -19.662  52.971  11.203  0.00  0.00    -0.646 OA
ATOM    143  O1S IDS d 304     -23.959  56.788  16.192  0.00  0.00    -0.572 OA
ATOM    144  O2  IDS d 304     -22.029  55.456  15.946  0.00  0.00    -0.244 OA
ATOM    145  O3  IDS d 304     -22.820  52.198  14.717  0.00  0.00    -0.390 OA
ATOM    146  C5  IDS d 304     -21.099  53.904  12.840  0.00  0.00     0.152 C 
ATOM    147  O5  IDS d 304     -21.590  55.183  13.033  0.00  0.00    -0.340 OA
ATOM    148  O3S IDS d 304     -21.809  57.739  16.268  0.00  0.00    -0.572 OA
ATOM    149  O4  IDS d 304     -19.749  53.969  14.823  0.00  0.00    -0.348 OA
ATOM    150  C3  IDS d 304     -21.955  53.234  15.124  0.00  0.00     0.094 C 
ATOM    151  C2  IDS d 304     -22.712  54.578  15.096  0.00  0.00     0.134 C 
ATOM    152  C1  IDS d 304     -22.830  55.228  13.717  0.00  0.00     0.161 C 
ATOM    153  O2S IDS d 304     -22.565  56.417  18.068  0.00  0.00    -0.572 OA
ATOM    154  O61 IDS d 304     -19.309  54.928  11.639  0.00  0.00    -0.646 OA
ATOM    155  C4  IDS d 304     -20.762  53.256  14.191  0.00  0.00     0.103 C 
ATOM    156  C6  IDS d 304     -19.963  53.938  11.832  0.00  0.00     0.206 C 
ATOM    157  H   IDS d 304     -23.590  52.170  15.306  0.00  0.00     0.210 HD
ATOM    158  H   IDS d 304     -21.842  53.266  12.409  0.00  0.00     0.104 H 
ATOM    159  H   IDS d 304     -21.613  53.069  16.125  0.00  0.00     0.091 H 
ATOM    160  H   IDS d 304     -23.716  54.377  15.405  0.00  0.00     0.097 H 
ATOM    161  H   IDS d 304     -23.087  56.260  13.833  0.00  0.00     0.133 H 
ATOM    162  H   IDS d 304     -20.458  52.252  13.982  0.00  0.00     0.092 H 
ENDROOT
TORSDOF 51
ENDMDL
