REMARK  0 active torsions:
REMARK  status: ('A' for Active; 'I' for Inactive)
REMARK       I    between atoms: N_2  and  C2_29 
REMARK       I    between atoms: N_2  and  S1_49 
REMARK       I    between atoms: S_3  and  O2_103 
REMARK       I    between atoms: C5_6  and  C6_92 
REMARK       I    between atoms: C4_8  and  O4_100 
REMARK       I    between atoms: C2_9  and  O2_103 
REMARK       I    between atoms: O1S_10  and  S1_36 
REMARK       I    between atoms: O2S_11  and  S1_93 
REMARK       I    between atoms: C3_12  and  O3_54 
REMARK       I    between atoms: O4_13  and  C4_20 
REMARK       I    between atoms: O4_13  and  C1_26 
REMARK       I    between atoms: O6_15  and  C6_46 
REMARK       I    between atoms: O6_15  and  S2_104 
REMARK       I    between atoms: C5_16  and  C6_46 
REMARK       I    between atoms: C4_17  and  O4_90 
REMARK       I    between atoms: S_18  and  O2_62 
REMARK       I    between atoms: C3_19  and  O3_68 
REMARK       I    between atoms: S2_25  and  O6_53 
REMARK       I    between atoms: O4_27  and  C4_69 
REMARK       I    between atoms: O4_27  and  C1_89 
REMARK       I    between atoms: O3_28  and  C3_37 
REMARK       I    between atoms: C1_30  and  O4_73 
REMARK       I    between atoms: O2S_32  and  S1_49 
REMARK       I    between atoms: S_33  and  O2_48 
REMARK       I    between atoms: C6_34  and  C5_43 
REMARK       I    between atoms: C6_34  and  O6_60 
REMARK       I    between atoms: S1_36  and  N_85 
REMARK       I    between atoms: S1_36  and  O2S_63 
REMARK       I    between atoms: S1_36  and  O3S_74 
REMARK       I    between atoms: C6_40  and  C5_94 
REMARK       I    between atoms: O3S_42  and  S1_49 
REMARK       I    between atoms: C5_44  and  C6_99 
REMARK       I    between atoms: C1_47  and  O4_106 
REMARK       I    between atoms: O2_48  and  C2_57 
REMARK       I    between atoms: S1_49  and  O1S_55 
REMARK       I    between atoms: O1S_51  and  S1_93 
REMARK       I    between atoms: C3_52  and  O3_87 
REMARK       I    between atoms: O6_53  and  C6_92 
REMARK       I    between atoms: O3S_56  and  S1_93 
REMARK       I    between atoms: O3_58  and  C3_98 
REMARK       I    between atoms: C1_59  and  O1_81 
REMARK       I    between atoms: O6_60  and  S2_65 
REMARK       I    between atoms: O2_62  and  C2_77 
REMARK       I    between atoms: O3_64  and  C3_75 
REMARK       I    between atoms: C5_67  and  C6_101 
REMARK       I    between atoms: O4_73  and  C4_96 
REMARK       I    between atoms: C2_76  and  N_85 
REMARK       I    between atoms: N_78  and  C2_91 
REMARK       I    between atoms: N_78  and  S1_93 
REMARK       I    between atoms: C1_80  and  O4_100 
REMARK       I    between atoms: C4_102  and  O4_106 
ROOT
ATOM      1  O5S SGN d 305     -14.312  53.176  13.490  0.00  0.00    -0.572 OA
ATOM      2  C5  SGN d 305     -17.689  56.188  14.173  0.00  0.00     0.091 C 
ATOM      3  O1S SGN d 305     -18.480  54.480  18.901  0.00  0.00    -0.296 OA
ATOM      4  O4  SGN d 305     -16.421  58.115  14.488  0.00  0.00    -0.348 OA
ATOM      5  C4  SGN d 305     -16.972  57.045  15.165  0.00  0.00     0.095 C 
ATOM      6  O5  SGN d 305     -18.158  55.052  14.809  0.00  0.00    -0.349 OA
ATOM      7  S2  SGN d 305     -14.791  54.264  12.670  0.00  0.00     0.251 S 
ATOM      8  O3  SGN d 305     -17.512  58.400  17.046  0.00  0.00    -0.391 OA
ATOM      9  C1  SGN d 305     -19.101  55.326  15.824  0.00  0.00     0.150 C 
ATOM     10  S1  SGN d 305     -19.511  55.449  19.073  0.00  0.00     0.156 S 
ATOM     11  C3  SGN d 305     -18.041  57.512  16.120  0.00  0.00     0.083 C 
ATOM     12  O6  SGN d 305     -15.769  55.066  13.539  0.00  0.00    -0.254 OA
ATOM     13  O2S SGN d 305     -19.314  56.216  20.232  0.00  0.00    -0.296 OA
ATOM     14  O4S SGN d 305     -13.769  55.218  12.318  0.00  0.00    -0.572 OA
ATOM     15  O3S SGN d 305     -20.791  54.856  18.979  0.00  0.00    -0.296 OA
ATOM     16  C2  SGN d 305     -18.489  56.277  16.828  0.00  0.00     0.081 C 
ATOM     17  N   SGN d 305     -19.427  56.541  17.879  0.00  0.00    -0.210 NA
ATOM     18  C6  SGN d 305     -16.862  55.732  13.025  0.00  0.00     0.067 C 
ATOM     19  O6S SGN d 305     -15.587  53.795  11.541  0.00  0.00    -0.572 OA
ATOM     20  H   SGN d 305     -18.468  56.807  13.780  0.00  0.00     0.090 H 
ATOM     21  H   SGN d 305     -17.615  54.913  18.970  0.00  0.00     0.231 HD
ATOM     22  H   SGN d 305     -16.186  56.536  15.683  0.00  0.00     0.091 H 
ATOM     23  H   SGN d 305     -17.219  59.205  16.591  0.00  0.00     0.210 HD
ATOM     24  H   SGN d 305     -19.361  54.408  16.309  0.00  0.00     0.131 H 
ATOM     25  H   SGN d 305     -18.836  58.013  15.608  0.00  0.00     0.089 H 
ATOM     26  H   SGN d 305     -18.418  56.588  20.225  0.00  0.00     0.231 HD
ATOM     27  H   SGN d 305     -20.851  54.345  18.157  0.00  0.00     0.231 HD
ATOM     28  H   SGN d 305     -17.627  55.842  17.288  0.00  0.00     0.076 H 
ATOM     29  H   SGN d 305     -19.178  57.437  18.297  0.00  0.00     0.140 HD
ATOM     30  H   SGN d 305     -16.539  56.575  12.450  0.00  0.00     0.080 H 
ATOM     31  H   SGN d 305     -17.428  55.088  12.385  0.00  0.00     0.080 H 
ATOM     32  N   SGN d 303     -25.418  54.745   8.661  0.00  0.00    -0.210 NA
ATOM     33  C4  SGN d 303     -24.935  55.898  12.250  0.00  0.00     0.095 C 
ATOM     34  C2  SGN d 303     -25.579  55.584   9.836  0.00  0.00     0.081 C 
ATOM     35  O5S SGN d 303     -25.607  60.334  13.381  0.00  0.00    -0.572 OA
ATOM     36  O2S SGN d 303     -24.939  56.125   6.682  0.00  0.00    -0.296 OA
ATOM     37  C6  SGN d 303     -26.793  56.839  13.703  0.00  0.00     0.067 C 
ATOM     38  O3S SGN d 303     -26.123  54.060   6.441  0.00  0.00    -0.296 OA
ATOM     39  C5  SGN d 303     -26.432  55.936  12.537  0.00  0.00     0.091 C 
ATOM     40  S1  SGN d 303     -25.956  55.261   7.204  0.00  0.00     0.156 S 
ATOM     41  O6S SGN d 303     -27.901  59.641  13.205  0.00  0.00    -0.572 OA
ATOM     42  O1S SGN d 303     -27.188  55.969   7.408  0.00  0.00    -0.296 OA
ATOM     43  O3  SGN d 303     -23.357  55.165  10.611  0.00  0.00    -0.391 OA
ATOM     44  O6  SGN d 303     -26.166  58.058  13.448  0.00  0.00    -0.254 OA
ATOM     45  S2  SGN d 303     -26.643  59.464  13.842  0.00  0.00     0.251 S 
ATOM     46  O5  SGN d 303     -27.155  56.416  11.410  0.00  0.00    -0.349 OA
ATOM     47  C1  SGN d 303     -27.032  55.610  10.259  0.00  0.00     0.150 C 
ATOM     48  O4S SGN d 303     -26.775  59.481  15.259  0.00  0.00    -0.572 OA
ATOM     49  C3  SGN d 303     -24.716  55.068  10.980  0.00  0.00     0.083 C 
ATOM     50  O4  SGN d 303     -24.301  55.264  13.326  0.00  0.00    -0.348 OA
ATOM     51  H   SGN d 303     -25.899  53.867   8.858  0.00  0.00     0.140 HD
ATOM     52  H   SGN d 303     -24.542  56.885  12.120  0.00  0.00     0.091 H 
ATOM     53  H   SGN d 303     -25.267  56.578   9.591  0.00  0.00     0.076 H 
ATOM     54  H   SGN d 303     -24.120  55.621   6.555  0.00  0.00     0.231 HD
ATOM     55  H   SGN d 303     -26.437  56.422  14.622  0.00  0.00     0.080 H 
ATOM     56  H   SGN d 303     -27.852  56.954  13.799  0.00  0.00     0.080 H 
ATOM     57  H   SGN d 303     -25.264  53.623   6.333  0.00  0.00     0.231 HD
ATOM     58  H   SGN d 303     -26.694  54.926  12.774  0.00  0.00     0.090 H 
ATOM     59  H   SGN d 303     -27.018  56.770   7.928  0.00  0.00     0.231 HD
ATOM     60  H   SGN d 303     -22.801  54.838  11.335  0.00  0.00     0.210 HD
ATOM     61  H   SGN d 303     -27.640  56.037   9.489  0.00  0.00     0.131 H 
ATOM     62  H   SGN d 303     -24.987  54.052  11.177  0.00  0.00     0.089 H 
ATOM     63  S   IDS d 302     -26.743  50.669   8.569  0.00  0.00     0.252 S 
ATOM     64  O2S IDS d 302     -25.380  51.074   8.630  0.00  0.00    -0.572 OA
ATOM     65  O62 IDS d 302     -29.767  55.722  12.756  0.00  0.00    -0.646 OA
ATOM     66  C2  IDS d 302     -28.860  51.716   9.644  0.00  0.00     0.134 C 
ATOM     67  O5  IDS d 302     -28.803  52.357  11.947  0.00  0.00    -0.340 OA
ATOM     68  O1S IDS d 302     -27.336  50.827   7.283  0.00  0.00    -0.572 OA
ATOM     69  O4  IDS d 302     -27.507  54.294  10.460  0.00  0.00    -0.348 OA
ATOM     70  O3S IDS d 302     -26.948  49.374   9.110  0.00  0.00    -0.572 OA
ATOM     71  C5  IDS d 302     -29.418  53.605  11.676  0.00  0.00     0.152 C 
ATOM     72  C1  IDS d 302     -29.181  51.323  11.055  0.00  0.00     0.161 C 
ATOM     73  C3  IDS d 302     -29.276  53.144   9.294  0.00  0.00     0.094 C 
ATOM     74  C4  IDS d 302     -28.906  54.140  10.376  0.00  0.00     0.103 C 
ATOM     75  O3  IDS d 302     -30.672  53.167   9.153  0.00  0.00    -0.390 OA
ATOM     76  O61 IDS d 302     -28.700  54.264  13.873  0.00  0.00    -0.646 OA
ATOM     77  C6  IDS d 302     -29.284  54.585  12.839  0.00  0.00     0.206 C 
ATOM     78  O2  IDS d 302     -27.506  51.637   9.476  0.00  0.00    -0.244 OA
ATOM     79  H   IDS d 302     -29.405  51.051   9.007  0.00  0.00     0.097 H 
ATOM     80  H   IDS d 302     -30.473  53.460  11.573  0.00  0.00     0.104 H 
ATOM     81  H   IDS d 302     -28.624  50.450  11.324  0.00  0.00     0.133 H 
ATOM     82  H   IDS d 302     -28.766  53.423   8.396  0.00  0.00     0.091 H 
ATOM     83  H   IDS d 302     -29.334  55.094  10.149  0.00  0.00     0.092 H 
ATOM     84  H   IDS d 302     -31.086  52.908   9.991  0.00  0.00     0.210 HD
ATOM     85  O5  IDS d 306     -14.167  58.277  15.012  0.00  0.00    -0.340 OA
ATOM     86  C4  IDS d 306     -14.098  60.625  14.435  0.00  0.00     0.097 C 
ATOM     87  C3  IDS d 306     -14.723  60.276  13.035  0.00  0.00     0.094 C 
ATOM     88  C1  IDS d 306     -15.107  57.912  14.029  0.00  0.00     0.161 C 
ATOM     89  S   IDS d 306     -13.371  58.808  10.703  0.00  0.00     0.252 S 
ATOM     90  O3S IDS d 306     -12.722  57.676  10.075  0.00  0.00    -0.572 OA
ATOM     91  C6  IDS d 306     -13.720  59.734  16.868  0.00  0.00     0.206 C 
ATOM     92  O61 IDS d 306     -13.559  58.768  17.608  0.00  0.00    -0.646 OA
ATOM     93  O2  IDS d 306     -13.771  58.332  12.117  0.00  0.00    -0.244 OA
ATOM     94  C2  IDS d 306     -14.906  58.758  12.791  0.00  0.00     0.134 C 
ATOM     95  O62 IDS d 306     -13.334  60.832  17.252  0.00  0.00    -0.646 OA
ATOM     96  O3  IDS d 306     -16.000  60.882  12.887  0.00  0.00    -0.390 OA
ATOM     97  O2S IDS d 306     -12.485  59.941  10.889  0.00  0.00    -0.572 OA
ATOM     98  O4  IDS d 306     -12.690  60.674  14.271  0.00  0.00    -0.390 OA
ATOM     99  C5  IDS d 306     -14.412  59.563  15.514  0.00  0.00     0.152 C 
ATOM    100  O1S IDS d 306     -14.637  59.182  10.094  0.00  0.00    -0.572 OA
ATOM    101  H   IDS d 306     -14.515  61.554  14.763  0.00  0.00     0.091 H 
ATOM    102  H   IDS d 306     -14.020  60.653  12.322  0.00  0.00     0.091 H 
ATOM    103  H   IDS d 306     -14.963  56.875  13.807  0.00  0.00     0.133 H 
ATOM    104  H   IDS d 306     -15.813  58.629  12.238  0.00  0.00     0.097 H 
ATOM    105  H   IDS d 306     -16.609  60.517  13.548  0.00  0.00     0.210 HD
ATOM    106  H   IDS d 306     -12.369  59.808  13.974  0.00  0.00     0.210 HD
ATOM    107  H   IDS d 306     -15.450  59.711  15.728  0.00  0.00     0.104 H 
ATOM    108  O2S SGN d 301     -32.484  51.801  17.640  0.00  0.00    -0.296 OA
ATOM    109  C3  SGN d 301     -31.882  51.094  13.181  0.00  0.00     0.083 C 
ATOM    110  O6S SGN d 301     -29.297  45.170  11.447  0.00  0.00    -0.572 OA
ATOM    111  O6  SGN d 301     -29.745  47.503  11.829  0.00  0.00    -0.254 OA
ATOM    112  C5  SGN d 301     -31.628  48.981  11.881  0.00  0.00     0.091 C 
ATOM    113  O5  SGN d 301     -32.094  48.252  13.019  0.00  0.00    -0.350 OA
ATOM    114  O5S SGN d 301     -27.527  46.620  12.235  0.00  0.00    -0.572 OA
ATOM    115  C6  SGN d 301     -30.811  47.992  11.052  0.00  0.00     0.067 C 
ATOM    116  O1S SGN d 301     -31.737  49.599  17.059  0.00  0.00    -0.296 OA
ATOM    117  O3  SGN d 301     -31.267  52.276  13.620  0.00  0.00    -0.391 OA
ATOM    118  O3S SGN d 301     -34.059  49.991  17.460  0.00  0.00    -0.296 OA
ATOM    119  C1  SGN d 301     -32.958  48.997  13.859  0.00  0.00     0.147 C 
ATOM    120  N   SGN d 301     -33.066  50.920  15.389  0.00  0.00    -0.210 NA
ATOM    121  O1  SGN d 301     -34.132  49.414  13.121  0.00  0.00    -0.369 OA
ATOM    122  O4S SGN d 301     -28.348  46.829   9.981  0.00  0.00    -0.572 OA
ATOM    123  C2  SGN d 301     -32.239  50.227  14.390  0.00  0.00     0.081 C 
ATOM    124  S1  SGN d 301     -32.819  50.559  16.988  0.00  0.00     0.156 S 
ATOM    125  C4  SGN d 301     -30.887  50.280  12.311  0.00  0.00     0.095 C 
ATOM    126  S2  SGN d 301     -28.662  46.467  11.349  0.00  0.00     0.251 S 
ATOM    127  O4  SGN d 301     -30.536  51.013  11.159  0.00  0.00    -0.348 OA
ATOM    128  H   SGN d 301     -32.330  51.639  18.584  0.00  0.00     0.231 HD
ATOM    129  H   SGN d 301     -32.756  51.351  12.620  0.00  0.00     0.089 H 
ATOM    130  H   SGN d 301     -32.421  49.355  11.268  0.00  0.00     0.090 H 
ATOM    131  H   SGN d 301     -31.436  47.178  10.749  0.00  0.00     0.080 H 
ATOM    132  H   SGN d 301     -30.425  48.485  10.184  0.00  0.00     0.080 H 
ATOM    133  H   SGN d 301     -31.570  49.368  17.986  0.00  0.00     0.231 HD
ATOM    134  H   SGN d 301     -30.472  52.056  14.130  0.00  0.00     0.210 HD
ATOM    135  H   SGN d 301     -33.972  49.759  18.398  0.00  0.00     0.231 HD
ATOM    136  H   SGN d 301     -33.254  48.376  14.678  0.00  0.00     0.131 H 
ATOM    137  H   SGN d 301     -34.041  50.707  15.177  0.00  0.00     0.140 HD
ATOM    138  H   SGN d 301     -33.864  49.977  12.378  0.00  0.00     0.212 HD
ATOM    139  H   SGN d 301     -31.338  49.970  14.907  0.00  0.00     0.076 H 
ATOM    140  H   SGN d 301     -29.994  50.064  12.859  0.00  0.00     0.091 H 
ATOM    141  S   IDS d 304     -23.945  57.059  17.308  0.00  0.00     0.252 S 
ATOM    142  O62 IDS d 304     -19.804  55.514  11.583  0.00  0.00    -0.646 OA
ATOM    143  O1S IDS d 304     -25.225  56.763  16.777  0.00  0.00    -0.572 OA
ATOM    144  O2  IDS d 304     -22.942  56.260  16.469  0.00  0.00    -0.244 OA
ATOM    145  O3  IDS d 304     -22.491  53.154  14.766  0.00  0.00    -0.390 OA
ATOM    146  C5  IDS d 304     -21.492  55.619  13.243  0.00  0.00     0.152 C 
ATOM    147  O5  IDS d 304     -22.414  56.595  13.577  0.00  0.00    -0.340 OA
ATOM    148  O3S IDS d 304     -23.566  58.397  17.109  0.00  0.00    -0.572 OA
ATOM    149  O4  IDS d 304     -20.271  55.869  15.293  0.00  0.00    -0.348 OA
ATOM    150  C3  IDS d 304     -22.063  54.358  15.360  0.00  0.00     0.094 C 
ATOM    151  C2  IDS d 304     -23.255  55.332  15.469  0.00  0.00     0.134 C 
ATOM    152  C1  IDS d 304     -23.591  56.093  14.186  0.00  0.00     0.161 C 
ATOM    153  O2S IDS d 304     -23.804  56.642  18.665  0.00  0.00    -0.572 OA
ATOM    154  O61 IDS d 304     -20.186  57.380  12.300  0.00  0.00    -0.646 OA
ATOM    155  C4  IDS d 304     -20.953  54.943  14.511  0.00  0.00     0.103 C 
ATOM    156  C6  IDS d 304     -20.438  56.205  12.318  0.00  0.00     0.206 C 
ATOM    157  H   IDS d 304     -23.203  52.766  15.298  0.00  0.00     0.210 HD
ATOM    158  H   IDS d 304     -21.951  54.829  12.686  0.00  0.00     0.104 H 
ATOM    159  H   IDS d 304     -21.691  54.181  16.348  0.00  0.00     0.091 H 
ATOM    160  H   IDS d 304     -24.120  54.742  15.687  0.00  0.00     0.097 H 
ATOM    161  H   IDS d 304     -24.205  56.936  14.425  0.00  0.00     0.133 H 
ATOM    162  H   IDS d 304     -20.304  54.156  14.187  0.00  0.00     0.092 H 
ENDROOT
TORSDOF 51
