REMARK  0 active torsions:
REMARK  status: ('A' for Active; 'I' for Inactive)
REMARK       I    between atoms: C6_2  and  C5_28 
REMARK       I    between atoms: C6_2  and  O6_5 
REMARK       I    between atoms: C2_4  and  O2_16 
REMARK       I    between atoms: C5_6  and  C6_24 
REMARK       I    between atoms: C4_7  and  O4_17 
REMARK       I    between atoms: O3_8  and  C3_19 
REMARK       I    between atoms: O3_10  and  C3_18 
REMARK       I    between atoms: O3_10  and  C1_30 
REMARK       I    between atoms: N_11  and  C2_26 
REMARK       I    between atoms: N_11  and  C7_21 
REMARK       I    between atoms: C8_13  and  C7_21 
REMARK       I    between atoms: O4_17  and  S_25 
REMARK       I    between atoms: O1_27  and  C1_29 
ROOT
ATOM      1  O5  GC4 d 516      27.985  23.254  -2.629  0.00  0.00    -0.311 OA
ATOM      2  O6A GC4 d 516      29.695  26.552  -2.462  0.00  0.00    -0.642 OA
ATOM      3  C2  GC4 d 516      25.773  23.331  -3.603  0.00  0.00     0.111 C 
ATOM      4  C5  GC4 d 516      28.242  24.668  -2.751  0.00  0.00     0.147 C 
ATOM      5  O3  GC4 d 516      24.953  25.336  -2.509  0.00  0.00    -0.389 OA
ATOM      6  O6B GC4 d 516      30.400  24.599  -1.751  0.00  0.00    -0.642 OA
ATOM      7  O2  GC4 d 516      26.297  22.861  -4.838  0.00  0.00    -0.388 OA
ATOM      8  C3  GC4 d 516      25.724  24.877  -3.621  0.00  0.00     0.084 C 
ATOM      9  C4  GC4 d 516      27.089  25.531  -3.274  0.00  0.00    -0.034 C 
ATOM     10  C6  GC4 d 516      29.548  25.317  -2.314  0.00  0.00     0.233 C 
ATOM     11  C1  GC4 d 516      26.636  22.832  -2.431  0.00  0.00     0.165 C 
ATOM     12  H   GC4 d 516      24.782  22.951  -3.472  0.00  0.00     0.095 H 
ATOM     13  H   GC4 d 516      24.046  25.000  -2.584  0.00  0.00     0.210 HD
ATOM     14  H   GC4 d 516      27.196  23.204  -4.959  0.00  0.00     0.210 HD
ATOM     15  H   GC4 d 516      25.366  25.125  -4.598  0.00  0.00     0.093 H 
ATOM     16  H   GC4 d 516      27.220  26.547  -3.396  0.00  0.00     0.085 H 
ATOM     17  H   GC4 d 516      26.539  21.767  -2.471  0.00  0.00     0.134 H 
ATOM     18  C6  ASG d 514      28.554  23.499   3.262  0.00  0.00     0.043 C 
ATOM     19  O6  ASG d 514      29.754  24.141   2.856  0.00  0.00    -0.398 OA
ATOM     20  C4  ASG d 514      27.466  23.348   0.962  0.00  0.00     0.114 C 
ATOM     21  O7  ASG d 514      23.346  21.468  -0.685  0.00  0.00    -0.274 OA
ATOM     22  O3  ASG d 514      26.191  23.109  -1.096  0.00  0.00    -0.348 OA
ATOM     23  N   ASG d 514      25.333  20.438  -0.269  0.00  0.00    -0.349 N 
ATOM     24  OSC ASG d 514      27.700  26.171   0.511  0.00  0.00    -0.572 OA
ATOM     25  C8  ASG d 514      23.747  19.445  -1.815  0.00  0.00    -0.003 C 
ATOM     26  O5  ASG d 514      26.955  21.812   2.777  0.00  0.00    -0.349 OA
ATOM     27  O4  ASG d 514      26.494  24.310   1.377  0.00  0.00    -0.246 OA
ATOM     28  C3  ASG d 514      26.827  22.370  -0.040  0.00  0.00     0.094 C 
ATOM     29  C7  ASG d 514      24.140  20.524  -0.869  0.00  0.00     0.214 C 
ATOM     30  OSA ASG d 514      25.422  26.033   0.193  0.00  0.00    -0.572 OA
ATOM     31  OSB ASG d 514      26.333  26.405   2.378  0.00  0.00    -0.572 OA
ATOM     32  S   ASG d 514      26.473  25.745   1.122  0.00  0.00     0.252 S 
ATOM     33  C2  ASG d 514      25.800  21.469   0.650  0.00  0.00     0.087 C 
ATOM     34  O1  ASG d 514      25.495  20.067   2.551  0.00  0.00    -0.369 OA
ATOM     35  C5  ASG d 514      28.015  22.587   2.178  0.00  0.00     0.090 C 
ATOM     36  C1  ASG d 514      26.444  20.817   1.876  0.00  0.00     0.151 C 
ATOM     37  H   ASG d 514      28.750  22.918   4.139  0.00  0.00     0.078 H 
ATOM     38  H   ASG d 514      27.821  24.253   3.460  0.00  0.00     0.078 H 
ATOM     39  H   ASG d 514      30.432  23.472   2.672  0.00  0.00     0.209 HD
ATOM     40  H   ASG d 514      28.280  23.853   0.486  0.00  0.00     0.093 H 
ATOM     41  H   ASG d 514      25.909  19.661  -0.452  0.00  0.00     0.163 HD
ATOM     42  H   ASG d 514      22.775  19.654  -2.210  0.00  0.00     0.040 H 
ATOM     43  H   ASG d 514      23.729  18.508  -1.299  0.00  0.00     0.040 H 
ATOM     44  H   ASG d 514      24.455  19.398  -2.616  0.00  0.00     0.040 H 
ATOM     45  H   ASG d 514      27.599  21.750  -0.446  0.00  0.00     0.091 H 
ATOM     46  H   ASG d 514      24.962  22.061   0.954  0.00  0.00     0.084 H 
ATOM     47  H   ASG d 514      25.902  19.654   3.328  0.00  0.00     0.212 HD
ATOM     48  H   ASG d 514      28.815  21.979   1.810  0.00  0.00     0.090 H 
ATOM     49  H   ASG d 514      27.249  20.198   1.539  0.00  0.00     0.132 H 
ENDROOT
TORSDOF 12
