MODEL 1
REMARK VINA RESULT:      -9.0      0.000      0.000
REMARK  0 active torsions:
REMARK  status: ('A' for Active; 'I' for Inactive)
REMARK       I    between atoms: C6_2  and  C5_28 
REMARK       I    between atoms: C6_2  and  O6_5 
REMARK       I    between atoms: C2_4  and  O2_16 
REMARK       I    between atoms: C5_6  and  C6_24 
REMARK       I    between atoms: C4_7  and  O4_17 
REMARK       I    between atoms: O3_8  and  C3_19 
REMARK       I    between atoms: O3_10  and  C3_18 
REMARK       I    between atoms: O3_10  and  C1_30 
REMARK       I    between atoms: N_11  and  C2_26 
REMARK       I    between atoms: N_11  and  C7_21 
REMARK       I    between atoms: C8_13  and  C7_21 
REMARK       I    between atoms: O4_17  and  S_25 
REMARK       I    between atoms: O1_27  and  C1_29 
ROOT
ATOM      1  O5  GC4 d 516      28.245  23.286  -2.312  0.00  0.00    -0.311 OA
ATOM      2  O6A GC4 d 516      29.511  26.773  -2.582  0.00  0.00    -0.642 OA
ATOM      3  C2  GC4 d 516      26.007  22.973  -3.171  0.00  0.00     0.111 C 
ATOM      4  C5  GC4 d 516      28.309  24.699  -2.595  0.00  0.00     0.147 C 
ATOM      5  O3  GC4 d 516      24.972  24.967  -2.252  0.00  0.00    -0.389 OA
ATOM      6  O6B GC4 d 516      30.494  25.016  -1.708  0.00  0.00    -0.642 OA
ATOM      7  O2  GC4 d 516      26.540  22.440  -4.376  0.00  0.00    -0.388 OA
ATOM      8  C3  GC4 d 516      25.754  24.489  -3.349  0.00  0.00     0.084 C 
ATOM      9  C4  GC4 d 516      27.033  25.345  -3.144  0.00  0.00    -0.034 C 
ATOM     10  C6  GC4 d 516      29.534  25.553  -2.297  0.00  0.00     0.233 C 
ATOM     11  C1  GC4 d 516      26.972  22.721  -2.000  0.00  0.00     0.165 C 
ATOM     12  H   GC4 d 516      25.080  22.488  -2.949  0.00  0.00     0.095 H 
ATOM     13  H   GC4 d 516      24.115  24.512  -2.244  0.00  0.00     0.210 HD
ATOM     14  H   GC4 d 516      27.381  22.878  -4.579  0.00  0.00     0.210 HD
ATOM     15  H   GC4 d 516      25.329  24.580  -4.326  0.00  0.00     0.093 H 
ATOM     16  H   GC4 d 516      27.024  26.350  -3.379  0.00  0.00     0.085 H 
ATOM     17  H   GC4 d 516      27.015  21.655  -1.923  0.00  0.00     0.134 H 
ATOM     18  C6  ASG d 514      29.003  24.253   3.483  0.00  0.00     0.043 C 
ATOM     19  O6  ASG d 514      30.091  24.993   2.950  0.00  0.00    -0.398 OA
ATOM     20  C4  ASG d 514      27.857  23.711   1.272  0.00  0.00     0.114 C 
ATOM     21  O7  ASG d 514      23.960  21.153   0.050  0.00  0.00    -0.274 OA
ATOM     22  O3  ASG d 514      26.546  23.086  -0.680  0.00  0.00    -0.348 OA
ATOM     23  N   ASG d 514      26.080  20.436   0.467  0.00  0.00    -0.349 N 
ATOM     24  OSC ASG d 514      27.699  26.474   0.515  0.00  0.00    -0.572 OA
ATOM     25  C8  ASG d 514      24.581  19.084  -0.881  0.00  0.00    -0.003 C 
ATOM     26  O5  ASG d 514      27.623  22.334   3.262  0.00  0.00    -0.349 OA
ATOM     27  O4  ASG d 514      26.783  24.582   1.634  0.00  0.00    -0.246 OA
ATOM     28  C3  ASG d 514      27.314  22.555   0.413  0.00  0.00     0.094 C 
ATOM     29  C7  ASG d 514      24.864  20.303  -0.076  0.00  0.00     0.214 C 
ATOM     30  OSA ASG d 514      25.448  26.013   0.333  0.00  0.00    -0.572 OA
ATOM     31  OSB ASG d 514      26.386  26.738   2.417  0.00  0.00    -0.572 OA
ATOM     32  S   ASG d 514      26.563  25.966   1.231  0.00  0.00     0.252 S 
ATOM     33  C2  ASG d 514      26.442  21.613   1.247  0.00  0.00     0.087 C 
ATOM     34  O1  ASG d 514      26.398  20.403   3.298  0.00  0.00    -0.369 OA
ATOM     35  C5  ASG d 514      28.547  23.166   2.531  0.00  0.00     0.090 C 
ATOM     36  C1  ASG d 514      27.213  21.188   2.499  0.00  0.00     0.151 C 
ATOM     37  H   ASG d 514      29.307  23.803   4.405  0.00  0.00     0.078 H 
ATOM     38  H   ASG d 514      28.185  24.926   3.639  0.00  0.00     0.078 H 
ATOM     39  H   ASG d 514      30.844  24.400   2.802  0.00  0.00     0.209 HD
ATOM     40  H   ASG d 514      28.578  24.260   0.703  0.00  0.00     0.093 H 
ATOM     41  H   ASG d 514      26.746  19.723   0.336  0.00  0.00     0.163 HD
ATOM     42  H   ASG d 514      23.575  19.123  -1.244  0.00  0.00     0.040 H 
ATOM     43  H   ASG d 514      24.707  18.215  -0.269  0.00  0.00     0.040 H 
ATOM     44  H   ASG d 514      25.258  19.039  -1.709  0.00  0.00     0.040 H 
ATOM     45  H   ASG d 514      28.145  21.997   0.034  0.00  0.00     0.091 H 
ATOM     46  H   ASG d 514      25.546  22.124   1.530  0.00  0.00     0.084 H 
ATOM     47  H   ASG d 514      26.885  20.134   4.091  0.00  0.00     0.212 HD
ATOM     48  H   ASG d 514      29.406  22.627   2.187  0.00  0.00     0.090 H 
ATOM     49  H   ASG d 514      28.079  20.643   2.187  0.00  0.00     0.132 H 
ENDROOT
TORSDOF 12
ENDMDL
MODEL 2
REMARK VINA RESULT:      -8.8      1.184      1.288
REMARK  0 active torsions:
REMARK  status: ('A' for Active; 'I' for Inactive)
REMARK       I    between atoms: C6_2  and  C5_28 
REMARK       I    between atoms: C6_2  and  O6_5 
REMARK       I    between atoms: C2_4  and  O2_16 
REMARK       I    between atoms: C5_6  and  C6_24 
REMARK       I    between atoms: C4_7  and  O4_17 
REMARK       I    between atoms: O3_8  and  C3_19 
REMARK       I    between atoms: O3_10  and  C3_18 
REMARK       I    between atoms: O3_10  and  C1_30 
REMARK       I    between atoms: N_11  and  C2_26 
REMARK       I    between atoms: N_11  and  C7_21 
REMARK       I    between atoms: C8_13  and  C7_21 
REMARK       I    between atoms: O4_17  and  S_25 
REMARK       I    between atoms: O1_27  and  C1_29 
ROOT
ATOM      1  O5  GC4 d 516      26.963  22.356  -2.243  0.00  0.00    -0.311 OA
ATOM      2  O6A GC4 d 516      28.307  25.737  -3.009  0.00  0.00    -0.642 OA
ATOM      3  C2  GC4 d 516      24.571  22.149  -2.536  0.00  0.00     0.111 C 
ATOM      4  C5  GC4 d 516      27.030  23.747  -2.617  0.00  0.00     0.147 C 
ATOM      5  O3  GC4 d 516      23.888  24.245  -1.522  0.00  0.00    -0.389 OA
ATOM      6  O6B GC4 d 516      29.377  23.963  -2.284  0.00  0.00    -0.642 OA
ATOM      7  O2  GC4 d 516      24.777  21.527  -3.797  0.00  0.00    -0.388 OA
ATOM      8  C3  GC4 d 516      24.362  23.668  -2.740  0.00  0.00     0.084 C 
ATOM      9  C4  GC4 d 516      25.696  24.448  -2.891  0.00  0.00    -0.034 C 
ATOM     10  C6  GC4 d 516      28.333  24.533  -2.665  0.00  0.00     0.233 C 
ATOM     11  C1  GC4 d 516      25.772  21.889  -1.609  0.00  0.00     0.165 C 
ATOM     12  H   GC4 d 516      23.700  21.734  -2.075  0.00  0.00     0.095 H 
ATOM     13  H   GC4 d 516      23.035  23.848  -1.287  0.00  0.00     0.210 HD
ATOM     14  H   GC4 d 516      25.567  21.900  -4.217  0.00  0.00     0.210 HD
ATOM     15  H   GC4 d 516      23.724  23.740  -3.595  0.00  0.00     0.093 H 
ATOM     16  H   GC4 d 516      25.684  25.439  -3.177  0.00  0.00     0.085 H 
ATOM     17  H   GC4 d 516      25.776  20.826  -1.480  0.00  0.00     0.134 H 
ATOM     18  C6  ASG d 514      29.117  23.538   3.147  0.00  0.00     0.043 C 
ATOM     19  O6  ASG d 514      30.086  24.181   2.331  0.00  0.00    -0.398 OA
ATOM     20  C4  ASG d 514      27.455  22.970   1.301  0.00  0.00     0.114 C 
ATOM     21  O7  ASG d 514      23.253  20.614   1.177  0.00  0.00    -0.274 OA
ATOM     22  O3  ASG d 514      25.689  22.341  -0.251  0.00  0.00    -0.348 OA
ATOM     23  N   ASG d 514      25.371  19.782   1.130  0.00  0.00    -0.349 N 
ATOM     24  OSC ASG d 514      27.266  25.699   0.437  0.00  0.00    -0.572 OA
ATOM     25  C8  ASG d 514      23.527  18.469   0.253  0.00  0.00    -0.003 C 
ATOM     26  O5  ASG d 514      27.627  21.703   3.370  0.00  0.00    -0.349 OA
ATOM     27  O4  ASG d 514      26.543  23.924   1.850  0.00  0.00    -0.246 OA
ATOM     28  C3  ASG d 514      26.665  21.813   0.663  0.00  0.00     0.094 C 
ATOM     29  C7  ASG d 514      24.056  19.703   0.895  0.00  0.00     0.214 C 
ATOM     30  OSA ASG d 514      25.015  25.376   0.813  0.00  0.00    -0.572 OA
ATOM     31  OSB ASG d 514      26.455  26.134   2.573  0.00  0.00    -0.572 OA
ATOM     32  S   ASG d 514      26.307  25.299   1.428  0.00  0.00     0.252 S 
ATOM     33  C2  ASG d 514      25.967  20.968   1.732  0.00  0.00     0.087 C 
ATOM     34  O1  ASG d 514      26.346  19.860   3.806  0.00  0.00    -0.369 OA
ATOM     35  C5  ASG d 514      28.394  22.439   2.394  0.00  0.00     0.090 C 
ATOM     36  C1  ASG d 514      26.989  20.553   2.793  0.00  0.00     0.151 C 
ATOM     37  H   ASG d 514      29.607  23.112   3.998  0.00  0.00     0.078 H 
ATOM     38  H   ASG d 514      28.395  24.268   3.449  0.00  0.00     0.078 H 
ATOM     39  H   ASG d 514      30.750  23.534   2.047  0.00  0.00     0.209 HD
ATOM     40  H   ASG d 514      28.049  23.444   0.548  0.00  0.00     0.093 H 
ATOM     41  H   ASG d 514      25.949  19.022   0.891  0.00  0.00     0.163 HD
ATOM     42  H   ASG d 514      22.468  18.556   0.132  0.00  0.00     0.040 H 
ATOM     43  H   ASG d 514      23.749  17.623   0.869  0.00  0.00     0.040 H 
ATOM     44  H   ASG d 514      23.986  18.342  -0.706  0.00  0.00     0.040 H 
ATOM     45  H   ASG d 514      27.353  21.185   0.135  0.00  0.00     0.091 H 
ATOM     46  H   ASG d 514      25.191  21.548   2.186  0.00  0.00     0.084 H 
ATOM     47  H   ASG d 514      26.993  19.596   4.478  0.00  0.00     0.212 HD
ATOM     48  H   ASG d 514      29.118  21.831   1.893  0.00  0.00     0.090 H 
ATOM     49  H   ASG d 514      27.728  19.939   2.321  0.00  0.00     0.132 H 
ENDROOT
TORSDOF 12
ENDMDL
MODEL 3
REMARK VINA RESULT:      -8.7      1.215      1.284
REMARK  0 active torsions:
REMARK  status: ('A' for Active; 'I' for Inactive)
REMARK       I    between atoms: C6_2  and  C5_28 
REMARK       I    between atoms: C6_2  and  O6_5 
REMARK       I    between atoms: C2_4  and  O2_16 
REMARK       I    between atoms: C5_6  and  C6_24 
REMARK       I    between atoms: C4_7  and  O4_17 
REMARK       I    between atoms: O3_8  and  C3_19 
REMARK       I    between atoms: O3_10  and  C3_18 
REMARK       I    between atoms: O3_10  and  C1_30 
REMARK       I    between atoms: N_11  and  C2_26 
REMARK       I    between atoms: N_11  and  C7_21 
REMARK       I    between atoms: C8_13  and  C7_21 
REMARK       I    between atoms: O4_17  and  S_25 
REMARK       I    between atoms: O1_27  and  C1_29 
ROOT
ATOM      1  O5  GC4 d 516      28.303  23.133  -2.611  0.00  0.00    -0.311 OA
ATOM      2  O6A GC4 d 516      30.434  26.128  -2.045  0.00  0.00    -0.642 OA
ATOM      3  C2  GC4 d 516      26.316  23.561  -3.919  0.00  0.00     0.111 C 
ATOM      4  C5  GC4 d 516      28.784  24.493  -2.635  0.00  0.00     0.147 C 
ATOM      5  O3  GC4 d 516      25.635  25.652  -2.892  0.00  0.00    -0.389 OA
ATOM      6  O6B GC4 d 516      30.716  24.080  -1.309  0.00  0.00    -0.642 OA
ATOM      7  O2  GC4 d 516      26.958  23.035  -5.073  0.00  0.00    -0.388 OA
ATOM      8  C3  GC4 d 516      26.500  25.097  -3.884  0.00  0.00     0.084 C 
ATOM      9  C4  GC4 d 516      27.872  25.529  -3.300  0.00  0.00    -0.034 C 
ATOM     10  C6  GC4 d 516      30.083  24.928  -1.971  0.00  0.00     0.233 C 
ATOM     11  C1  GC4 d 516      26.893  22.919  -2.646  0.00  0.00     0.165 C 
ATOM     12  H   GC4 d 516      25.271  23.335  -3.962  0.00  0.00     0.095 H 
ATOM     13  H   GC4 d 516      24.713  25.459  -3.123  0.00  0.00     0.210 HD
ATOM     14  H   GC4 d 516      27.905  23.238  -5.036  0.00  0.00     0.210 HD
ATOM     15  H   GC4 d 516      26.347  25.411  -4.895  0.00  0.00     0.093 H 
ATOM     16  H   GC4 d 516      28.171  26.515  -3.360  0.00  0.00     0.085 H 
ATOM     17  H   GC4 d 516      26.646  21.882  -2.742  0.00  0.00     0.134 H 
ATOM     18  C6  ASG d 514      27.936  23.202   3.301  0.00  0.00     0.043 C 
ATOM     19  O6  ASG d 514      29.268  23.659   3.116  0.00  0.00    -0.398 OA
ATOM     20  C4  ASG d 514      27.227  23.252   0.853  0.00  0.00     0.114 C 
ATOM     21  O7  ASG d 514      23.197  22.048  -1.499  0.00  0.00    -0.274 OA
ATOM     22  O3  ASG d 514      26.282  23.241  -1.389  0.00  0.00    -0.348 OA
ATOM     23  N   ASG d 514      24.915  20.721  -0.813  0.00  0.00    -0.349 N 
ATOM     24  OSC ASG d 514      27.947  26.013   0.556  0.00  0.00    -0.572 OA
ATOM     25  C8  ASG d 514      23.472  20.004  -2.629  0.00  0.00    -0.003 C 
ATOM     26  O5  ASG d 514      26.205  21.786   2.503  0.00  0.00    -0.349 OA
ATOM     27  O4  ASG d 514      26.354  24.345   1.146  0.00  0.00    -0.246 OA
ATOM     28  C3  ASG d 514      26.621  22.398  -0.275  0.00  0.00     0.094 C 
ATOM     29  C7  ASG d 514      23.861  20.997  -1.591  0.00  0.00     0.214 C 
ATOM     30  OSA ASG d 514      25.756  26.229  -0.124  0.00  0.00    -0.572 OA
ATOM     31  OSB ASG d 514      26.345  26.425   2.190  0.00  0.00    -0.572 OA
ATOM     32  S   ASG d 514      26.588  25.770   0.948  0.00  0.00     0.252 S 
ATOM     33  C2  ASG d 514      25.373  21.655   0.208  0.00  0.00     0.087 C 
ATOM     34  O1  ASG d 514      24.559  20.288   1.980  0.00  0.00    -0.369 OA
ATOM     35  C5  ASG d 514      27.451  22.399   2.110  0.00  0.00     0.090 C 
ATOM     36  C1  ASG d 514      25.705  20.894   1.494  0.00  0.00     0.151 C 
ATOM     37  H   ASG d 514      27.898  22.585   4.175  0.00  0.00     0.078 H 
ATOM     38  H   ASG d 514      27.301  24.056   3.410  0.00  0.00     0.078 H 
ATOM     39  H   ASG d 514      29.860  22.897   3.016  0.00  0.00     0.209 HD
ATOM     40  H   ASG d 514      28.173  23.634   0.533  0.00  0.00     0.093 H 
ATOM     41  H   ASG d 514      25.391  19.868  -0.933  0.00  0.00     0.163 HD
ATOM     42  H   ASG d 514      22.619  20.365  -3.165  0.00  0.00     0.040 H 
ATOM     43  H   ASG d 514      23.231  19.074  -2.160  0.00  0.00     0.040 H 
ATOM     44  H   ASG d 514      24.286  19.862  -3.309  0.00  0.00     0.040 H 
ATOM     45  H   ASG d 514      27.348  21.674  -0.577  0.00  0.00     0.091 H 
ATOM     46  H   ASG d 514      24.594  22.363   0.398  0.00  0.00     0.084 H 
ATOM     47  H   ASG d 514      24.768  19.806   2.795  0.00  0.00     0.212 HD
ATOM     48  H   ASG d 514      28.201  21.681   1.850  0.00  0.00     0.090 H 
ATOM     49  H   ASG d 514      26.454  20.164   1.265  0.00  0.00     0.132 H 
ENDROOT
TORSDOF 12
ENDMDL
MODEL 4
REMARK VINA RESULT:      -8.0      2.637      6.748
REMARK  0 active torsions:
REMARK  status: ('A' for Active; 'I' for Inactive)
REMARK       I    between atoms: C6_2  and  C5_28 
REMARK       I    between atoms: C6_2  and  O6_5 
REMARK       I    between atoms: C2_4  and  O2_16 
REMARK       I    between atoms: C5_6  and  C6_24 
REMARK       I    between atoms: C4_7  and  O4_17 
REMARK       I    between atoms: O3_8  and  C3_19 
REMARK       I    between atoms: O3_10  and  C3_18 
REMARK       I    between atoms: O3_10  and  C1_30 
REMARK       I    between atoms: N_11  and  C2_26 
REMARK       I    between atoms: N_11  and  C7_21 
REMARK       I    between atoms: C8_13  and  C7_21 
REMARK       I    between atoms: O4_17  and  S_25 
REMARK       I    between atoms: O1_27  and  C1_29 
ROOT
ATOM      1  O5  GC4 d 516      27.815  19.350   0.708  0.00  0.00    -0.311 OA
ATOM      2  O6A GC4 d 516      25.920  16.491  -0.729  0.00  0.00    -0.642 OA
ATOM      3  C2  GC4 d 516      27.465  19.682   3.077  0.00  0.00     0.111 C 
ATOM      4  C5  GC4 d 516      26.930  18.217   0.592  0.00  0.00     0.147 C 
ATOM      5  O3  GC4 d 516      25.062  19.353   3.149  0.00  0.00    -0.389 OA
ATOM      6  O6B GC4 d 516      27.240  17.918  -1.748  0.00  0.00    -0.642 OA
ATOM      7  O2  GC4 d 516      28.696  19.028   3.354  0.00  0.00    -0.388 OA
ATOM      8  C3  GC4 d 516      26.309  18.657   3.154  0.00  0.00     0.084 C 
ATOM      9  C4  GC4 d 516      26.146  17.829   1.850  0.00  0.00    -0.034 C 
ATOM     10  C6  GC4 d 516      26.699  17.472  -0.715  0.00  0.00     0.233 C 
ATOM     11  C1  GC4 d 516      27.510  20.342   1.688  0.00  0.00     0.165 C 
ATOM     12  H   GC4 d 516      27.301  20.449   3.804  0.00  0.00     0.095 H 
ATOM     13  H   GC4 d 516      25.011  19.930   3.927  0.00  0.00     0.210 HD
ATOM     14  H   GC4 d 516      28.847  18.332   2.696  0.00  0.00     0.210 HD
ATOM     15  H   GC4 d 516      26.532  18.061   4.014  0.00  0.00     0.093 H 
ATOM     16  H   GC4 d 516      25.509  17.018   1.831  0.00  0.00     0.085 H 
ATOM     17  H   GC4 d 516      28.286  21.074   1.772  0.00  0.00     0.134 H 
ATOM     18  C6  ASG d 514      24.580  22.468  -3.152  0.00  0.00     0.043 C 
ATOM     19  O6  ASG d 514      24.781  21.269  -3.887  0.00  0.00    -0.398 OA
ATOM     20  C4  ASG d 514      25.558  21.667  -0.939  0.00  0.00     0.114 C 
ATOM     21  O7  ASG d 514      26.315  23.742   3.344  0.00  0.00    -0.274 OA
ATOM     22  O3  ASG d 514      26.397  21.151   1.285  0.00  0.00    -0.348 OA
ATOM     23  N   ASG d 514      27.596  23.812   1.464  0.00  0.00    -0.349 N 
ATOM     24  OSC ASG d 514      23.802  19.402  -0.822  0.00  0.00    -0.572 OA
ATOM     25  C8  ASG d 514      28.593  24.245   3.634  0.00  0.00    -0.003 C 
ATOM     26  O5  ASG d 514      25.499  24.008  -1.595  0.00  0.00    -0.349 OA
ATOM     27  O4  ASG d 514      24.248  21.696  -0.369  0.00  0.00    -0.246 OA
ATOM     28  C3  ASG d 514      26.599  22.001   0.144  0.00  0.00     0.094 C 
ATOM     29  C7  ASG d 514      27.416  23.917   2.786  0.00  0.00     0.214 C 
ATOM     30  OSA ASG d 514      23.223  20.300   1.219  0.00  0.00    -0.572 OA
ATOM     31  OSB ASG d 514      22.078  20.962  -0.780  0.00  0.00    -0.572 OA
ATOM     32  S   ASG d 514      23.317  20.590  -0.180  0.00  0.00     0.252 S 
ATOM     33  C2  ASG d 514      26.498  23.468   0.569  0.00  0.00     0.087 C 
ATOM     34  O1  ASG d 514      26.369  25.681  -0.302  0.00  0.00    -0.369 OA
ATOM     35  C5  ASG d 514      25.655  22.665  -2.102  0.00  0.00     0.090 C 
ATOM     36  C1  ASG d 514      26.544  24.358  -0.675  0.00  0.00     0.151 C 
ATOM     37  H   ASG d 514      24.599  23.297  -3.828  0.00  0.00     0.078 H 
ATOM     38  H   ASG d 514      23.635  22.402  -2.655  0.00  0.00     0.078 H 
ATOM     39  H   ASG d 514      25.635  21.311  -4.346  0.00  0.00     0.209 HD
ATOM     40  H   ASG d 514      25.754  20.687  -1.321  0.00  0.00     0.093 H 
ATOM     41  H   ASG d 514      28.491  23.971   1.086  0.00  0.00     0.163 HD
ATOM     42  H   ASG d 514      28.291  24.293   4.659  0.00  0.00     0.040 H 
ATOM     43  H   ASG d 514      28.996  25.190   3.335  0.00  0.00     0.040 H 
ATOM     44  H   ASG d 514      29.339  23.487   3.518  0.00  0.00     0.040 H 
ATOM     45  H   ASG d 514      27.575  21.835  -0.262  0.00  0.00     0.091 H 
ATOM     46  H   ASG d 514      25.574  23.620   1.088  0.00  0.00     0.084 H 
ATOM     47  H   ASG d 514      26.398  26.245  -1.090  0.00  0.00     0.212 HD
ATOM     48  H   ASG d 514      26.612  22.502  -2.553  0.00  0.00     0.090 H 
ATOM     49  H   ASG d 514      27.494  24.219  -1.148  0.00  0.00     0.132 H 
ENDROOT
TORSDOF 12
ENDMDL
MODEL 5
REMARK VINA RESULT:      -7.7      1.639      2.000
REMARK  0 active torsions:
REMARK  status: ('A' for Active; 'I' for Inactive)
REMARK       I    between atoms: C6_2  and  C5_28 
REMARK       I    between atoms: C6_2  and  O6_5 
REMARK       I    between atoms: C2_4  and  O2_16 
REMARK       I    between atoms: C5_6  and  C6_24 
REMARK       I    between atoms: C4_7  and  O4_17 
REMARK       I    between atoms: O3_8  and  C3_19 
REMARK       I    between atoms: O3_10  and  C3_18 
REMARK       I    between atoms: O3_10  and  C1_30 
REMARK       I    between atoms: N_11  and  C2_26 
REMARK       I    between atoms: N_11  and  C7_21 
REMARK       I    between atoms: C8_13  and  C7_21 
REMARK       I    between atoms: O4_17  and  S_25 
REMARK       I    between atoms: O1_27  and  C1_29 
ROOT
ATOM      1  O5  GC4 d 516      26.206  21.916  -2.966  0.00  0.00    -0.311 OA
ATOM      2  O6A GC4 d 516      27.431  25.208  -4.188  0.00  0.00    -0.642 OA
ATOM      3  C2  GC4 d 516      23.805  21.647  -3.079  0.00  0.00     0.111 C 
ATOM      4  C5  GC4 d 516      26.222  23.258  -3.496  0.00  0.00     0.147 C 
ATOM      5  O3  GC4 d 516      23.145  23.834  -2.262  0.00  0.00    -0.389 OA
ATOM      6  O6B GC4 d 516      28.579  23.540  -3.342  0.00  0.00    -0.642 OA
ATOM      7  O2  GC4 d 516      23.943  20.890  -4.275  0.00  0.00    -0.388 OA
ATOM      8  C3  GC4 d 516      23.553  23.130  -3.437  0.00  0.00     0.084 C 
ATOM      9  C4  GC4 d 516      24.859  23.907  -3.759  0.00  0.00    -0.034 C 
ATOM     10  C6  GC4 d 516      27.503  24.050  -3.715  0.00  0.00     0.233 C 
ATOM     11  C1  GC4 d 516      25.067  21.508  -2.209  0.00  0.00     0.165 C 
ATOM     12  H   GC4 d 516      22.973  21.275  -2.520  0.00  0.00     0.095 H 
ATOM     13  H   GC4 d 516      22.316  23.454  -1.929  0.00  0.00     0.210 HD
ATOM     14  H   GC4 d 516      24.698  21.225  -4.784  0.00  0.00     0.210 HD
ATOM     15  H   GC4 d 516      22.861  23.099  -4.251  0.00  0.00     0.093 H 
ATOM     16  H   GC4 d 516      24.809  24.859  -4.152  0.00  0.00     0.085 H 
ATOM     17  H   GC4 d 516      25.101  20.467  -1.964  0.00  0.00     0.134 H 
ATOM     18  C6  ASG d 514      28.671  23.722   2.108  0.00  0.00     0.043 C 
ATOM     19  O6  ASG d 514      29.573  24.282   1.165  0.00  0.00    -0.398 OA
ATOM     20  C4  ASG d 514      26.907  22.929   0.448  0.00  0.00     0.114 C 
ATOM     21  O7  ASG d 514      22.754  20.520   0.858  0.00  0.00    -0.274 OA
ATOM     22  O3  ASG d 514      25.061  22.107  -0.907  0.00  0.00    -0.348 OA
ATOM     23  N   ASG d 514      24.881  19.715   0.767  0.00  0.00    -0.349 N 
ATOM     24  OSC ASG d 514      26.609  25.542  -0.698  0.00  0.00    -0.572 OA
ATOM     25  C8  ASG d 514      23.013  18.289   0.161  0.00  0.00    -0.003 C 
ATOM     26  O5  ASG d 514      27.234  21.904   2.629  0.00  0.00    -0.349 OA
ATOM     27  O4  ASG d 514      26.013  23.927   0.946  0.00  0.00    -0.246 OA
ATOM     28  C3  ASG d 514      26.103  21.698  -0.005  0.00  0.00     0.094 C 
ATOM     29  C7  ASG d 514      23.556  19.593   0.628  0.00  0.00     0.214 C 
ATOM     30  OSA ASG d 514      24.394  25.234  -0.144  0.00  0.00    -0.572 OA
ATOM     31  OSB ASG d 514      25.925  26.203   1.424  0.00  0.00    -0.572 OA
ATOM     32  S   ASG d 514      25.723  25.242   0.390  0.00  0.00     0.252 S 
ATOM     33  C2  ASG d 514      25.491  20.969   1.194  0.00  0.00     0.087 C 
ATOM     34  O1  ASG d 514      26.022  20.104   3.348  0.00  0.00    -0.369 OA
ATOM     35  C5  ASG d 514      27.924  22.537   1.530  0.00  0.00     0.090 C 
ATOM     36  C1  ASG d 514      26.585  20.688   2.226  0.00  0.00     0.151 C 
ATOM     37  H   ASG d 514      29.221  23.400   2.967  0.00  0.00     0.078 H 
ATOM     38  H   ASG d 514      27.955  24.472   2.374  0.00  0.00     0.078 H 
ATOM     39  H   ASG d 514      30.231  23.616   0.913  0.00  0.00     0.209 HD
ATOM     40  H   ASG d 514      27.443  23.324  -0.390  0.00  0.00     0.093 H 
ATOM     41  H   ASG d 514      25.459  18.941   0.576  0.00  0.00     0.163 HD
ATOM     42  H   ASG d 514      21.947  18.348   0.101  0.00  0.00     0.040 H 
ATOM     43  H   ASG d 514      23.290  17.520   0.852  0.00  0.00     0.040 H 
ATOM     44  H   ASG d 514      23.413  18.061  -0.805  0.00  0.00     0.040 H 
ATOM     45  H   ASG d 514      26.768  21.024  -0.504  0.00  0.00     0.091 H 
ATOM     46  H   ASG d 514      24.733  21.586   1.630  0.00  0.00     0.084 H 
ATOM     47  H   ASG d 514      26.714  19.926   4.003  0.00  0.00     0.212 HD
ATOM     48  H   ASG d 514      28.627  21.886   1.053  0.00  0.00     0.090 H 
ATOM     49  H   ASG d 514      27.305  20.035   1.778  0.00  0.00     0.132 H 
ENDROOT
TORSDOF 12
ENDMDL
MODEL 6
REMARK VINA RESULT:      -7.6      1.924      5.246
REMARK  0 active torsions:
REMARK  status: ('A' for Active; 'I' for Inactive)
REMARK       I    between atoms: C6_2  and  C5_28 
REMARK       I    between atoms: C6_2  and  O6_5 
REMARK       I    between atoms: C2_4  and  O2_16 
REMARK       I    between atoms: C5_6  and  C6_24 
REMARK       I    between atoms: C4_7  and  O4_17 
REMARK       I    between atoms: O3_8  and  C3_19 
REMARK       I    between atoms: O3_10  and  C3_18 
REMARK       I    between atoms: O3_10  and  C1_30 
REMARK       I    between atoms: N_11  and  C2_26 
REMARK       I    between atoms: N_11  and  C7_21 
REMARK       I    between atoms: C8_13  and  C7_21 
REMARK       I    between atoms: O4_17  and  S_25 
REMARK       I    between atoms: O1_27  and  C1_29 
ROOT
ATOM      1  O5  GC4 d 516      26.558  23.802   2.436  0.00  0.00    -0.311 OA
ATOM      2  O6A GC4 d 516      27.870  27.281   2.402  0.00  0.00    -0.642 OA
ATOM      3  C2  GC4 d 516      28.220  22.119   2.942  0.00  0.00     0.111 C 
ATOM      4  C5  GC4 d 516      27.463  24.922   2.516  0.00  0.00     0.147 C 
ATOM      5  O3  GC4 d 516      30.039  22.970   1.579  0.00  0.00    -0.389 OA
ATOM      6  O6B GC4 d 516      25.837  26.573   1.974  0.00  0.00    -0.642 OA
ATOM      7  O2  GC4 d 516      27.756  22.060   4.284  0.00  0.00    -0.388 OA
ATOM      8  C3  GC4 d 516      29.401  23.113   2.850  0.00  0.00     0.084 C 
ATOM      9  C4  GC4 d 516      28.942  24.593   2.741  0.00  0.00    -0.034 C 
ATOM     10  C6  GC4 d 516      27.022  26.364   2.308  0.00  0.00     0.233 C 
ATOM     11  C1  GC4 d 516      27.080  22.547   2.000  0.00  0.00     0.165 C 
ATOM     12  H   GC4 d 516      28.554  21.149   2.640  0.00  0.00     0.095 H 
ATOM     13  H   GC4 d 516      30.389  22.070   1.493  0.00  0.00     0.210 HD
ATOM     14  H   GC4 d 516      27.452  22.939   4.560  0.00  0.00     0.210 HD
ATOM     15  H   GC4 d 516      29.993  22.911   3.717  0.00  0.00     0.093 H 
ATOM     16  H   GC4 d 516      29.633  25.355   2.821  0.00  0.00     0.085 H 
ATOM     17  H   GC4 d 516      26.360  21.760   2.089  0.00  0.00     0.134 H 
ATOM     18  C6  ASG d 514      25.307  25.013  -3.226  0.00  0.00     0.043 C 
ATOM     19  O6  ASG d 514      25.081  26.282  -2.630  0.00  0.00    -0.398 OA
ATOM     20  C4  ASG d 514      26.313  23.865  -1.184  0.00  0.00     0.114 C 
ATOM     21  O7  ASG d 514      27.878  19.398  -0.276  0.00  0.00    -0.274 OA
ATOM     22  O3  ASG d 514      27.332  22.546   0.588  0.00  0.00    -0.348 OA
ATOM     23  N   ASG d 514      25.755  20.219  -0.220  0.00  0.00    -0.349 N 
ATOM     24  OSC ASG d 514      28.338  25.874  -0.879  0.00  0.00    -0.572 OA
ATOM     25  C8  ASG d 514      26.322  18.223   1.039  0.00  0.00    -0.003 C 
ATOM     26  O5  ASG d 514      25.176  22.656  -2.962  0.00  0.00    -0.349 OA
ATOM     27  O4  ASG d 514      27.580  23.835  -1.846  0.00  0.00    -0.246 OA
ATOM     28  C3  ASG d 514      26.182  22.634  -0.269  0.00  0.00     0.094 C 
ATOM     29  C7  ASG d 514      26.698  19.334   0.123  0.00  0.00     0.214 C 
ATOM     30  OSA ASG d 514      29.764  24.069  -1.014  0.00  0.00    -0.572 OA
ATOM     31  OSB ASG d 514      29.056  25.222  -2.992  0.00  0.00    -0.572 OA
ATOM     32  S   ASG d 514      28.704  24.750  -1.694  0.00  0.00     0.252 S 
ATOM     33  C2  ASG d 514      26.052  21.350  -1.091  0.00  0.00     0.087 C 
ATOM     34  O1  ASG d 514      24.865  20.392  -2.920  0.00  0.00    -0.369 OA
ATOM     35  C5  ASG d 514      25.174  23.891  -2.215  0.00  0.00     0.090 C 
ATOM     36  C1  ASG d 514      24.931  21.520  -2.119  0.00  0.00     0.151 C 
ATOM     37  H   ASG d 514      24.590  24.863  -4.006  0.00  0.00     0.078 H 
ATOM     38  H   ASG d 514      26.304  24.997  -3.614  0.00  0.00     0.078 H 
ATOM     39  H   ASG d 514      24.180  26.315  -2.272  0.00  0.00     0.209 HD
ATOM     40  H   ASG d 514      26.248  24.751  -0.589  0.00  0.00     0.093 H 
ATOM     41  H   ASG d 514      24.840  20.105   0.125  0.00  0.00     0.163 HD
ATOM     42  H   ASG d 514      27.177  17.604   1.218  0.00  0.00     0.040 H 
ATOM     43  H   ASG d 514      25.546  17.639   0.591  0.00  0.00     0.040 H 
ATOM     44  H   ASG d 514      25.975  18.628   1.967  0.00  0.00     0.040 H 
ATOM     45  H   ASG d 514      25.297  22.746   0.322  0.00  0.00     0.091 H 
ATOM     46  H   ASG d 514      26.977  21.160  -1.594  0.00  0.00     0.084 H 
ATOM     47  H   ASG d 514      24.155  20.499  -3.572  0.00  0.00     0.212 HD
ATOM     48  H   ASG d 514      24.273  24.035  -1.656  0.00  0.00     0.090 H 
ATOM     49  H   ASG d 514      24.013  21.664  -1.589  0.00  0.00     0.132 H 
ENDROOT
TORSDOF 12
ENDMDL
MODEL 7
REMARK VINA RESULT:      -7.4      2.921      6.046
REMARK  0 active torsions:
REMARK  status: ('A' for Active; 'I' for Inactive)
REMARK       I    between atoms: C6_2  and  C5_28 
REMARK       I    between atoms: C6_2  and  O6_5 
REMARK       I    between atoms: C2_4  and  O2_16 
REMARK       I    between atoms: C5_6  and  C6_24 
REMARK       I    between atoms: C4_7  and  O4_17 
REMARK       I    between atoms: O3_8  and  C3_19 
REMARK       I    between atoms: O3_10  and  C3_18 
REMARK       I    between atoms: O3_10  and  C1_30 
REMARK       I    between atoms: N_11  and  C2_26 
REMARK       I    between atoms: N_11  and  C7_21 
REMARK       I    between atoms: C8_13  and  C7_21 
REMARK       I    between atoms: O4_17  and  S_25 
REMARK       I    between atoms: O1_27  and  C1_29 
ROOT
ATOM      1  O5  GC4 d 516      24.569  22.483  -0.085  0.00  0.00    -0.311 OA
ATOM      2  O6A GC4 d 516      22.827  20.680  -2.831  0.00  0.00    -0.642 OA
ATOM      3  C2  GC4 d 516      26.630  23.557  -0.754  0.00  0.00     0.111 C 
ATOM      4  C5  GC4 d 516      24.268  21.934  -1.385  0.00  0.00     0.147 C 
ATOM      5  O3  GC4 d 516      27.545  21.782  -2.132  0.00  0.00    -0.389 OA
ATOM      6  O6B GC4 d 516      22.264  20.840  -0.716  0.00  0.00    -0.642 OA
ATOM      7  O2  GC4 d 516      25.957  24.806  -0.834  0.00  0.00    -0.388 OA
ATOM      8  C3  GC4 d 516      26.643  22.890  -2.149  0.00  0.00     0.084 C 
ATOM      9  C4  GC4 d 516      25.323  22.141  -2.476  0.00  0.00    -0.034 C 
ATOM     10  C6  GC4 d 516      23.018  21.114  -1.672  0.00  0.00     0.233 C 
ATOM     11  C1  GC4 d 516      25.941  22.643   0.274  0.00  0.00     0.165 C 
ATOM     12  H   GC4 d 516      27.637  23.718  -0.433  0.00  0.00     0.095 H 
ATOM     13  H   GC4 d 516      28.441  22.097  -1.935  0.00  0.00     0.210 HD
ATOM     14  H   GC4 d 516      25.042  24.663  -1.124  0.00  0.00     0.210 HD
ATOM     15  H   GC4 d 516      26.863  23.687  -2.828  0.00  0.00     0.093 H 
ATOM     16  H   GC4 d 516      25.155  21.783  -3.429  0.00  0.00     0.085 H 
ATOM     17  H   GC4 d 516      26.054  23.163   1.203  0.00  0.00     0.134 H 
ATOM     18  C6  ASG d 514      24.781  17.076   2.325  0.00  0.00     0.043 C 
ATOM     19  O6  ASG d 514      23.525  17.020   1.665  0.00  0.00    -0.398 OA
ATOM     20  C4  ASG d 514      25.557  19.307   1.366  0.00  0.00     0.114 C 
ATOM     21  O7  ASG d 514      29.461  22.059   2.006  0.00  0.00    -0.274 OA
ATOM     22  O3  ASG d 514      26.553  21.382   0.578  0.00  0.00    -0.348 OA
ATOM     23  N   ASG d 514      27.569  21.930   3.265  0.00  0.00    -0.349 N 
ATOM     24  OSC ASG d 514      25.206  18.426  -1.341  0.00  0.00    -0.572 OA
ATOM     25  C8  ASG d 514      28.957  23.919   3.352  0.00  0.00    -0.003 C 
ATOM     26  O5  ASG d 514      26.337  18.433   3.498  0.00  0.00    -0.349 OA
ATOM     27  O4  ASG d 514      26.555  18.616   0.611  0.00  0.00    -0.246 OA
ATOM     28  C3  ASG d 514      26.078  20.703   1.752  0.00  0.00     0.094 C 
ATOM     29  C7  ASG d 514      28.670  22.555   2.832  0.00  0.00     0.214 C 
ATOM     30  OSA ASG d 514      27.424  19.019  -1.534  0.00  0.00    -0.572 OA
ATOM     31  OSB ASG d 514      26.803  16.812  -0.838  0.00  0.00    -0.572 OA
ATOM     32  S   ASG d 514      26.512  18.206  -0.787  0.00  0.00     0.252 S 
ATOM     33  C2  ASG d 514      27.207  20.603   2.781  0.00  0.00     0.087 C 
ATOM     34  O1  ASG d 514      27.791  19.571   4.847  0.00  0.00    -0.369 OA
ATOM     35  C5  ASG d 514      25.191  18.505   2.623  0.00  0.00     0.090 C 
ATOM     36  C1  ASG d 514      26.745  19.733   3.953  0.00  0.00     0.151 C 
ATOM     37  H   ASG d 514      24.715  16.534   3.245  0.00  0.00     0.078 H 
ATOM     38  H   ASG d 514      25.518  16.645   1.679  0.00  0.00     0.078 H 
ATOM     39  H   ASG d 514      22.842  17.407   2.236  0.00  0.00     0.209 HD
ATOM     40  H   ASG d 514      24.677  19.416   0.768  0.00  0.00     0.093 H 
ATOM     41  H   ASG d 514      26.991  22.375   3.925  0.00  0.00     0.163 HD
ATOM     42  H   ASG d 514      29.863  24.284   2.916  0.00  0.00     0.040 H 
ATOM     43  H   ASG d 514      29.063  23.880   4.416  0.00  0.00     0.040 H 
ATOM     44  H   ASG d 514      28.150  24.575   3.098  0.00  0.00     0.040 H 
ATOM     45  H   ASG d 514      25.273  21.255   2.189  0.00  0.00     0.091 H 
ATOM     46  H   ASG d 514      28.065  20.161   2.320  0.00  0.00     0.084 H 
ATOM     47  H   ASG d 514      27.499  19.020   5.589  0.00  0.00     0.212 HD
ATOM     48  H   ASG d 514      24.362  19.015   3.068  0.00  0.00     0.090 H 
ATOM     49  H   ASG d 514      25.915  20.220   4.422  0.00  0.00     0.132 H 
ENDROOT
TORSDOF 12
ENDMDL
MODEL 8
REMARK VINA RESULT:      -7.2      2.570      5.521
REMARK  0 active torsions:
REMARK  status: ('A' for Active; 'I' for Inactive)
REMARK       I    between atoms: C6_2  and  C5_28 
REMARK       I    between atoms: C6_2  and  O6_5 
REMARK       I    between atoms: C2_4  and  O2_16 
REMARK       I    between atoms: C5_6  and  C6_24 
REMARK       I    between atoms: C4_7  and  O4_17 
REMARK       I    between atoms: O3_8  and  C3_19 
REMARK       I    between atoms: O3_10  and  C3_18 
REMARK       I    between atoms: O3_10  and  C1_30 
REMARK       I    between atoms: N_11  and  C2_26 
REMARK       I    between atoms: N_11  and  C7_21 
REMARK       I    between atoms: C8_13  and  C7_21 
REMARK       I    between atoms: O4_17  and  S_25 
REMARK       I    between atoms: O1_27  and  C1_29 
ROOT
ATOM      1  O5  GC4 d 516      23.697  24.004  -0.982  0.00  0.00    -0.311 OA
ATOM      2  O6A GC4 d 516      22.196  22.128  -3.820  0.00  0.00    -0.642 OA
ATOM      3  C2  GC4 d 516      25.398  25.594  -1.632  0.00  0.00     0.111 C 
ATOM      4  C5  GC4 d 516      23.425  23.534  -2.318  0.00  0.00     0.147 C 
ATOM      5  O3  GC4 d 516      26.580  24.234  -3.258  0.00  0.00    -0.389 OA
ATOM      6  O6B GC4 d 516      21.784  21.936  -1.673  0.00  0.00    -0.642 OA
ATOM      7  O2  GC4 d 516      24.454  26.652  -1.528  0.00  0.00    -0.388 OA
ATOM      8  C3  GC4 d 516      25.450  25.094  -3.095  0.00  0.00     0.084 C 
ATOM      9  C4  GC4 d 516      24.314  24.093  -3.434  0.00  0.00    -0.034 C 
ATOM     10  C6  GC4 d 516      22.376  22.475  -2.631  0.00  0.00     0.233 C 
ATOM     11  C1  GC4 d 516      25.021  24.445  -0.682  0.00  0.00     0.165 C 
ATOM     12  H   GC4 d 516      26.365  25.955  -1.351  0.00  0.00     0.095 H 
ATOM     13  H   GC4 d 516      27.393  24.730  -3.074  0.00  0.00     0.210 HD
ATOM     14  H   GC4 d 516      23.576  26.327  -1.782  0.00  0.00     0.210 HD
ATOM     15  H   GC4 d 516      25.427  25.985  -3.686  0.00  0.00     0.093 H 
ATOM     16  H   GC4 d 516      24.156  23.803  -4.412  0.00  0.00     0.085 H 
ATOM     17  H   GC4 d 516      25.087  24.880   0.293  0.00  0.00     0.134 H 
ATOM     18  C6  ASG d 514      25.331  18.584   0.762  0.00  0.00     0.043 C 
ATOM     19  O6  ASG d 514      24.071  18.300   0.171  0.00  0.00    -0.398 OA
ATOM     20  C4  ASG d 514      25.498  21.019   0.030  0.00  0.00     0.114 C 
ATOM     21  O7  ASG d 514      28.710  24.534   0.773  0.00  0.00    -0.274 OA
ATOM     22  O3  ASG d 514      25.927  23.339  -0.563  0.00  0.00    -0.348 OA
ATOM     23  N   ASG d 514      27.005  23.836   2.110  0.00  0.00    -0.349 N 
ATOM     24  OSC ASG d 514      25.139  20.359  -2.738  0.00  0.00    -0.572 OA
ATOM     25  C8  ASG d 514      27.905  26.077   2.354  0.00  0.00    -0.003 C 
ATOM     26  O5  ASG d 514      26.626  20.143   1.999  0.00  0.00    -0.349 OA
ATOM     27  O4  ASG d 514      26.563  20.663  -0.854  0.00  0.00    -0.246 OA
ATOM     28  C3  ASG d 514      25.716  22.452   0.548  0.00  0.00     0.094 C 
ATOM     29  C7  ASG d 514      27.896  24.744   1.693  0.00  0.00     0.214 C 
ATOM     30  OSA ASG d 514      27.140  21.474  -2.982  0.00  0.00    -0.572 OA
ATOM     31  OSB ASG d 514      27.098  19.124  -2.516  0.00  0.00    -0.572 OA
ATOM     32  S   ASG d 514      26.501  20.398  -2.286  0.00  0.00     0.252 S 
ATOM     33  C2  ASG d 514      26.917  22.517   1.495  0.00  0.00     0.087 C 
ATOM     34  O1  ASG d 514      27.886  21.448   3.390  0.00  0.00    -0.369 OA
ATOM     35  C5  ASG d 514      25.426  20.030   1.203  0.00  0.00     0.090 C 
ATOM     36  C1  ASG d 514      26.762  21.449   2.580  0.00  0.00     0.151 C 
ATOM     37  H   ASG d 514      25.465  17.951   1.615  0.00  0.00     0.078 H 
ATOM     38  H   ASG d 514      26.092  18.405   0.031  0.00  0.00     0.078 H 
ATOM     39  H   ASG d 514      23.367  18.456   0.820  0.00  0.00     0.209 HD
ATOM     40  H   ASG d 514      24.570  20.978  -0.501  0.00  0.00     0.093 H 
ATOM     41  H   ASG d 514      26.396  24.064   2.849  0.00  0.00     0.163 HD
ATOM     42  H   ASG d 514      28.666  26.687   1.914  0.00  0.00     0.040 H 
ATOM     43  H   ASG d 514      28.103  25.956   3.398  0.00  0.00     0.040 H 
ATOM     44  H   ASG d 514      26.952  26.546   2.223  0.00  0.00     0.040 H 
ATOM     45  H   ASG d 514      24.844  22.752   1.091  0.00  0.00     0.091 H 
ATOM     46  H   ASG d 514      27.813  22.339   0.938  0.00  0.00     0.084 H 
ATOM     47  H   ASG d 514      27.789  20.771   4.078  0.00  0.00     0.212 HD
ATOM     48  H   ASG d 514      24.542  20.283   1.750  0.00  0.00     0.090 H 
ATOM     49  H   ASG d 514      25.884  21.677   3.148  0.00  0.00     0.132 H 
ENDROOT
TORSDOF 12
ENDMDL
MODEL 9
REMARK VINA RESULT:      -7.0      1.978      5.256
REMARK  0 active torsions:
REMARK  status: ('A' for Active; 'I' for Inactive)
REMARK       I    between atoms: C6_2  and  C5_28 
REMARK       I    between atoms: C6_2  and  O6_5 
REMARK       I    between atoms: C2_4  and  O2_16 
REMARK       I    between atoms: C5_6  and  C6_24 
REMARK       I    between atoms: C4_7  and  O4_17 
REMARK       I    between atoms: O3_8  and  C3_19 
REMARK       I    between atoms: O3_10  and  C3_18 
REMARK       I    between atoms: O3_10  and  C1_30 
REMARK       I    between atoms: N_11  and  C2_26 
REMARK       I    between atoms: N_11  and  C7_21 
REMARK       I    between atoms: C8_13  and  C7_21 
REMARK       I    between atoms: O4_17  and  S_25 
REMARK       I    between atoms: O1_27  and  C1_29 
ROOT
ATOM      1  O5  GC4 d 516      26.549  24.091   2.101  0.00  0.00    -0.311 OA
ATOM      2  O6A GC4 d 516      27.516  27.542   1.109  0.00  0.00    -0.642 OA
ATOM      3  C2  GC4 d 516      28.343  22.802   3.084  0.00  0.00     0.111 C 
ATOM      4  C5  GC4 d 516      27.336  25.279   1.876  0.00  0.00     0.147 C 
ATOM      5  O3  GC4 d 516      30.129  23.428   1.565  0.00  0.00    -0.389 OA
ATOM      6  O6B GC4 d 516      25.583  26.531   0.866  0.00  0.00    -0.642 OA
ATOM      7  O2  GC4 d 516      27.828  23.069   4.382  0.00  0.00    -0.388 OA
ATOM      8  C3  GC4 d 516      29.425  23.850   2.735  0.00  0.00     0.084 C 
ATOM      9  C4  GC4 d 516      28.829  25.184   2.207  0.00  0.00    -0.034 C 
ATOM     10  C6  GC4 d 516      26.766  26.551   1.263  0.00  0.00     0.233 C 
ATOM     11  C1  GC4 d 516      27.210  22.827   2.043  0.00  0.00     0.165 C 
ATOM     12  H   GC4 d 516      28.783  21.827   3.073  0.00  0.00     0.095 H 
ATOM     13  H   GC4 d 516      30.569  22.581   1.741  0.00  0.00     0.210 HD
ATOM     14  H   GC4 d 516      27.428  23.953   4.395  0.00  0.00     0.210 HD
ATOM     15  H   GC4 d 516      29.995  23.961   3.633  0.00  0.00     0.093 H 
ATOM     16  H   GC4 d 516      29.439  26.006   2.080  0.00  0.00     0.085 H 
ATOM     17  H   GC4 d 516      26.567  22.025   2.338  0.00  0.00     0.134 H 
ATOM     18  C6  ASG d 514      25.439  23.539  -3.692  0.00  0.00     0.043 C 
ATOM     19  O6  ASG d 514      25.065  24.893  -3.481  0.00  0.00    -0.398 OA
ATOM     20  C4  ASG d 514      26.461  23.118  -1.395  0.00  0.00     0.114 C 
ATOM     21  O7  ASG d 514      28.411  19.272   0.757  0.00  0.00    -0.274 OA
ATOM     22  O3  ASG d 514      27.523  22.461   0.693  0.00  0.00    -0.348 OA
ATOM     23  N   ASG d 514      26.218  19.847   0.548  0.00  0.00    -0.349 N 
ATOM     24  OSC ASG d 514      28.264  25.335  -1.636  0.00  0.00    -0.572 OA
ATOM     25  C8  ASG d 514      26.921  18.351   2.326  0.00  0.00    -0.003 C 
ATOM     26  O5  ASG d 514      25.526  21.349  -2.778  0.00  0.00    -0.349 OA
ATOM     27  O4  ASG d 514      27.752  23.040  -2.002  0.00  0.00    -0.246 OA
ATOM     28  C3  ASG d 514      26.409  22.184  -0.173  0.00  0.00     0.094 C 
ATOM     29  C7  ASG d 514      27.226  19.197   1.140  0.00  0.00     0.214 C 
ATOM     30  OSA ASG d 514      29.864  23.726  -1.236  0.00  0.00    -0.572 OA
ATOM     31  OSB ASG d 514      29.136  24.201  -3.469  0.00  0.00    -0.572 OA
ATOM     32  S   ASG d 514      28.774  24.075  -2.096  0.00  0.00     0.252 S 
ATOM     33  C2  ASG d 514      26.442  20.715  -0.602  0.00  0.00     0.087 C 
ATOM     34  O1  ASG d 514      25.436  19.166  -2.106  0.00  0.00    -0.369 OA
ATOM     35  C5  ASG d 514      25.372  22.736  -2.408  0.00  0.00     0.090 C 
ATOM     36  C1  ASG d 514      25.356  20.473  -1.653  0.00  0.00     0.151 C 
ATOM     37  H   ASG d 514      24.776  23.103  -4.410  0.00  0.00     0.078 H 
ATOM     38  H   ASG d 514      26.449  23.522  -4.045  0.00  0.00     0.078 H 
ATOM     39  H   ASG d 514      24.150  24.929  -3.160  0.00  0.00     0.209 HD
ATOM     40  H   ASG d 514      26.283  24.123  -1.074  0.00  0.00     0.093 H 
ATOM     41  H   ASG d 514      25.304  19.737   0.896  0.00  0.00     0.163 HD
ATOM     42  H   ASG d 514      27.822  17.901   2.684  0.00  0.00     0.040 H 
ATOM     43  H   ASG d 514      26.225  17.587   2.049  0.00  0.00     0.040 H 
ATOM     44  H   ASG d 514      26.495  18.959   3.097  0.00  0.00     0.040 H 
ATOM     45  H   ASG d 514      25.492  22.361   0.349  0.00  0.00     0.091 H 
ATOM     46  H   ASG d 514      27.403  20.492  -1.017  0.00  0.00     0.084 H 
ATOM     47  H   ASG d 514      24.749  19.011  -2.772  0.00  0.00     0.212 HD
ATOM     48  H   ASG d 514      24.437  22.934  -1.926  0.00  0.00     0.090 H 
ATOM     49  H   ASG d 514      24.406  20.660  -1.199  0.00  0.00     0.132 H 
ENDROOT
TORSDOF 12
ENDMDL
MODEL 10
REMARK VINA RESULT:      -7.0      2.767      5.819
REMARK  0 active torsions:
REMARK  status: ('A' for Active; 'I' for Inactive)
REMARK       I    between atoms: C6_2  and  C5_28 
REMARK       I    between atoms: C6_2  and  O6_5 
REMARK       I    between atoms: C2_4  and  O2_16 
REMARK       I    between atoms: C5_6  and  C6_24 
REMARK       I    between atoms: C4_7  and  O4_17 
REMARK       I    between atoms: O3_8  and  C3_19 
REMARK       I    between atoms: O3_10  and  C3_18 
REMARK       I    between atoms: O3_10  and  C1_30 
REMARK       I    between atoms: N_11  and  C2_26 
REMARK       I    between atoms: N_11  and  C7_21 
REMARK       I    between atoms: C8_13  and  C7_21 
REMARK       I    between atoms: O4_17  and  S_25 
REMARK       I    between atoms: O1_27  and  C1_29 
ROOT
ATOM      1  O5  GC4 d 516      27.087  20.791  -1.816  0.00  0.00    -0.311 OA
ATOM      2  O6A GC4 d 516      25.105  19.378  -4.628  0.00  0.00    -0.642 OA
ATOM      3  C2  GC4 d 516      26.703  19.708   0.312  0.00  0.00     0.111 C 
ATOM      4  C5  GC4 d 516      26.159  19.974  -2.560  0.00  0.00     0.147 C 
ATOM      5  O3  GC4 d 516      24.287  19.508   0.197  0.00  0.00    -0.389 OA
ATOM      6  O6B GC4 d 516      26.504  21.069  -4.644  0.00  0.00    -0.642 OA
ATOM      7  O2  GC4 d 516      27.900  18.959   0.150  0.00  0.00    -0.388 OA
ATOM      8  C3  GC4 d 516      25.505  18.881  -0.211  0.00  0.00     0.084 C 
ATOM      9  C4  GC4 d 516      25.334  18.967  -1.752  0.00  0.00    -0.034 C 
ATOM     10  C6  GC4 d 516      25.923  20.134  -4.055  0.00  0.00     0.233 C 
ATOM     11  C1  GC4 d 516      26.803  21.047  -0.441  0.00  0.00     0.165 C 
ATOM     12  H   GC4 d 516      26.556  19.921   1.349  0.00  0.00     0.095 H 
ATOM     13  H   GC4 d 516      24.244  19.531   1.166  0.00  0.00     0.210 HD
ATOM     14  H   GC4 d 516      28.036  18.766  -0.790  0.00  0.00     0.210 HD
ATOM     15  H   GC4 d 516      25.685  17.889   0.146  0.00  0.00     0.093 H 
ATOM     16  H   GC4 d 516      24.665  18.346  -2.232  0.00  0.00     0.085 H 
ATOM     17  H   GC4 d 516      27.607  21.559   0.045  0.00  0.00     0.134 H 
ATOM     18  C6  ASG d 514      24.063  25.709  -3.140  0.00  0.00     0.043 C 
ATOM     19  O6  ASG d 514      24.229  25.148  -4.434  0.00  0.00    -0.398 OA
ATOM     20  C4  ASG d 514      24.962  23.733  -1.805  0.00  0.00     0.114 C 
ATOM     21  O7  ASG d 514      25.715  22.915   2.884  0.00  0.00    -0.274 OA
ATOM     22  O3  ASG d 514      25.733  21.989  -0.294  0.00  0.00    -0.348 OA
ATOM     23  N   ASG d 514      27.037  24.000   1.382  0.00  0.00    -0.349 N 
ATOM     24  OSC ASG d 514      23.112  21.900  -3.006  0.00  0.00    -0.572 OA
ATOM     25  C8  ASG d 514      28.007  23.054   3.396  0.00  0.00    -0.003 C 
ATOM     26  O5  ASG d 514      25.012  26.022  -0.986  0.00  0.00    -0.349 OA
ATOM     27  O4  ASG d 514      23.643  23.487  -1.313  0.00  0.00    -0.246 OA
ATOM     28  C3  ASG d 514      25.993  23.332  -0.735  0.00  0.00     0.094 C 
ATOM     29  C7  ASG d 514      26.834  23.330   2.522  0.00  0.00     0.214 C 
ATOM     30  OSA ASG d 514      22.528  21.479  -0.817  0.00  0.00    -0.572 OA
ATOM     31  OSB ASG d 514      21.453  23.225  -2.057  0.00  0.00    -0.572 OA
ATOM     32  S   ASG d 514      22.663  22.519  -1.792  0.00  0.00     0.252 S 
ATOM     33  C2  ASG d 514      25.944  24.286   0.461  0.00  0.00     0.087 C 
ATOM     34  O1  ASG d 514      25.924  26.599   1.030  0.00  0.00    -0.369 OA
ATOM     35  C5  ASG d 514      25.124  25.214  -2.177  0.00  0.00     0.090 C 
ATOM     36  C1  ASG d 514      26.052  25.729  -0.040  0.00  0.00     0.151 C 
ATOM     37  H   ASG d 514      24.130  26.775  -3.212  0.00  0.00     0.078 H 
ATOM     38  H   ASG d 514      23.106  25.411  -2.766  0.00  0.00     0.078 H 
ATOM     39  H   ASG d 514      25.093  25.408  -4.790  0.00  0.00     0.209 HD
ATOM     40  H   ASG d 514      25.125  23.146  -2.684  0.00  0.00     0.093 H 
ATOM     41  H   ASG d 514      27.946  24.308   1.159  0.00  0.00     0.163 HD
ATOM     42  H   ASG d 514      27.686  22.514   4.262  0.00  0.00     0.040 H 
ATOM     43  H   ASG d 514      28.453  23.978   3.695  0.00  0.00     0.040 H 
ATOM     44  H   ASG d 514      28.723  22.469   2.857  0.00  0.00     0.040 H 
ATOM     45  H   ASG d 514      26.969  23.388  -1.169  0.00  0.00     0.091 H 
ATOM     46  H   ASG d 514      25.017  24.152   0.979  0.00  0.00     0.084 H 
ATOM     47  H   ASG d 514      25.992  27.513   0.713  0.00  0.00     0.212 HD
ATOM     48  H   ASG d 514      26.082  25.299  -2.646  0.00  0.00     0.090 H 
ATOM     49  H   ASG d 514      27.004  25.845  -0.513  0.00  0.00     0.132 H 
ENDROOT
TORSDOF 12
ENDMDL
MODEL 11
REMARK VINA RESULT:      -7.0      2.232      5.992
REMARK  0 active torsions:
REMARK  status: ('A' for Active; 'I' for Inactive)
REMARK       I    between atoms: C6_2  and  C5_28 
REMARK       I    between atoms: C6_2  and  O6_5 
REMARK       I    between atoms: C2_4  and  O2_16 
REMARK       I    between atoms: C5_6  and  C6_24 
REMARK       I    between atoms: C4_7  and  O4_17 
REMARK       I    between atoms: O3_8  and  C3_19 
REMARK       I    between atoms: O3_10  and  C3_18 
REMARK       I    between atoms: O3_10  and  C1_30 
REMARK       I    between atoms: N_11  and  C2_26 
REMARK       I    between atoms: N_11  and  C7_21 
REMARK       I    between atoms: C8_13  and  C7_21 
REMARK       I    between atoms: O4_17  and  S_25 
REMARK       I    between atoms: O1_27  and  C1_29 
ROOT
ATOM      1  O5  GC4 d 516      27.133  19.957  -0.434  0.00  0.00    -0.311 OA
ATOM      2  O6A GC4 d 516      25.162  18.223  -3.068  0.00  0.00    -0.642 OA
ATOM      3  C2  GC4 d 516      26.014  20.109   1.705  0.00  0.00     0.111 C 
ATOM      4  C5  GC4 d 516      26.060  19.265  -1.105  0.00  0.00     0.147 C 
ATOM      5  O3  GC4 d 516      23.796  20.707   0.923  0.00  0.00    -0.389 OA
ATOM      6  O6B GC4 d 516      27.143  19.156  -3.221  0.00  0.00    -0.642 OA
ATOM      7  O2  GC4 d 516      26.776  19.009   2.185  0.00  0.00    -0.388 OA
ATOM      8  C3  GC4 d 516      24.665  19.595   1.150  0.00  0.00     0.084 C 
ATOM      9  C4  GC4 d 516      24.773  19.055  -0.302  0.00  0.00    -0.034 C 
ATOM     10  C6  GC4 d 516      26.136  18.827  -2.561  0.00  0.00     0.233 C 
ATOM     11  C1  GC4 d 516      26.794  20.864   0.614  0.00  0.00     0.165 C 
ATOM     12  H   GC4 d 516      25.826  20.787   2.510  0.00  0.00     0.095 H 
ATOM     13  H   GC4 d 516      23.628  21.162   1.764  0.00  0.00     0.210 HD
ATOM     14  H   GC4 d 516      26.948  18.393   1.457  0.00  0.00     0.210 HD
ATOM     15  H   GC4 d 516      24.343  18.861   1.858  0.00  0.00     0.093 H 
ATOM     16  H   GC4 d 516      23.977  18.553  -0.726  0.00  0.00     0.085 H 
ATOM     17  H   GC4 d 516      27.661  21.233   1.122  0.00  0.00     0.134 H 
ATOM     18  C6  ASG d 514      26.773  24.507  -4.209  0.00  0.00     0.043 C 
ATOM     19  O6  ASG d 514      26.864  23.419  -5.117  0.00  0.00    -0.398 OA
ATOM     20  C4  ASG d 514      26.521  23.135  -2.076  0.00  0.00     0.114 C 
ATOM     21  O7  ASG d 514      26.159  24.238   2.601  0.00  0.00    -0.274 OA
ATOM     22  O3  ASG d 514      26.230  22.077   0.096  0.00  0.00    -0.348 OA
ATOM     23  N   ASG d 514      28.023  24.044   1.308  0.00  0.00    -0.349 N 
ATOM     24  OSC ASG d 514      24.252  21.707  -3.096  0.00  0.00    -0.572 OA
ATOM     25  C8  ASG d 514      28.183  23.803   3.718  0.00  0.00    -0.003 C 
ATOM     26  O5  ASG d 514      27.443  25.385  -2.107  0.00  0.00    -0.349 OA
ATOM     27  O4  ASG d 514      25.170  23.589  -1.964  0.00  0.00    -0.246 OA
ATOM     28  C3  ASG d 514      27.109  22.918  -0.670  0.00  0.00     0.094 C 
ATOM     29  C7  ASG d 514      27.387  24.049   2.486  0.00  0.00     0.214 C 
ATOM     30  OSA ASG d 514      23.235  22.505  -1.189  0.00  0.00    -0.572 OA
ATOM     31  OSB ASG d 514      23.217  23.786  -3.214  0.00  0.00    -0.572 OA
ATOM     32  S   ASG d 514      23.948  22.904  -2.365  0.00  0.00     0.252 S 
ATOM     33  C2  ASG d 514      27.308  24.251   0.055  0.00  0.00     0.087 C 
ATOM     34  O1  ASG d 514      28.213  26.436  -0.228  0.00  0.00    -0.369 OA
ATOM     35  C5  ASG d 514      27.362  24.155  -2.857  0.00  0.00     0.090 C 
ATOM     36  C1  ASG d 514      28.103  25.201  -0.845  0.00  0.00     0.151 C 
ATOM     37  H   ASG d 514      27.306  25.343  -4.613  0.00  0.00     0.078 H 
ATOM     38  H   ASG d 514      25.739  24.744  -4.072  0.00  0.00     0.078 H 
ATOM     39  H   ASG d 514      27.796  23.190  -5.255  0.00  0.00     0.209 HD
ATOM     40  H   ASG d 514      26.537  22.208  -2.608  0.00  0.00     0.093 H 
ATOM     41  H   ASG d 514      28.996  23.897   1.287  0.00  0.00     0.163 HD
ATOM     42  H   ASG d 514      27.538  23.838   4.571  0.00  0.00     0.040 H 
ATOM     43  H   ASG d 514      28.939  24.555   3.810  0.00  0.00     0.040 H 
ATOM     44  H   ASG d 514      28.643  22.839   3.658  0.00  0.00     0.040 H 
ATOM     45  H   ASG d 514      28.064  22.446  -0.773  0.00  0.00     0.091 H 
ATOM     46  H   ASG d 514      26.351  24.678   0.273  0.00  0.00     0.084 H 
ATOM     47  H   ASG d 514      28.716  27.038  -0.797  0.00  0.00     0.212 HD
ATOM     48  H   ASG d 514      28.318  23.698  -3.006  0.00  0.00     0.090 H 
ATOM     49  H   ASG d 514      29.069  24.771  -1.010  0.00  0.00     0.132 H 
ENDROOT
TORSDOF 12
ENDMDL
MODEL 12
REMARK VINA RESULT:      -6.9      2.855      6.132
REMARK  0 active torsions:
REMARK  status: ('A' for Active; 'I' for Inactive)
REMARK       I    between atoms: C6_2  and  C5_28 
REMARK       I    between atoms: C6_2  and  O6_5 
REMARK       I    between atoms: C2_4  and  O2_16 
REMARK       I    between atoms: C5_6  and  C6_24 
REMARK       I    between atoms: C4_7  and  O4_17 
REMARK       I    between atoms: O3_8  and  C3_19 
REMARK       I    between atoms: O3_10  and  C3_18 
REMARK       I    between atoms: O3_10  and  C1_30 
REMARK       I    between atoms: N_11  and  C2_26 
REMARK       I    between atoms: N_11  and  C7_21 
REMARK       I    between atoms: C8_13  and  C7_21 
REMARK       I    between atoms: O4_17  and  S_25 
REMARK       I    between atoms: O1_27  and  C1_29 
ROOT
ATOM      1  O5  GC4 d 516      24.523  20.652   1.417  0.00  0.00    -0.311 OA
ATOM      2  O6A GC4 d 516      28.081  21.401   2.197  0.00  0.00    -0.642 OA
ATOM      3  C2  GC4 d 516      24.161  18.476   0.426  0.00  0.00     0.111 C 
ATOM      4  C5  GC4 d 516      25.955  20.519   1.529  0.00  0.00     0.147 C 
ATOM      5  O3  GC4 d 516      26.021  18.462  -1.132  0.00  0.00    -0.389 OA
ATOM      6  O6B GC4 d 516      26.316  22.678   2.463  0.00  0.00    -0.642 OA
ATOM      7  O2  GC4 d 516      23.750  17.966   1.688  0.00  0.00    -0.388 OA
ATOM      8  C3  GC4 d 516      25.671  18.202   0.228  0.00  0.00     0.084 C 
ATOM      9  C4  GC4 d 516      26.574  19.252   0.931  0.00  0.00    -0.034 C 
ATOM     10  C6  GC4 d 516      26.846  21.598   2.129  0.00  0.00     0.233 C 
ATOM     11  C1  GC4 d 516      23.870  19.984   0.338  0.00  0.00     0.165 C 
ATOM     12  H   GC4 d 516      23.612  17.985  -0.350  0.00  0.00     0.095 H 
ATOM     13  H   GC4 d 516      25.524  17.865  -1.714  0.00  0.00     0.210 HD
ATOM     14  H   GC4 d 516      24.246  18.410   2.393  0.00  0.00     0.210 HD
ATOM     15  H   GC4 d 516      25.814  17.205   0.587  0.00  0.00     0.093 H 
ATOM     16  H   GC4 d 516      27.592  19.096   0.995  0.00  0.00     0.085 H 
ATOM     17  H   GC4 d 516      22.804  20.049   0.412  0.00  0.00     0.134 H 
ATOM     18  C6  ASG d 514      25.080  25.375  -2.114  0.00  0.00     0.043 C 
ATOM     19  O6  ASG d 514      25.914  25.758  -1.031  0.00  0.00    -0.398 OA
ATOM     20  C4  ASG d 514      24.650  22.976  -1.368  0.00  0.00     0.114 C 
ATOM     21  O7  ASG d 514      21.994  19.347  -3.099  0.00  0.00    -0.274 OA
ATOM     22  O3  ASG d 514      24.109  20.649  -0.911  0.00  0.00    -0.348 OA
ATOM     23  N   ASG d 514      21.358  21.101  -1.795  0.00  0.00    -0.349 N 
ATOM     24  OSC ASG d 514      27.451  22.375  -1.211  0.00  0.00    -0.572 OA
ATOM     25  C8  ASG d 514      20.038  19.065  -1.823  0.00  0.00    -0.003 C 
ATOM     26  O5  ASG d 514      23.114  24.223  -2.781  0.00  0.00    -0.349 OA
ATOM     27  O4  ASG d 514      25.434  22.511  -2.469  0.00  0.00    -0.246 OA
ATOM     28  C3  ASG d 514      23.537  21.958  -1.062  0.00  0.00     0.094 C 
ATOM     29  C7  ASG d 514      21.204  19.866  -2.285  0.00  0.00     0.214 C 
ATOM     30  OSA ASG d 514      26.889  20.677  -2.664  0.00  0.00    -0.572 OA
ATOM     31  OSB ASG d 514      27.499  22.842  -3.489  0.00  0.00    -0.572 OA
ATOM     32  S   ASG d 514      26.831  22.095  -2.475  0.00  0.00     0.252 S 
ATOM     33  C2  ASG d 514      22.490  21.938  -2.178  0.00  0.00     0.087 C 
ATOM     34  O1  ASG d 514      21.125  23.363  -3.512  0.00  0.00    -0.369 OA
ATOM     35  C5  ASG d 514      24.046  24.352  -1.688  0.00  0.00     0.090 C 
ATOM     36  C1  ASG d 514      22.010  23.366  -2.447  0.00  0.00     0.151 C 
ATOM     37  H   ASG d 514      24.576  26.242  -2.489  0.00  0.00     0.078 H 
ATOM     38  H   ASG d 514      25.694  24.934  -2.871  0.00  0.00     0.078 H 
ATOM     39  H   ASG d 514      25.374  26.161  -0.333  0.00  0.00     0.209 HD
ATOM     40  H   ASG d 514      25.278  23.076  -0.507  0.00  0.00     0.093 H 
ATOM     41  H   ASG d 514      20.693  21.455  -1.161  0.00  0.00     0.163 HD
ATOM     42  H   ASG d 514      20.053  18.107  -2.301  0.00  0.00     0.040 H 
ATOM     43  H   ASG d 514      19.133  19.576  -2.075  0.00  0.00     0.040 H 
ATOM     44  H   ASG d 514      20.092  18.935  -0.763  0.00  0.00     0.040 H 
ATOM     45  H   ASG d 514      23.054  22.250  -0.153  0.00  0.00     0.091 H 
ATOM     46  H   ASG d 514      22.930  21.532  -3.065  0.00  0.00     0.084 H 
ATOM     47  H   ASG d 514      20.821  24.267  -3.683  0.00  0.00     0.212 HD
ATOM     48  H   ASG d 514      23.581  24.688  -0.784  0.00  0.00     0.090 H 
ATOM     49  H   ASG d 514      21.536  23.730  -1.559  0.00  0.00     0.132 H 
ENDROOT
TORSDOF 12
ENDMDL
MODEL 13
REMARK VINA RESULT:      -6.9      2.056      3.179
REMARK  0 active torsions:
REMARK  status: ('A' for Active; 'I' for Inactive)
REMARK       I    between atoms: C6_2  and  C5_28 
REMARK       I    between atoms: C6_2  and  O6_5 
REMARK       I    between atoms: C2_4  and  O2_16 
REMARK       I    between atoms: C5_6  and  C6_24 
REMARK       I    between atoms: C4_7  and  O4_17 
REMARK       I    between atoms: O3_8  and  C3_19 
REMARK       I    between atoms: O3_10  and  C3_18 
REMARK       I    between atoms: O3_10  and  C1_30 
REMARK       I    between atoms: N_11  and  C2_26 
REMARK       I    between atoms: N_11  and  C7_21 
REMARK       I    between atoms: C8_13  and  C7_21 
REMARK       I    between atoms: O4_17  and  S_25 
REMARK       I    between atoms: O1_27  and  C1_29 
ROOT
ATOM      1  O5  GC4 d 516      26.379  21.288  -3.346  0.00  0.00    -0.311 OA
ATOM      2  O6A GC4 d 516      26.437  23.950  -5.941  0.00  0.00    -0.642 OA
ATOM      3  C2  GC4 d 516      24.216  20.253  -3.034  0.00  0.00     0.111 C 
ATOM      4  C5  GC4 d 516      25.949  22.207  -4.371  0.00  0.00     0.147 C 
ATOM      5  O3  GC4 d 516      22.835  22.247  -3.097  0.00  0.00    -0.389 OA
ATOM      6  O6B GC4 d 516      28.067  23.256  -4.645  0.00  0.00    -0.642 OA
ATOM      7  O2  GC4 d 516      24.627  19.147  -3.827  0.00  0.00    -0.388 OA
ATOM      8  C3  GC4 d 516      23.482  21.281  -3.927  0.00  0.00     0.084 C 
ATOM      9  C4  GC4 d 516      24.452  22.215  -4.700  0.00  0.00    -0.034 C 
ATOM     10  C6  GC4 d 516      26.889  23.191  -5.053  0.00  0.00     0.233 C 
ATOM     11  C1  GC4 d 516      25.431  20.902  -2.350  0.00  0.00     0.165 C 
ATOM     12  H   GC4 d 516      23.548  19.912  -2.272  0.00  0.00     0.095 H 
ATOM     13  H   GC4 d 516      22.178  21.804  -2.537  0.00  0.00     0.210 HD
ATOM     14  H   GC4 d 516      25.233  19.454  -4.519  0.00  0.00     0.210 HD
ATOM     15  H   GC4 d 516      22.858  20.689  -4.564  0.00  0.00     0.093 H 
ATOM     16  H   GC4 d 516      24.090  22.841  -5.435  0.00  0.00     0.085 H 
ATOM     17  H   GC4 d 516      25.812  20.134  -1.711  0.00  0.00     0.134 H 
ATOM     18  C6  ASG d 514      27.980  25.752   0.204  0.00  0.00     0.043 C 
ATOM     19  O6  ASG d 514      28.656  26.112  -0.992  0.00  0.00    -0.398 OA
ATOM     20  C4  ASG d 514      26.625  23.817  -0.754  0.00  0.00     0.114 C 
ATOM     21  O7  ASG d 514      23.530  20.635   1.120  0.00  0.00    -0.274 OA
ATOM     22  O3  ASG d 514      25.195  21.962  -1.413  0.00  0.00    -0.348 OA
ATOM     23  N   ASG d 514      25.806  20.585   1.094  0.00  0.00    -0.349 N 
ATOM     24  OSC ASG d 514      25.480  25.454  -2.813  0.00  0.00    -0.572 OA
ATOM     25  C8  ASG d 514      24.546  18.528   1.361  0.00  0.00    -0.003 C 
ATOM     26  O5  ASG d 514      27.236  23.977   1.594  0.00  0.00    -0.349 OA
ATOM     27  O4  ASG d 514      25.435  24.593  -0.594  0.00  0.00    -0.246 OA
ATOM     28  C3  ASG d 514      26.296  22.326  -0.563  0.00  0.00     0.094 C 
ATOM     29  C7  ASG d 514      24.604  20.004   1.186  0.00  0.00     0.214 C 
ATOM     30  OSA ASG d 514      23.490  24.729  -1.906  0.00  0.00    -0.572 OA
ATOM     31  OSB ASG d 514      24.569  26.700  -1.073  0.00  0.00    -0.572 OA
ATOM     32  S   ASG d 514      24.726  25.382  -1.594  0.00  0.00     0.252 S 
ATOM     33  C2  ASG d 514      25.944  22.023   0.895  0.00  0.00     0.087 C 
ATOM     34  O1  ASG d 514      26.693  22.371   3.129  0.00  0.00    -0.369 OA
ATOM     35  C5  ASG d 514      27.692  24.265   0.255  0.00  0.00     0.090 C 
ATOM     36  C1  ASG d 514      27.048  22.568   1.804  0.00  0.00     0.151 C 
ATOM     37  H   ASG d 514      28.590  26.017   1.042  0.00  0.00     0.078 H 
ATOM     38  H   ASG d 514      27.046  26.274   0.231  0.00  0.00     0.078 H 
ATOM     39  H   ASG d 514      29.507  25.648  -1.034  0.00  0.00     0.209 HD
ATOM     40  H   ASG d 514      27.011  23.966  -1.741  0.00  0.00     0.093 H 
ATOM     41  H   ASG d 514      26.616  20.030   1.162  0.00  0.00     0.163 HD
ATOM     42  H   ASG d 514      23.525  18.215   1.418  0.00  0.00     0.040 H 
ATOM     43  H   ASG d 514      25.054  18.256   2.263  0.00  0.00     0.040 H 
ATOM     44  H   ASG d 514      25.019  18.051   0.528  0.00  0.00     0.040 H 
ATOM     45  H   ASG d 514      27.161  21.753  -0.826  0.00  0.00     0.091 H 
ATOM     46  H   ASG d 514      25.013  22.492   1.136  0.00  0.00     0.084 H 
ATOM     47  H   ASG d 514      27.392  22.717   3.705  0.00  0.00     0.212 HD
ATOM     48  H   ASG d 514      28.584  23.732  -0.002  0.00  0.00     0.090 H 
ATOM     49  H   ASG d 514      27.955  22.051   1.572  0.00  0.00     0.132 H 
ENDROOT
TORSDOF 12
ENDMDL
MODEL 14
REMARK VINA RESULT:      -6.8      2.380      6.684
REMARK  0 active torsions:
REMARK  status: ('A' for Active; 'I' for Inactive)
REMARK       I    between atoms: C6_2  and  C5_28 
REMARK       I    between atoms: C6_2  and  O6_5 
REMARK       I    between atoms: C2_4  and  O2_16 
REMARK       I    between atoms: C5_6  and  C6_24 
REMARK       I    between atoms: C4_7  and  O4_17 
REMARK       I    between atoms: O3_8  and  C3_19 
REMARK       I    between atoms: O3_10  and  C3_18 
REMARK       I    between atoms: O3_10  and  C1_30 
REMARK       I    between atoms: N_11  and  C2_26 
REMARK       I    between atoms: N_11  and  C7_21 
REMARK       I    between atoms: C8_13  and  C7_21 
REMARK       I    between atoms: O4_17  and  S_25 
REMARK       I    between atoms: O1_27  and  C1_29 
ROOT
ATOM      1  O5  GC4 d 516      27.925  22.899  -0.378  0.00  0.00    -0.311 OA
ATOM      2  O6A GC4 d 516      24.726  21.890   1.225  0.00  0.00    -0.642 OA
ATOM      3  C2  GC4 d 516      29.079  24.698   0.753  0.00  0.00     0.111 C 
ATOM      4  C5  GC4 d 516      26.806  22.856   0.530  0.00  0.00     0.147 C 
ATOM      5  O3  GC4 d 516      27.174  26.129   1.216  0.00  0.00    -0.389 OA
ATOM      6  O6B GC4 d 516      25.649  21.116  -0.609  0.00  0.00    -0.642 OA
ATOM      7  O2  GC4 d 516      29.951  23.758   1.366  0.00  0.00    -0.388 OA
ATOM      8  C3  GC4 d 516      27.895  24.996   1.703  0.00  0.00     0.084 C 
ATOM      9  C4  GC4 d 516      26.772  23.926   1.626  0.00  0.00    -0.034 C 
ATOM     10  C6  GC4 d 516      25.657  21.867   0.388  0.00  0.00     0.233 C 
ATOM     11  C1  GC4 d 516      28.567  24.155  -0.593  0.00  0.00     0.165 C 
ATOM     12  H   GC4 d 516      29.613  25.605   0.565  0.00  0.00     0.095 H 
ATOM     13  H   GC4 d 516      27.759  26.903   1.204  0.00  0.00     0.210 HD
ATOM     14  H   GC4 d 516      29.469  22.934   1.537  0.00  0.00     0.210 HD
ATOM     15  H   GC4 d 516      28.340  25.081   2.672  0.00  0.00     0.093 H 
ATOM     16  H   GC4 d 516      26.003  23.935   2.314  0.00  0.00     0.085 H 
ATOM     17  H   GC4 d 516      29.452  24.058  -1.187  0.00  0.00     0.134 H 
ATOM     18  C6  ASG d 514      24.373  24.169  -4.945  0.00  0.00     0.043 C 
ATOM     19  O6  ASG d 514      23.717  23.027  -4.413  0.00  0.00    -0.398 OA
ATOM     20  C4  ASG d 514      26.072  24.477  -3.070  0.00  0.00     0.114 C 
ATOM     21  O7  ASG d 514      29.712  27.543  -2.310  0.00  0.00    -0.274 OA
ATOM     22  O3  ASG d 514      27.767  25.019  -1.412  0.00  0.00    -0.348 OA
ATOM     23  N   ASG d 514      29.675  25.629  -3.543  0.00  0.00    -0.349 N 
ATOM     24  OSC ASG d 514      24.036  24.591  -1.053  0.00  0.00    -0.572 OA
ATOM     25  C8  ASG d 514      31.780  26.492  -2.695  0.00  0.00    -0.003 C 
ATOM     26  O5  ASG d 514      26.450  25.246  -5.346  0.00  0.00    -0.349 OA
ATOM     27  O4  ASG d 514      25.397  25.675  -2.678  0.00  0.00    -0.246 OA
ATOM     28  C3  ASG d 514      27.577  24.615  -2.778  0.00  0.00     0.094 C 
ATOM     29  C7  ASG d 514      30.303  26.585  -2.848  0.00  0.00     0.214 C 
ATOM     30  OSA ASG d 514      25.023  26.613  -0.557  0.00  0.00    -0.572 OA
ATOM     31  OSB ASG d 514      23.268  26.474  -2.183  0.00  0.00    -0.572 OA
ATOM     32  S   ASG d 514      24.420  25.856  -1.612  0.00  0.00     0.252 S 
ATOM     33  C2  ASG d 514      28.227  25.637  -3.714  0.00  0.00     0.087 C 
ATOM     34  O1  ASG d 514      28.390  26.260  -6.007  0.00  0.00    -0.369 OA
ATOM     35  C5  ASG d 514      25.839  24.199  -4.563  0.00  0.00     0.090 C 
ATOM     36  C1  ASG d 514      27.874  25.291  -5.162  0.00  0.00     0.151 C 
ATOM     37  H   ASG d 514      24.292  24.151  -6.012  0.00  0.00     0.078 H 
ATOM     38  H   ASG d 514      23.904  25.042  -4.542  0.00  0.00     0.078 H 
ATOM     39  H   ASG d 514      24.129  22.223  -4.768  0.00  0.00     0.209 HD
ATOM     40  H   ASG d 514      25.682  23.654  -2.510  0.00  0.00     0.093 H 
ATOM     41  H   ASG d 514      30.203  24.904  -3.949  0.00  0.00     0.163 HD
ATOM     42  H   ASG d 514      32.132  27.321  -2.119  0.00  0.00     0.040 H 
ATOM     43  H   ASG d 514      32.239  26.507  -3.662  0.00  0.00     0.040 H 
ATOM     44  H   ASG d 514      32.030  25.579  -2.196  0.00  0.00     0.040 H 
ATOM     45  H   ASG d 514      28.041  23.665  -2.943  0.00  0.00     0.091 H 
ATOM     46  H   ASG d 514      27.860  26.614  -3.476  0.00  0.00     0.084 H 
ATOM     47  H   ASG d 514      28.167  26.042  -6.924  0.00  0.00     0.212 HD
ATOM     48  H   ASG d 514      26.265  23.236  -4.754  0.00  0.00     0.090 H 
ATOM     49  H   ASG d 514      28.290  24.331  -5.385  0.00  0.00     0.132 H 
ENDROOT
TORSDOF 12
ENDMDL
MODEL 15
REMARK VINA RESULT:      -6.8      2.604      5.369
REMARK  0 active torsions:
REMARK  status: ('A' for Active; 'I' for Inactive)
REMARK       I    between atoms: C6_2  and  C5_28 
REMARK       I    between atoms: C6_2  and  O6_5 
REMARK       I    between atoms: C2_4  and  O2_16 
REMARK       I    between atoms: C5_6  and  C6_24 
REMARK       I    between atoms: C4_7  and  O4_17 
REMARK       I    between atoms: O3_8  and  C3_19 
REMARK       I    between atoms: O3_10  and  C3_18 
REMARK       I    between atoms: O3_10  and  C1_30 
REMARK       I    between atoms: N_11  and  C2_26 
REMARK       I    between atoms: N_11  and  C7_21 
REMARK       I    between atoms: C8_13  and  C7_21 
REMARK       I    between atoms: O4_17  and  S_25 
REMARK       I    between atoms: O1_27  and  C1_29 
ROOT
ATOM      1  O5  GC4 d 516      24.800  20.857  -0.131  0.00  0.00    -0.311 OA
ATOM      2  O6A GC4 d 516      27.829  20.533   2.003  0.00  0.00    -0.642 OA
ATOM      3  C2  GC4 d 516      24.998  19.807  -2.301  0.00  0.00     0.111 C 
ATOM      4  C5  GC4 d 516      26.128  20.510   0.314  0.00  0.00     0.147 C 
ATOM      5  O3  GC4 d 516      27.248  20.523  -2.859  0.00  0.00    -0.389 OA
ATOM      6  O6B GC4 d 516      25.950  21.583   2.431  0.00  0.00    -0.642 OA
ATOM      7  O2  GC4 d 516      24.261  18.686  -1.829  0.00  0.00    -0.388 OA
ATOM      8  C3  GC4 d 516      26.511  19.530  -2.142  0.00  0.00     0.084 C 
ATOM      9  C4  GC4 d 516      27.032  19.811  -0.706  0.00  0.00    -0.034 C 
ATOM     10  C6  GC4 d 516      26.666  20.879   1.690  0.00  0.00     0.233 C 
ATOM     11  C1  GC4 d 516      24.597  21.075  -1.527  0.00  0.00     0.165 C 
ATOM     12  H   GC4 d 516      24.777  19.964  -3.335  0.00  0.00     0.095 H 
ATOM     13  H   GC4 d 516      27.025  20.473  -3.801  0.00  0.00     0.210 HD
ATOM     14  H   GC4 d 516      24.459  18.541  -0.890  0.00  0.00     0.210 HD
ATOM     15  H   GC4 d 516      26.635  18.514  -2.451  0.00  0.00     0.093 H 
ATOM     16  H   GC4 d 516      27.987  19.527  -0.439  0.00  0.00     0.085 H 
ATOM     17  H   GC4 d 516      23.562  21.209  -1.765  0.00  0.00     0.134 H 
ATOM     18  C6  ASG d 514      25.964  26.641   0.391  0.00  0.00     0.043 C 
ATOM     19  O6  ASG d 514      26.366  26.177   1.671  0.00  0.00    -0.398 OA
ATOM     20  C4  ASG d 514      25.568  24.362  -0.678  0.00  0.00     0.114 C 
ATOM     21  O7  ASG d 514      23.987  22.907  -4.992  0.00  0.00    -0.274 OA
ATOM     22  O3  ASG d 514      25.151  22.329  -1.948  0.00  0.00    -0.348 OA
ATOM     23  N   ASG d 514      22.793  23.558  -3.166  0.00  0.00    -0.349 N 
ATOM     24  OSC ASG d 514      28.219  23.456  -0.063  0.00  0.00    -0.572 OA
ATOM     25  C8  ASG d 514      21.767  22.144  -4.851  0.00  0.00    -0.003 C 
ATOM     26  O5  ASG d 514      24.441  26.388  -1.413  0.00  0.00    -0.349 OA
ATOM     27  O4  ASG d 514      26.704  24.577  -1.518  0.00  0.00    -0.246 OA
ATOM     28  C3  ASG d 514      24.526  23.515  -1.430  0.00  0.00     0.094 C 
ATOM     29  C7  ASG d 514      22.930  22.910  -4.329  0.00  0.00     0.214 C 
ATOM     30  OSA ASG d 514      28.326  23.086  -2.335  0.00  0.00    -0.572 OA
ATOM     31  OSB ASG d 514      28.941  25.209  -1.410  0.00  0.00    -0.572 OA
ATOM     32  S   ASG d 514      28.066  24.086  -1.343  0.00  0.00     0.252 S 
ATOM     33  C2  ASG d 514      23.896  24.308  -2.577  0.00  0.00     0.087 C 
ATOM     34  O1  ASG d 514      22.887  26.404  -3.090  0.00  0.00    -0.369 OA
ATOM     35  C5  ASG d 514      24.959  25.706  -0.251  0.00  0.00     0.090 C 
ATOM     36  C1  ASG d 514      23.383  25.647  -2.041  0.00  0.00     0.151 C 
ATOM     37  H   ASG d 514      25.519  27.609   0.497  0.00  0.00     0.078 H 
ATOM     38  H   ASG d 514      26.829  26.685  -0.237  0.00  0.00     0.078 H 
ATOM     39  H   ASG d 514      25.594  26.130   2.256  0.00  0.00     0.209 HD
ATOM     40  H   ASG d 514      25.875  23.837   0.202  0.00  0.00     0.093 H 
ATOM     41  H   ASG d 514      21.928  23.527  -2.697  0.00  0.00     0.163 HD
ATOM     42  H   ASG d 514      22.031  21.686  -5.781  0.00  0.00     0.040 H 
ATOM     43  H   ASG d 514      20.941  22.807  -5.001  0.00  0.00     0.040 H 
ATOM     44  H   ASG d 514      21.494  21.387  -4.145  0.00  0.00     0.040 H 
ATOM     45  H   ASG d 514      23.751  23.245  -0.743  0.00  0.00     0.091 H 
ATOM     46  H   ASG d 514      24.634  24.480  -3.332  0.00  0.00     0.084 H 
ATOM     47  H   ASG d 514      22.563  27.253  -2.752  0.00  0.00     0.212 HD
ATOM     48  H   ASG d 514      24.199  25.472   0.465  0.00  0.00     0.090 H 
ATOM     49  H   ASG d 514      22.616  25.446  -1.322  0.00  0.00     0.132 H 
ENDROOT
TORSDOF 12
ENDMDL
MODEL 16
REMARK VINA RESULT:      -6.7      2.485      3.804
REMARK  0 active torsions:
REMARK  status: ('A' for Active; 'I' for Inactive)
REMARK       I    between atoms: C6_2  and  C5_28 
REMARK       I    between atoms: C6_2  and  O6_5 
REMARK       I    between atoms: C2_4  and  O2_16 
REMARK       I    between atoms: C5_6  and  C6_24 
REMARK       I    between atoms: C4_7  and  O4_17 
REMARK       I    between atoms: O3_8  and  C3_19 
REMARK       I    between atoms: O3_10  and  C3_18 
REMARK       I    between atoms: O3_10  and  C1_30 
REMARK       I    between atoms: N_11  and  C2_26 
REMARK       I    between atoms: N_11  and  C7_21 
REMARK       I    between atoms: C8_13  and  C7_21 
REMARK       I    between atoms: O4_17  and  S_25 
REMARK       I    between atoms: O1_27  and  C1_29 
ROOT
ATOM      1  O5  GC4 d 516      24.241  21.857  -4.062  0.00  0.00    -0.311 OA
ATOM      2  O6A GC4 d 516      24.403  25.067  -5.933  0.00  0.00    -0.642 OA
ATOM      3  C2  GC4 d 516      22.061  21.351  -3.146  0.00  0.00     0.111 C 
ATOM      4  C5  GC4 d 516      23.857  23.115  -4.653  0.00  0.00     0.147 C 
ATOM      5  O3  GC4 d 516      21.491  23.553  -2.300  0.00  0.00    -0.389 OA
ATOM      6  O6B GC4 d 516      26.013  23.635  -5.515  0.00  0.00    -0.642 OA
ATOM      7  O2  GC4 d 516      21.808  20.465  -4.229  0.00  0.00    -0.388 OA
ATOM      8  C3  GC4 d 516      21.484  22.747  -3.480  0.00  0.00     0.084 C 
ATOM      9  C4  GC4 d 516      22.428  23.595  -4.375  0.00  0.00    -0.034 C 
ATOM     10  C6  GC4 d 516      24.818  23.990  -5.445  0.00  0.00     0.233 C 
ATOM     11  C1  GC4 d 516      23.572  21.443  -2.871  0.00  0.00     0.165 C 
ATOM     12  H   GC4 d 516      21.584  20.977  -2.265  0.00  0.00     0.095 H 
ATOM     13  H   GC4 d 516      20.928  23.142  -1.625  0.00  0.00     0.210 HD
ATOM     14  H   GC4 d 516      22.240  20.801  -5.029  0.00  0.00     0.210 HD
ATOM     15  H   GC4 d 516      20.534  22.547  -3.928  0.00  0.00     0.093 H 
ATOM     16  H   GC4 d 516      22.093  24.481  -4.784  0.00  0.00     0.085 H 
ATOM     17  H   GC4 d 516      23.845  20.449  -2.583  0.00  0.00     0.134 H 
ATOM     18  C6  ASG d 514      28.267  24.517  -0.627  0.00  0.00     0.043 C 
ATOM     19  O6  ASG d 514      28.626  25.034  -1.900  0.00  0.00    -0.398 OA
ATOM     20  C4  ASG d 514      26.112  23.357  -1.338  0.00  0.00     0.114 C 
ATOM     21  O7  ASG d 514      22.852  20.640   0.946  0.00  0.00    -0.274 OA
ATOM     22  O3  ASG d 514      24.009  22.200  -1.735  0.00  0.00    -0.348 OA
ATOM     23  N   ASG d 514      24.851  20.034   0.041  0.00  0.00    -0.349 N 
ATOM     24  OSC ASG d 514      25.020  25.763  -2.455  0.00  0.00    -0.572 OA
ATOM     25  C8  ASG d 514      23.113  18.373   0.379  0.00  0.00    -0.003 C 
ATOM     26  O5  ASG d 514      27.428  22.653   0.582  0.00  0.00    -0.349 OA
ATOM     27  O4  ASG d 514      25.366  24.322  -0.592  0.00  0.00    -0.246 OA
ATOM     28  C3  ASG d 514      25.371  22.008  -1.319  0.00  0.00     0.094 C 
ATOM     29  C7  ASG d 514      23.613  19.771   0.476  0.00  0.00     0.214 C 
ATOM     30  OSA ASG d 514      23.282  25.322  -1.008  0.00  0.00    -0.572 OA
ATOM     31  OSB ASG d 514      25.166  26.622  -0.298  0.00  0.00    -0.572 OA
ATOM     32  S   ASG d 514      24.698  25.523  -1.077  0.00  0.00     0.252 S 
ATOM     33  C2  ASG d 514      25.401  21.384   0.078  0.00  0.00     0.087 C 
ATOM     34  O1  ASG d 514      26.869  20.854   1.877  0.00  0.00    -0.369 OA
ATOM     35  C5  ASG d 514      27.522  23.202  -0.749  0.00  0.00     0.090 C 
ATOM     36  C1  ASG d 514      26.846  21.340   0.580  0.00  0.00     0.151 C 
ATOM     37  H   ASG d 514      29.156  24.359  -0.053  0.00  0.00     0.078 H 
ATOM     38  H   ASG d 514      27.623  25.223  -0.147  0.00  0.00     0.078 H 
ATOM     39  H   ASG d 514      29.212  24.406  -2.351  0.00  0.00     0.209 HD
ATOM     40  H   ASG d 514      26.205  23.690  -2.350  0.00  0.00     0.093 H 
ATOM     41  H   ASG d 514      25.403  19.300  -0.311  0.00  0.00     0.163 HD
ATOM     42  H   ASG d 514      22.116  18.324   0.763  0.00  0.00     0.040 H 
ATOM     43  H   ASG d 514      23.748  17.728   0.950  0.00  0.00     0.040 H 
ATOM     44  H   ASG d 514      23.117  18.063  -0.645  0.00  0.00     0.040 H 
ATOM     45  H   ASG d 514      25.865  21.342  -1.995  0.00  0.00     0.091 H 
ATOM     46  H   ASG d 514      24.806  21.977   0.740  0.00  0.00     0.084 H 
ATOM     47  H   ASG d 514      27.784  20.826   2.196  0.00  0.00     0.212 HD
ATOM     48  H   ASG d 514      28.056  22.565  -1.423  0.00  0.00     0.090 H 
ATOM     49  H   ASG d 514      27.407  20.706  -0.074  0.00  0.00     0.132 H 
ENDROOT
TORSDOF 12
ENDMDL
MODEL 17
REMARK VINA RESULT:      -6.6      2.540      6.322
REMARK  0 active torsions:
REMARK  status: ('A' for Active; 'I' for Inactive)
REMARK       I    between atoms: C6_2  and  C5_28 
REMARK       I    between atoms: C6_2  and  O6_5 
REMARK       I    between atoms: C2_4  and  O2_16 
REMARK       I    between atoms: C5_6  and  C6_24 
REMARK       I    between atoms: C4_7  and  O4_17 
REMARK       I    between atoms: O3_8  and  C3_19 
REMARK       I    between atoms: O3_10  and  C3_18 
REMARK       I    between atoms: O3_10  and  C1_30 
REMARK       I    between atoms: N_11  and  C2_26 
REMARK       I    between atoms: N_11  and  C7_21 
REMARK       I    between atoms: C8_13  and  C7_21 
REMARK       I    between atoms: O4_17  and  S_25 
REMARK       I    between atoms: O1_27  and  C1_29 
ROOT
ATOM      1  O5  GC4 d 516      28.019  23.367   0.194  0.00  0.00    -0.311 OA
ATOM      2  O6A GC4 d 516      25.939  21.582   2.708  0.00  0.00    -0.642 OA
ATOM      3  C2  GC4 d 516      27.419  25.688  -0.123  0.00  0.00     0.111 C 
ATOM      4  C5  GC4 d 516      27.006  23.093   1.183  0.00  0.00     0.147 C 
ATOM      5  O3  GC4 d 516      25.004  25.450  -0.144  0.00  0.00    -0.389 OA
ATOM      6  O6B GC4 d 516      27.567  20.797   1.461  0.00  0.00    -0.642 OA
ATOM      7  O2  GC4 d 516      28.500  26.084   0.711  0.00  0.00    -0.388 OA
ATOM      8  C3  GC4 d 516      26.130  25.576   0.726  0.00  0.00     0.084 C 
ATOM      9  C4  GC4 d 516      26.020  24.226   1.486  0.00  0.00    -0.034 C 
ATOM     10  C6  GC4 d 516      26.840  21.735   1.851  0.00  0.00     0.233 C 
ATOM     11  C1  GC4 d 516      27.734  24.345  -0.805  0.00  0.00     0.165 C 
ATOM     12  H   GC4 d 516      27.273  26.423  -0.885  0.00  0.00     0.095 H 
ATOM     13  H   GC4 d 516      24.936  26.241  -0.701  0.00  0.00     0.210 HD
ATOM     14  H   GC4 d 516      28.635  25.419   1.403  0.00  0.00     0.210 HD
ATOM     15  H   GC4 d 516      26.156  26.430   1.370  0.00  0.00     0.093 H 
ATOM     16  H   GC4 d 516      25.283  24.093   2.196  0.00  0.00     0.085 H 
ATOM     17  H   GC4 d 516      28.588  24.557  -1.415  0.00  0.00     0.134 H 
ATOM     18  C6  ASG d 514      25.775  19.282  -3.463  0.00  0.00     0.043 C 
ATOM     19  O6  ASG d 514      25.897  18.525  -2.268  0.00  0.00    -0.398 OA
ATOM     20  C4  ASG d 514      26.339  21.561  -2.469  0.00  0.00     0.114 C 
ATOM     21  O7  ASG d 514      26.826  25.992  -4.298  0.00  0.00    -0.274 OA
ATOM     22  O3  ASG d 514      26.806  23.846  -1.778  0.00  0.00    -0.348 OA
ATOM     23  N   ASG d 514      28.335  24.289  -4.231  0.00  0.00    -0.349 N 
ATOM     24  OSC ASG d 514      24.282  21.360  -0.481  0.00  0.00    -0.572 OA
ATOM     25  C8  ASG d 514      29.097  26.582  -4.457  0.00  0.00    -0.003 C 
ATOM     26  O5  ASG d 514      26.694  21.008  -4.811  0.00  0.00    -0.349 OA
ATOM     27  O4  ASG d 514      24.984  21.967  -2.673  0.00  0.00    -0.246 OA
ATOM     28  C3  ASG d 514      27.270  22.777  -2.620  0.00  0.00     0.094 C 
ATOM     29  C7  ASG d 514      28.004  25.582  -4.326  0.00  0.00     0.214 C 
ATOM     30  OSA ASG d 514      23.578  23.353  -1.399  0.00  0.00    -0.572 OA
ATOM     31  OSB ASG d 514      22.803  21.260  -2.273  0.00  0.00    -0.572 OA
ATOM     32  S   ASG d 514      23.891  21.990  -1.710  0.00  0.00     0.252 S 
ATOM     33  C2  ASG d 514      27.322  23.252  -4.074  0.00  0.00     0.087 C 
ATOM     34  O1  ASG d 514      27.618  22.471  -6.304  0.00  0.00    -0.369 OA
ATOM     35  C5  ASG d 514      26.724  20.464  -3.474  0.00  0.00     0.090 C 
ATOM     36  C1  ASG d 514      27.652  22.064  -4.981  0.00  0.00     0.151 C 
ATOM     37  H   ASG d 514      25.996  18.652  -4.298  0.00  0.00     0.078 H 
ATOM     38  H   ASG d 514      24.774  19.656  -3.522  0.00  0.00     0.078 H 
ATOM     39  H   ASG d 514      26.800  18.177  -2.197  0.00  0.00     0.209 HD
ATOM     40  H   ASG d 514      26.443  21.163  -1.482  0.00  0.00     0.093 H 
ATOM     41  H   ASG d 514      29.284  24.031  -4.269  0.00  0.00     0.163 HD
ATOM     42  H   ASG d 514      28.676  27.564  -4.521  0.00  0.00     0.040 H 
ATOM     43  H   ASG d 514      29.663  26.378  -5.341  0.00  0.00     0.040 H 
ATOM     44  H   ASG d 514      29.738  26.524  -3.602  0.00  0.00     0.040 H 
ATOM     45  H   ASG d 514      28.256  22.487  -2.325  0.00  0.00     0.091 H 
ATOM     46  H   ASG d 514      26.371  23.660  -4.345  0.00  0.00     0.084 H 
ATOM     47  H   ASG d 514      27.827  21.719  -6.880  0.00  0.00     0.212 HD
ATOM     48  H   ASG d 514      27.697  20.127  -3.186  0.00  0.00     0.090 H 
ATOM     49  H   ASG d 514      28.625  21.705  -4.718  0.00  0.00     0.132 H 
ENDROOT
TORSDOF 12
ENDMDL
MODEL 18
REMARK VINA RESULT:      -6.6      1.843      2.585
REMARK  0 active torsions:
REMARK  status: ('A' for Active; 'I' for Inactive)
REMARK       I    between atoms: C6_2  and  C5_28 
REMARK       I    between atoms: C6_2  and  O6_5 
REMARK       I    between atoms: C2_4  and  O2_16 
REMARK       I    between atoms: C5_6  and  C6_24 
REMARK       I    between atoms: C4_7  and  O4_17 
REMARK       I    between atoms: O3_8  and  C3_19 
REMARK       I    between atoms: O3_10  and  C3_18 
REMARK       I    between atoms: O3_10  and  C1_30 
REMARK       I    between atoms: N_11  and  C2_26 
REMARK       I    between atoms: N_11  and  C7_21 
REMARK       I    between atoms: C8_13  and  C7_21 
REMARK       I    between atoms: O4_17  and  S_25 
REMARK       I    between atoms: O1_27  and  C1_29 
ROOT
ATOM      1  O5  GC4 d 516      28.175  23.350  -3.653  0.00  0.00    -0.311 OA
ATOM      2  O6A GC4 d 516      30.369  26.065  -2.370  0.00  0.00    -0.642 OA
ATOM      3  C2  GC4 d 516      26.428  24.106  -5.143  0.00  0.00     0.111 C 
ATOM      4  C5  GC4 d 516      28.731  24.658  -3.412  0.00  0.00     0.147 C 
ATOM      5  O3  GC4 d 516      25.726  26.082  -3.922  0.00  0.00    -0.389 OA
ATOM      6  O6B GC4 d 516      30.423  23.919  -1.910  0.00  0.00    -0.642 OA
ATOM      7  O2  GC4 d 516      27.200  23.695  -6.263  0.00  0.00    -0.388 OA
ATOM      8  C3  GC4 d 516      26.693  25.603  -4.858  0.00  0.00     0.084 C 
ATOM      9  C4  GC4 d 516      27.987  25.844  -4.035  0.00  0.00    -0.034 C 
ATOM     10  C6  GC4 d 516      29.943  24.897  -2.521  0.00  0.00     0.233 C 
ATOM     11  C1  GC4 d 516      26.775  23.253  -3.911  0.00  0.00     0.165 C 
ATOM     12  H   GC4 d 516      25.389  23.970  -5.360  0.00  0.00     0.095 H 
ATOM     13  H   GC4 d 516      24.837  25.996  -4.302  0.00  0.00     0.210 HD
ATOM     14  H   GC4 d 516      28.142  23.817  -6.069  0.00  0.00     0.210 HD
ATOM     15  H   GC4 d 516      26.707  26.064  -5.824  0.00  0.00     0.093 H 
ATOM     16  H   GC4 d 516      28.347  26.802  -3.909  0.00  0.00     0.085 H 
ATOM     17  H   GC4 d 516      26.486  22.261  -4.191  0.00  0.00     0.134 H 
ATOM     18  C6  ASG d 514      26.955  22.635   2.099  0.00  0.00     0.043 C 
ATOM     19  O6  ASG d 514      28.323  23.009   2.166  0.00  0.00    -0.398 OA
ATOM     20  C4  ASG d 514      26.614  23.076  -0.388  0.00  0.00     0.114 C 
ATOM     21  O7  ASG d 514      22.908  22.522  -3.418  0.00  0.00    -0.274 OA
ATOM     22  O3  ASG d 514      26.007  23.446  -2.715  0.00  0.00    -0.348 OA
ATOM     23  N   ASG d 514      24.428  20.984  -2.707  0.00  0.00    -0.349 N 
ATOM     24  OSC ASG d 514      27.527  25.787  -0.176  0.00  0.00    -0.572 OA
ATOM     25  C8  ASG d 514      23.227  20.637  -4.788  0.00  0.00    -0.003 C 
ATOM     26  O5  ASG d 514      25.280  21.481   0.874  0.00  0.00    -0.349 OA
ATOM     27  O4  ASG d 514      25.772  24.183  -0.060  0.00  0.00    -0.246 OA
ATOM     28  C3  ASG d 514      26.131  22.434  -1.701  0.00  0.00     0.094 C 
ATOM     29  C7  ASG d 514      23.517  21.445  -3.572  0.00  0.00     0.214 C 
ATOM     30  OSA ASG d 514      25.475  26.264  -1.109  0.00  0.00    -0.572 OA
ATOM     31  OSB ASG d 514      25.730  26.095   1.267  0.00  0.00    -0.572 OA
ATOM     32  S   ASG d 514      26.113  25.599  -0.013  0.00  0.00     0.252 S 
ATOM     33  C2  ASG d 514      24.786  21.731  -1.507  0.00  0.00     0.087 C 
ATOM     34  O1  ASG d 514      23.645  20.201  -0.082  0.00  0.00    -0.369 OA
ATOM     35  C5  ASG d 514      26.604  22.043   0.749  0.00  0.00     0.090 C 
ATOM     36  C1  ASG d 514      24.883  20.777  -0.314  0.00  0.00     0.151 C 
ATOM     37  H   ASG d 514      26.755  21.909   2.859  0.00  0.00     0.078 H 
ATOM     38  H   ASG d 514      26.360  23.513   2.244  0.00  0.00     0.078 H 
ATOM     39  H   ASG d 514      28.879  22.224   2.037  0.00  0.00     0.209 HD
ATOM     40  H   ASG d 514      27.617  23.423  -0.517  0.00  0.00     0.093 H 
ATOM     41  H   ASG d 514      24.867  20.121  -2.885  0.00  0.00     0.163 HD
ATOM     42  H   ASG d 514      22.483  21.133  -5.376  0.00  0.00     0.040 H 
ATOM     43  H   ASG d 514      22.867  19.673  -4.497  0.00  0.00     0.040 H 
ATOM     44  H   ASG d 514      24.122  20.526  -5.364  0.00  0.00     0.040 H 
ATOM     45  H   ASG d 514      26.852  21.704  -2.005  0.00  0.00     0.091 H 
ATOM     46  H   ASG d 514      24.030  22.465  -1.323  0.00  0.00     0.084 H 
ATOM     47  H   ASG d 514      23.705  19.598   0.674  0.00  0.00     0.212 HD
ATOM     48  H   ASG d 514      27.341  21.312   0.491  0.00  0.00     0.090 H 
ATOM     49  H   ASG d 514      25.613  20.030  -0.543  0.00  0.00     0.132 H 
ENDROOT
TORSDOF 12
ENDMDL
MODEL 19
REMARK VINA RESULT:      -6.6      2.709      5.798
REMARK  0 active torsions:
REMARK  status: ('A' for Active; 'I' for Inactive)
REMARK       I    between atoms: C6_2  and  C5_28 
REMARK       I    between atoms: C6_2  and  O6_5 
REMARK       I    between atoms: C2_4  and  O2_16 
REMARK       I    between atoms: C5_6  and  C6_24 
REMARK       I    between atoms: C4_7  and  O4_17 
REMARK       I    between atoms: O3_8  and  C3_19 
REMARK       I    between atoms: O3_10  and  C3_18 
REMARK       I    between atoms: O3_10  and  C1_30 
REMARK       I    between atoms: N_11  and  C2_26 
REMARK       I    between atoms: N_11  and  C7_21 
REMARK       I    between atoms: C8_13  and  C7_21 
REMARK       I    between atoms: O4_17  and  S_25 
REMARK       I    between atoms: O1_27  and  C1_29 
ROOT
ATOM      1  O5  GC4 d 516      23.515  22.686  -1.104  0.00  0.00    -0.311 OA
ATOM      2  O6A GC4 d 516      21.864  19.700  -2.583  0.00  0.00    -0.642 OA
ATOM      3  C2  GC4 d 516      25.003  23.847  -2.614  0.00  0.00     0.111 C 
ATOM      4  C5  GC4 d 516      23.136  21.658  -2.042  0.00  0.00     0.147 C 
ATOM      5  O3  GC4 d 516      26.103  21.925  -3.607  0.00  0.00    -0.389 OA
ATOM      6  O6B GC4 d 516      21.707  20.489  -0.541  0.00  0.00    -0.642 OA
ATOM      7  O2  GC4 d 516      23.996  24.818  -2.867  0.00  0.00    -0.388 OA
ATOM      8  C3  GC4 d 516      24.934  22.742  -3.695  0.00  0.00     0.084 C 
ATOM      9  C4  GC4 d 516      23.850  21.671  -3.398  0.00  0.00    -0.034 C 
ATOM     10  C6  GC4 d 516      22.146  20.550  -1.708  0.00  0.00     0.233 C 
ATOM     11  C1  GC4 d 516      24.825  23.242  -1.211  0.00  0.00     0.165 C 
ATOM     12  H   GC4 d 516      25.964  24.317  -2.655  0.00  0.00     0.095 H 
ATOM     13  H   GC4 d 516      26.890  22.468  -3.774  0.00  0.00     0.210 HD
ATOM     14  H   GC4 d 516      23.124  24.395  -2.830  0.00  0.00     0.210 HD
ATOM     15  H   GC4 d 516      24.776  23.270  -4.612  0.00  0.00     0.093 H 
ATOM     16  H   GC4 d 516      23.609  20.969  -4.114  0.00  0.00     0.085 H 
ATOM     17  H   GC4 d 516      24.963  24.072  -0.550  0.00  0.00     0.134 H 
ATOM     18  C6  ASG d 514      25.752  18.671   2.633  0.00  0.00     0.043 C 
ATOM     19  O6  ASG d 514      24.462  18.125   2.404  0.00  0.00    -0.398 OA
ATOM     20  C4  ASG d 514      25.646  20.518   0.879  0.00  0.00     0.114 C 
ATOM     21  O7  ASG d 514      28.632  24.056  -0.455  0.00  0.00    -0.274 OA
ATOM     22  O3  ASG d 514      25.823  22.329  -0.735  0.00  0.00    -0.348 OA
ATOM     23  N   ASG d 514      27.145  24.001   1.267  0.00  0.00    -0.349 N 
ATOM     24  OSC ASG d 514      25.039  18.672  -1.231  0.00  0.00    -0.572 OA
ATOM     25  C8  ASG d 514      27.886  26.129   0.366  0.00  0.00    -0.003 C 
ATOM     26  O5  ASG d 514      27.048  20.648   2.862  0.00  0.00    -0.349 OA
ATOM     27  O4  ASG d 514      26.632  19.824   0.112  0.00  0.00    -0.246 OA
ATOM     28  C3  ASG d 514      25.806  22.034   0.672  0.00  0.00     0.094 C 
ATOM     29  C7  ASG d 514      27.910  24.642   0.376  0.00  0.00     0.214 C 
ATOM     30  OSA ASG d 514      26.907  19.599  -2.210  0.00  0.00    -0.572 OA
ATOM     31  OSB ASG d 514      27.101  17.712  -0.746  0.00  0.00    -0.572 OA
ATOM     32  S   ASG d 514      26.434  18.940  -1.030  0.00  0.00     0.252 S 
ATOM     33  C2  ASG d 514      27.094  22.545   1.321  0.00  0.00     0.087 C 
ATOM     34  O1  ASG d 514      28.346  22.467   3.345  0.00  0.00    -0.369 OA
ATOM     35  C5  ASG d 514      25.782  20.163   2.368  0.00  0.00     0.090 C 
ATOM     36  C1  ASG d 514      27.144  22.078   2.778  0.00  0.00     0.151 C 
ATOM     37  H   ASG d 514      26.029  18.494   3.651  0.00  0.00     0.078 H 
ATOM     38  H   ASG d 514      26.440  18.199   1.963  0.00  0.00     0.078 H 
ATOM     39  H   ASG d 514      23.823  18.542   3.003  0.00  0.00     0.209 HD
ATOM     40  H   ASG d 514      24.672  20.221   0.551  0.00  0.00     0.093 H 
ATOM     41  H   ASG d 514      26.604  24.524   1.902  0.00  0.00     0.163 HD
ATOM     42  H   ASG d 514      28.544  26.491  -0.396  0.00  0.00     0.040 H 
ATOM     43  H   ASG d 514      28.207  26.497   1.318  0.00  0.00     0.040 H 
ATOM     44  H   ASG d 514      26.891  26.469   0.169  0.00  0.00     0.040 H 
ATOM     45  H   ASG d 514      24.977  22.528   1.135  0.00  0.00     0.091 H 
ATOM     46  H   ASG d 514      27.935  22.154   0.787  0.00  0.00     0.084 H 
ATOM     47  H   ASG d 514      28.379  22.171   4.268  0.00  0.00     0.212 HD
ATOM     48  H   ASG d 514      24.945  20.617   2.857  0.00  0.00     0.090 H 
ATOM     49  H   ASG d 514      26.318  22.519   3.297  0.00  0.00     0.132 H 
ENDROOT
TORSDOF 12
ENDMDL
MODEL 20
REMARK VINA RESULT:      -6.6      3.323      6.577
REMARK  0 active torsions:
REMARK  status: ('A' for Active; 'I' for Inactive)
REMARK       I    between atoms: C6_2  and  C5_28 
REMARK       I    between atoms: C6_2  and  O6_5 
REMARK       I    between atoms: C2_4  and  O2_16 
REMARK       I    between atoms: C5_6  and  C6_24 
REMARK       I    between atoms: C4_7  and  O4_17 
REMARK       I    between atoms: O3_8  and  C3_19 
REMARK       I    between atoms: O3_10  and  C3_18 
REMARK       I    between atoms: O3_10  and  C1_30 
REMARK       I    between atoms: N_11  and  C2_26 
REMARK       I    between atoms: N_11  and  C7_21 
REMARK       I    between atoms: C8_13  and  C7_21 
REMARK       I    between atoms: O4_17  and  S_25 
REMARK       I    between atoms: O1_27  and  C1_29 
ROOT
ATOM      1  O5  GC4 d 516      25.276  19.749   2.306  0.00  0.00    -0.311 OA
ATOM      2  O6A GC4 d 516      28.345  21.848   2.358  0.00  0.00    -0.642 OA
ATOM      3  C2  GC4 d 516      25.676  17.418   1.805  0.00  0.00     0.111 C 
ATOM      4  C5  GC4 d 516      26.657  20.153   2.212  0.00  0.00     0.147 C 
ATOM      5  O3  GC4 d 516      27.275  17.693   0.000  0.00  0.00    -0.389 OA
ATOM      6  O6B GC4 d 516      26.258  22.455   2.661  0.00  0.00    -0.642 OA
ATOM      7  O2  GC4 d 516      25.588  17.102   3.188  0.00  0.00    -0.388 OA
ATOM      8  C3  GC4 d 516      27.157  17.649   1.424  0.00  0.00     0.084 C 
ATOM      9  C4  GC4 d 516      27.656  19.079   1.767  0.00  0.00    -0.034 C 
ATOM     10  C6  GC4 d 516      27.125  21.582   2.452  0.00  0.00     0.233 C 
ATOM     11  C1  GC4 d 516      24.836  18.667   1.487  0.00  0.00     0.165 C 
ATOM     12  H   GC4 d 516      25.290  16.602   1.231  0.00  0.00     0.095 H 
ATOM     13  H   GC4 d 516      26.992  16.845  -0.374  0.00  0.00     0.210 HD
ATOM     14  H   GC4 d 516      25.937  17.840   3.711  0.00  0.00     0.210 HD
ATOM     15  H   GC4 d 516      27.692  16.875   1.933  0.00  0.00     0.093 H 
ATOM     16  H   GC4 d 516      28.659  19.307   1.696  0.00  0.00     0.085 H 
ATOM     17  H   GC4 d 516      23.833  18.372   1.717  0.00  0.00     0.134 H 
ATOM     18  C6  ASG d 514      23.740  23.422  -2.080  0.00  0.00     0.043 C 
ATOM     19  O6  ASG d 514      24.454  24.310  -1.233  0.00  0.00    -0.398 OA
ATOM     20  C4  ASG d 514      24.300  21.265  -0.844  0.00  0.00     0.114 C 
ATOM     21  O7  ASG d 514      23.065  16.644  -1.429  0.00  0.00    -0.274 OA
ATOM     22  O3  ASG d 514      24.708  19.067   0.115  0.00  0.00    -0.348 OA
ATOM     23  N   ASG d 514      21.926  18.317  -0.388  0.00  0.00    -0.349 N 
ATOM     24  OSC ASG d 514      27.125  21.729  -1.027  0.00  0.00    -0.572 OA
ATOM     25  C8  ASG d 514      21.466  16.000   0.170  0.00  0.00    -0.003 C 
ATOM     26  O5  ASG d 514      22.301  21.537  -2.201  0.00  0.00    -0.349 OA
ATOM     27  O4  ASG d 514      25.110  20.861  -1.951  0.00  0.00    -0.246 OA
ATOM     28  C3  ASG d 514      23.677  20.023  -0.183  0.00  0.00     0.094 C 
ATOM     29  C7  ASG d 514      22.207  17.028  -0.610  0.00  0.00     0.214 C 
ATOM     30  OSA ASG d 514      27.125  19.656  -2.033  0.00  0.00    -0.572 OA
ATOM     31  OSB ASG d 514      26.812  21.646  -3.330  0.00  0.00    -0.572 OA
ATOM     32  S   ASG d 514      26.556  20.968  -2.103  0.00  0.00     0.252 S 
ATOM     33  C2  ASG d 514      22.628  19.382  -1.094  0.00  0.00     0.087 C 
ATOM     34  O1  ASG d 514      20.727  19.895  -2.434  0.00  0.00    -0.369 OA
ATOM     35  C5  ASG d 514      23.202  22.231  -1.312  0.00  0.00     0.090 C 
ATOM     36  C1  ASG d 514      21.629  20.452  -1.543  0.00  0.00     0.151 C 
ATOM     37  H   ASG d 514      22.920  23.948  -2.523  0.00  0.00     0.078 H 
ATOM     38  H   ASG d 514      24.412  23.061  -2.830  0.00  0.00     0.078 H 
ATOM     39  H   ASG d 514      23.860  24.649  -0.545  0.00  0.00     0.209 HD
ATOM     40  H   ASG d 514      24.911  21.772  -0.128  0.00  0.00     0.093 H 
ATOM     41  H   ASG d 514      21.230  18.552   0.267  0.00  0.00     0.163 HD
ATOM     42  H   ASG d 514      21.799  15.025  -0.118  0.00  0.00     0.040 H 
ATOM     43  H   ASG d 514      20.418  16.091  -0.024  0.00  0.00     0.040 H 
ATOM     44  H   ASG d 514      21.650  16.145   1.215  0.00  0.00     0.040 H 
ATOM     45  H   ASG d 514      23.194  20.328   0.722  0.00  0.00     0.091 H 
ATOM     46  H   ASG d 514      23.115  18.962  -1.949  0.00  0.00     0.084 H 
ATOM     47  H   ASG d 514      20.094  20.572  -2.719  0.00  0.00     0.212 HD
ATOM     48  H   ASG d 514      22.719  22.582  -0.425  0.00  0.00     0.090 H 
ATOM     49  H   ASG d 514      21.126  20.822  -0.674  0.00  0.00     0.132 H 
ENDROOT
TORSDOF 12
ENDMDL
MODEL 21
REMARK VINA RESULT:      -6.4      2.780      5.967
REMARK  0 active torsions:
REMARK  status: ('A' for Active; 'I' for Inactive)
REMARK       I    between atoms: C6_2  and  C5_28 
REMARK       I    between atoms: C6_2  and  O6_5 
REMARK       I    between atoms: C2_4  and  O2_16 
REMARK       I    between atoms: C5_6  and  C6_24 
REMARK       I    between atoms: C4_7  and  O4_17 
REMARK       I    between atoms: O3_8  and  C3_19 
REMARK       I    between atoms: O3_10  and  C3_18 
REMARK       I    between atoms: O3_10  and  C1_30 
REMARK       I    between atoms: N_11  and  C2_26 
REMARK       I    between atoms: N_11  and  C7_21 
REMARK       I    between atoms: C8_13  and  C7_21 
REMARK       I    between atoms: O4_17  and  S_25 
REMARK       I    between atoms: O1_27  and  C1_29 
ROOT
ATOM      1  O5  GC4 d 516      23.115  21.935  -1.424  0.00  0.00    -0.311 OA
ATOM      2  O6A GC4 d 516      22.102  18.624  -0.066  0.00  0.00    -0.642 OA
ATOM      3  C2  GC4 d 516      23.614  21.927  -3.790  0.00  0.00     0.111 C 
ATOM      4  C5  GC4 d 516      22.802  20.530  -1.341  0.00  0.00     0.147 C 
ATOM      5  O3  GC4 d 516      24.888  19.865  -3.896  0.00  0.00    -0.389 OA
ATOM      6  O6B GC4 d 516      22.355  20.528   0.996  0.00  0.00    -0.642 OA
ATOM      7  O2  GC4 d 516      22.328  22.467  -4.066  0.00  0.00    -0.388 OA
ATOM      8  C3  GC4 d 516      23.558  20.385  -3.900  0.00  0.00     0.084 C 
ATOM      9  C4  GC4 d 516      23.012  19.705  -2.615  0.00  0.00    -0.034 C 
ATOM     10  C6  GC4 d 516      22.364  19.849  -0.051  0.00  0.00     0.233 C 
ATOM     11  C1  GC4 d 516      24.082  22.351  -2.387  0.00  0.00     0.165 C 
ATOM     12  H   GC4 d 516      24.316  22.304  -4.503  0.00  0.00     0.095 H 
ATOM     13  H   GC4 d 516      25.372  20.209  -4.663  0.00  0.00     0.210 HD
ATOM     14  H   GC4 d 516      21.690  22.128  -3.420  0.00  0.00     0.210 HD
ATOM     15  H   GC4 d 516      22.964  20.198  -4.769  0.00  0.00     0.093 H 
ATOM     16  H   GC4 d 516      22.790  18.697  -2.619  0.00  0.00     0.085 H 
ATOM     17  H   GC4 d 516      24.155  23.417  -2.448  0.00  0.00     0.134 H 
ATOM     18  C6  ASG d 514      27.546  21.337   2.461  0.00  0.00     0.043 C 
ATOM     19  O6  ASG d 514      26.487  20.714   3.174  0.00  0.00    -0.398 OA
ATOM     20  C4  ASG d 514      26.324  21.630   0.244  0.00  0.00     0.114 C 
ATOM     21  O7  ASG d 514      27.481  23.625  -3.987  0.00  0.00    -0.274 OA
ATOM     22  O3  ASG d 514      25.412  21.997  -1.981  0.00  0.00    -0.348 OA
ATOM     23  N   ASG d 514      26.705  24.619  -2.092  0.00  0.00    -0.349 N 
ATOM     24  OSC ASG d 514      25.694  18.838   0.062  0.00  0.00    -0.572 OA
ATOM     25  C8  ASG d 514      26.423  25.710  -4.242  0.00  0.00    -0.003 C 
ATOM     26  O5  ASG d 514      28.164  23.058   0.946  0.00  0.00    -0.349 OA
ATOM     27  O4  ASG d 514      27.185  20.650  -0.341  0.00  0.00    -0.246 OA
ATOM     28  C3  ASG d 514      25.930  22.669  -0.821  0.00  0.00     0.094 C 
ATOM     29  C7  ASG d 514      26.911  24.575  -3.413  0.00  0.00     0.214 C 
ATOM     30  OSA ASG d 514      26.773  19.006  -1.968  0.00  0.00    -0.572 OA
ATOM     31  OSB ASG d 514      27.995  18.500   0.031  0.00  0.00    -0.572 OA
ATOM     32  S   ASG d 514      26.925  19.233  -0.562  0.00  0.00     0.252 S 
ATOM     33  C2  ASG d 514      27.130  23.532  -1.217  0.00  0.00     0.087 C 
ATOM     34  O1  ASG d 514      28.912  24.820  -0.303  0.00  0.00    -0.369 OA
ATOM     35  C5  ASG d 514      27.024  22.314   1.428  0.00  0.00     0.090 C 
ATOM     36  C1  ASG d 514      27.777  24.107   0.045  0.00  0.00     0.151 C 
ATOM     37  H   ASG d 514      28.169  21.864   3.154  0.00  0.00     0.078 H 
ATOM     38  H   ASG d 514      28.101  20.576   1.952  0.00  0.00     0.078 H 
ATOM     39  H   ASG d 514      25.973  21.390   3.643  0.00  0.00     0.209 HD
ATOM     40  H   ASG d 514      25.440  21.150   0.608  0.00  0.00     0.093 H 
ATOM     41  H   ASG d 514      26.255  25.402  -1.701  0.00  0.00     0.163 HD
ATOM     42  H   ASG d 514      26.661  25.530  -5.269  0.00  0.00     0.040 H 
ATOM     43  H   ASG d 514      26.894  26.615  -3.919  0.00  0.00     0.040 H 
ATOM     44  H   ASG d 514      25.362  25.801  -4.132  0.00  0.00     0.040 H 
ATOM     45  H   ASG d 514      25.178  23.308  -0.407  0.00  0.00     0.091 H 
ATOM     46  H   ASG d 514      27.839  22.928  -1.743  0.00  0.00     0.084 H 
ATOM     47  H   ASG d 514      29.323  25.184   0.496  0.00  0.00     0.212 HD
ATOM     48  H   ASG d 514      26.286  22.939   1.886  0.00  0.00     0.090 H 
ATOM     49  H   ASG d 514      27.062  24.741   0.526  0.00  0.00     0.132 H 
ENDROOT
TORSDOF 12
ENDMDL
MODEL 22
REMARK VINA RESULT:      -6.4      3.097      4.745
REMARK  0 active torsions:
REMARK  status: ('A' for Active; 'I' for Inactive)
REMARK       I    between atoms: C6_2  and  C5_28 
REMARK       I    between atoms: C6_2  and  O6_5 
REMARK       I    between atoms: C2_4  and  O2_16 
REMARK       I    between atoms: C5_6  and  C6_24 
REMARK       I    between atoms: C4_7  and  O4_17 
REMARK       I    between atoms: O3_8  and  C3_19 
REMARK       I    between atoms: O3_10  and  C3_18 
REMARK       I    between atoms: O3_10  and  C1_30 
REMARK       I    between atoms: N_11  and  C2_26 
REMARK       I    between atoms: N_11  and  C7_21 
REMARK       I    between atoms: C8_13  and  C7_21 
REMARK       I    between atoms: O4_17  and  S_25 
REMARK       I    between atoms: O1_27  and  C1_29 
ROOT
ATOM      1  O5  GC4 d 516      27.391  22.547  -1.227  0.00  0.00    -0.311 OA
ATOM      2  O6A GC4 d 516      26.979  24.384   1.979  0.00  0.00    -0.642 OA
ATOM      3  C2  GC4 d 516      25.443  22.599  -2.659  0.00  0.00     0.111 C 
ATOM      4  C5  GC4 d 516      26.806  23.326  -0.164  0.00  0.00     0.147 C 
ATOM      5  O3  GC4 d 516      23.734  22.217  -0.978  0.00  0.00    -0.389 OA
ATOM      6  O6B GC4 d 516      28.707  23.236   1.264  0.00  0.00    -0.642 OA
ATOM      7  O2  GC4 d 516      26.039  23.627  -3.439  0.00  0.00    -0.388 OA
ATOM      8  C3  GC4 d 516      24.539  23.235  -1.576  0.00  0.00     0.084 C 
ATOM      9  C4  GC4 d 516      25.330  23.705  -0.326  0.00  0.00    -0.034 C 
ATOM     10  C6  GC4 d 516      27.558  23.697   1.106  0.00  0.00     0.233 C 
ATOM     11  C1  GC4 d 516      26.527  21.722  -2.009  0.00  0.00     0.165 C 
ATOM     12  H   GC4 d 516      24.846  21.976  -3.291  0.00  0.00     0.095 H 
ATOM     13  H   GC4 d 516      23.166  21.815  -1.654  0.00  0.00     0.210 HD
ATOM     14  H   GC4 d 516      26.582  24.192  -2.868  0.00  0.00     0.210 HD
ATOM     15  H   GC4 d 516      24.027  24.027  -2.082  0.00  0.00     0.093 H 
ATOM     16  H   GC4 d 516      24.862  24.274   0.397  0.00  0.00     0.085 H 
ATOM     17  H   GC4 d 516      27.038  21.281  -2.840  0.00  0.00     0.134 H 
ATOM     18  C6  ASG d 514      28.194  17.923   2.387  0.00  0.00     0.043 C 
ATOM     19  O6  ASG d 514      28.795  18.959   3.150  0.00  0.00    -0.398 OA
ATOM     20  C4  ASG d 514      27.196  19.394   0.561  0.00  0.00     0.114 C 
ATOM     21  O7  ASG d 514      24.708  18.516  -3.472  0.00  0.00    -0.274 OA
ATOM     22  O3  ASG d 514      26.111  20.560  -1.279  0.00  0.00    -0.348 OA
ATOM     23  N   ASG d 514      26.957  18.456  -3.127  0.00  0.00    -0.349 N 
ATOM     24  OSC ASG d 514      25.779  21.022   2.451  0.00  0.00    -0.572 OA
ATOM     25  C8  ASG d 514      26.077  18.769  -5.367  0.00  0.00    -0.003 C 
ATOM     26  O5  ASG d 514      27.774  17.057   0.216  0.00  0.00    -0.349 OA
ATOM     27  O4  ASG d 514      25.889  19.095   1.057  0.00  0.00    -0.246 OA
ATOM     28  C3  ASG d 514      27.133  19.599  -0.964  0.00  0.00     0.094 C 
ATOM     29  C7  ASG d 514      25.876  18.565  -3.907  0.00  0.00     0.214 C 
ATOM     30  OSA ASG d 514      23.948  20.413   1.191  0.00  0.00    -0.572 OA
ATOM     31  OSB ASG d 514      24.668  19.065   3.038  0.00  0.00    -0.572 OA
ATOM     32  S   ASG d 514      25.051  19.894   1.943  0.00  0.00     0.252 S 
ATOM     33  C2  ASG d 514      26.841  18.281  -1.684  0.00  0.00     0.087 C 
ATOM     34  O1  ASG d 514      27.522  16.001  -1.796  0.00  0.00    -0.369 OA
ATOM     35  C5  ASG d 514      28.170  18.260   0.909  0.00  0.00     0.090 C 
ATOM     36  C1  ASG d 514      27.835  17.217  -1.210  0.00  0.00     0.151 C 
ATOM     37  H   ASG d 514      28.749  17.020   2.529  0.00  0.00     0.078 H 
ATOM     38  H   ASG d 514      27.183  17.806   2.719  0.00  0.00     0.078 H 
ATOM     39  H   ASG d 514      29.714  19.080   2.862  0.00  0.00     0.209 HD
ATOM     40  H   ASG d 514      27.549  20.294   1.019  0.00  0.00     0.093 H 
ATOM     41  H   ASG d 514      27.852  18.495  -3.536  0.00  0.00     0.163 HD
ATOM     42  H   ASG d 514      25.126  18.837  -5.852  0.00  0.00     0.040 H 
ATOM     43  H   ASG d 514      26.625  17.944  -5.770  0.00  0.00     0.040 H 
ATOM     44  H   ASG d 514      26.624  19.675  -5.528  0.00  0.00     0.040 H 
ATOM     45  H   ASG d 514      28.084  19.960  -1.295  0.00  0.00     0.091 H 
ATOM     46  H   ASG d 514      25.843  17.970  -1.456  0.00  0.00     0.084 H 
ATOM     47  H   ASG d 514      28.151  15.326  -1.496  0.00  0.00     0.212 HD
ATOM     48  H   ASG d 514      29.141  18.604   0.619  0.00  0.00     0.090 H 
ATOM     49  H   ASG d 514      28.818  17.532  -1.489  0.00  0.00     0.132 H 
ENDROOT
TORSDOF 12
ENDMDL
MODEL 23
REMARK VINA RESULT:      -6.4      2.634      5.759
REMARK  0 active torsions:
REMARK  status: ('A' for Active; 'I' for Inactive)
REMARK       I    between atoms: C6_2  and  C5_28 
REMARK       I    between atoms: C6_2  and  O6_5 
REMARK       I    between atoms: C2_4  and  O2_16 
REMARK       I    between atoms: C5_6  and  C6_24 
REMARK       I    between atoms: C4_7  and  O4_17 
REMARK       I    between atoms: O3_8  and  C3_19 
REMARK       I    between atoms: O3_10  and  C3_18 
REMARK       I    between atoms: O3_10  and  C1_30 
REMARK       I    between atoms: N_11  and  C2_26 
REMARK       I    between atoms: N_11  and  C7_21 
REMARK       I    between atoms: C8_13  and  C7_21 
REMARK       I    between atoms: O4_17  and  S_25 
REMARK       I    between atoms: O1_27  and  C1_29 
ROOT
ATOM      1  O5  GC4 d 516      24.615  23.439  -0.680  0.00  0.00    -0.311 OA
ATOM      2  O6A GC4 d 516      23.173  22.504  -3.977  0.00  0.00    -0.642 OA
ATOM      3  C2  GC4 d 516      26.891  24.248  -0.785  0.00  0.00     0.111 C 
ATOM      4  C5  GC4 d 516      24.484  23.201  -2.096  0.00  0.00     0.147 C 
ATOM      5  O3  GC4 d 516      27.790  22.630  -2.355  0.00  0.00    -0.389 OA
ATOM      6  O6B GC4 d 516      22.260  22.362  -1.986  0.00  0.00    -0.642 OA
ATOM      7  O2  GC4 d 516      26.423  25.587  -0.699  0.00  0.00    -0.388 OA
ATOM      8  C3  GC4 d 516      27.068  23.860  -2.272  0.00  0.00     0.084 C 
ATOM      9  C4  GC4 d 516      25.739  23.423  -2.947  0.00  0.00    -0.034 C 
ATOM     10  C6  GC4 d 516      23.207  22.676  -2.737  0.00  0.00     0.233 C 
ATOM     11  C1  GC4 d 516      25.907  23.291  -0.091  0.00  0.00     0.165 C 
ATOM     12  H   GC4 d 516      27.836  24.171  -0.289  0.00  0.00     0.095 H 
ATOM     13  H   GC4 d 516      28.669  22.745  -1.962  0.00  0.00     0.210 HD
ATOM     14  H   GC4 d 516      25.566  25.659  -1.148  0.00  0.00     0.210 HD
ATOM     15  H   GC4 d 516      27.516  24.720  -2.725  0.00  0.00     0.093 H 
ATOM     16  H   GC4 d 516      25.701  23.283  -3.968  0.00  0.00     0.085 H 
ATOM     17  H   GC4 d 516      25.919  23.602   0.933  0.00  0.00     0.134 H 
ATOM     18  C6  ASG d 514      23.637  17.723   0.530  0.00  0.00     0.043 C 
ATOM     19  O6  ASG d 514      22.526  18.007  -0.308  0.00  0.00    -0.398 OA
ATOM     20  C4  ASG d 514      24.875  19.926   0.196  0.00  0.00     0.114 C 
ATOM     21  O7  ASG d 514      28.937  21.799   1.988  0.00  0.00    -0.274 OA
ATOM     22  O3  ASG d 514      26.274  21.909   0.026  0.00  0.00    -0.348 OA
ATOM     23  N   ASG d 514      26.847  21.765   2.891  0.00  0.00    -0.349 N 
ATOM     24  OSC ASG d 514      24.906  19.637  -2.658  0.00  0.00    -0.572 OA
ATOM     25  C8  ASG d 514      28.456  23.435   3.607  0.00  0.00    -0.003 C 
ATOM     26  O5  ASG d 514      25.124  18.551   2.186  0.00  0.00    -0.349 OA
ATOM     27  O4  ASG d 514      25.889  19.227  -0.529  0.00  0.00    -0.246 OA
ATOM     28  C3  ASG d 514      25.503  21.115   0.944  0.00  0.00     0.094 C 
ATOM     29  C7  ASG d 514      28.084  22.262   2.772  0.00  0.00     0.214 C 
ATOM     30  OSA ASG d 514      27.182  19.867  -2.383  0.00  0.00    -0.572 OA
ATOM     31  OSB ASG d 514      26.147  17.708  -2.273  0.00  0.00    -0.572 OA
ATOM     32  S   ASG d 514      26.046  19.098  -1.972  0.00  0.00     0.252 S 
ATOM     33  C2  ASG d 514      26.400  20.634   2.087  0.00  0.00     0.087 C 
ATOM     34  O1  ASG d 514      26.449  19.151   3.950  0.00  0.00    -0.369 OA
ATOM     35  C5  ASG d 514      24.178  18.979   1.184  0.00  0.00     0.090 C 
ATOM     36  C1  ASG d 514      25.616  19.653   2.964  0.00  0.00     0.151 C 
ATOM     37  H   ASG d 514      23.330  17.039   1.293  0.00  0.00     0.078 H 
ATOM     38  H   ASG d 514      24.412  17.300  -0.073  0.00  0.00     0.078 H 
ATOM     39  H   ASG d 514      21.811  18.393   0.222  0.00  0.00     0.209 HD
ATOM     40  H   ASG d 514      24.142  20.294  -0.491  0.00  0.00     0.093 H 
ATOM     41  H   ASG d 514      26.225  22.173   3.535  0.00  0.00     0.163 HD
ATOM     42  H   ASG d 514      29.468  23.713   3.401  0.00  0.00     0.040 H 
ATOM     43  H   ASG d 514      28.359  23.181   4.642  0.00  0.00     0.040 H 
ATOM     44  H   ASG d 514      27.807  24.255   3.379  0.00  0.00     0.040 H 
ATOM     45  H   ASG d 514      24.715  21.707   1.361  0.00  0.00     0.091 H 
ATOM     46  H   ASG d 514      27.259  20.145   1.677  0.00  0.00     0.084 H 
ATOM     47  H   ASG d 514      25.953  18.529   4.506  0.00  0.00     0.212 HD
ATOM     48  H   ASG d 514      23.360  19.532   1.597  0.00  0.00     0.090 H 
ATOM     49  H   ASG d 514      24.790  20.180   3.395  0.00  0.00     0.132 H 
ENDROOT
TORSDOF 12
ENDMDL
MODEL 24
REMARK VINA RESULT:      -6.4      2.430      5.560
REMARK  0 active torsions:
REMARK  status: ('A' for Active; 'I' for Inactive)
REMARK       I    between atoms: C6_2  and  C5_28 
REMARK       I    between atoms: C6_2  and  O6_5 
REMARK       I    between atoms: C2_4  and  O2_16 
REMARK       I    between atoms: C5_6  and  C6_24 
REMARK       I    between atoms: C4_7  and  O4_17 
REMARK       I    between atoms: O3_8  and  C3_19 
REMARK       I    between atoms: O3_10  and  C3_18 
REMARK       I    between atoms: O3_10  and  C1_30 
REMARK       I    between atoms: N_11  and  C2_26 
REMARK       I    between atoms: N_11  and  C7_21 
REMARK       I    between atoms: C8_13  and  C7_21 
REMARK       I    between atoms: O4_17  and  S_25 
REMARK       I    between atoms: O1_27  and  C1_29 
ROOT
ATOM      1  O5  GC4 d 516      25.423  24.253   0.302  0.00  0.00    -0.311 OA
ATOM      2  O6A GC4 d 516      24.587  26.145  -2.789  0.00  0.00    -0.642 OA
ATOM      3  C2  GC4 d 516      27.772  23.731   0.541  0.00  0.00     0.111 C 
ATOM      4  C5  GC4 d 516      25.558  24.935  -0.962  0.00  0.00     0.147 C 
ATOM      5  O3  GC4 d 516      28.240  23.058  -1.743  0.00  0.00    -0.389 OA
ATOM      6  O6B GC4 d 516      23.241  25.408  -1.220  0.00  0.00    -0.642 OA
ATOM      7  O2  GC4 d 516      27.925  24.818   1.444  0.00  0.00    -0.388 OA
ATOM      8  C3  GC4 d 516      28.126  24.199  -0.890  0.00  0.00     0.084 C 
ATOM      9  C4  GC4 d 516      26.953  24.931  -1.596  0.00  0.00    -0.034 C 
ATOM     10  C6  GC4 d 516      24.383  25.564  -1.698  0.00  0.00     0.233 C 
ATOM     11  C1  GC4 d 516      26.332  23.191   0.592  0.00  0.00     0.165 C 
ATOM     12  H   GC4 d 516      28.434  22.940   0.825  0.00  0.00     0.095 H 
ATOM     13  H   GC4 d 516      28.954  22.485  -1.422  0.00  0.00     0.210 HD
ATOM     14  H   GC4 d 516      27.325  25.537   1.189  0.00  0.00     0.210 HD
ATOM     15  H   GC4 d 516      28.999  24.805  -0.768  0.00  0.00     0.093 H 
ATOM     16  H   GC4 d 516      27.113  25.416  -2.493  0.00  0.00     0.085 H 
ATOM     17  H   GC4 d 516      26.223  22.833   1.594  0.00  0.00     0.134 H 
ATOM     18  C6  ASG d 514      21.800  20.219  -2.084  0.00  0.00     0.043 C 
ATOM     19  O6  ASG d 514      21.169  21.420  -2.505  0.00  0.00    -0.398 OA
ATOM     20  C4  ASG d 514      23.909  21.276  -1.120  0.00  0.00     0.114 C 
ATOM     21  O7  ASG d 514      27.795  19.546   1.146  0.00  0.00    -0.274 OA
ATOM     22  O3  ASG d 514      26.022  22.014  -0.167  0.00  0.00    -0.348 OA
ATOM     23  N   ASG d 514      25.746  20.061   1.993  0.00  0.00    -0.349 N 
ATOM     24  OSC ASG d 514      24.520  22.632  -3.572  0.00  0.00    -0.572 OA
ATOM     25  C8  ASG d 514      27.685  19.999   3.451  0.00  0.00    -0.003 C 
ATOM     26  O5  ASG d 514      23.035  19.133  -0.372  0.00  0.00    -0.349 OA
ATOM     27  O4  ASG d 514      24.666  20.701  -2.188  0.00  0.00    -0.246 OA
ATOM     28  C3  ASG d 514      24.783  21.356   0.145  0.00  0.00     0.094 C 
ATOM     29  C7  ASG d 514      27.062  19.850   2.108  0.00  0.00     0.214 C 
ATOM     30  OSA ASG d 514      26.524  21.510  -3.376  0.00  0.00    -0.572 OA
ATOM     31  OSB ASG d 514      24.664  20.507  -4.507  0.00  0.00    -0.572 OA
ATOM     32  S   ASG d 514      25.104  21.329  -3.428  0.00  0.00     0.252 S 
ATOM     33  C2  ASG d 514      25.068  19.961   0.706  0.00  0.00     0.087 C 
ATOM     34  O1  ASG d 514      24.005  17.914   1.302  0.00  0.00    -0.369 OA
ATOM     35  C5  ASG d 514      22.650  20.440  -0.849  0.00  0.00     0.090 C 
ATOM     36  C1  ASG d 514      23.747  19.206   0.874  0.00  0.00     0.151 C 
ATOM     37  H   ASG d 514      21.048  19.490  -1.863  0.00  0.00     0.078 H 
ATOM     38  H   ASG d 514      22.438  19.881  -2.874  0.00  0.00     0.078 H 
ATOM     39  H   ASG d 514      20.585  21.742  -1.801  0.00  0.00     0.209 HD
ATOM     40  H   ASG d 514      23.604  22.263  -1.396  0.00  0.00     0.093 H 
ATOM     41  H   ASG d 514      25.223  20.290   2.795  0.00  0.00     0.163 HD
ATOM     42  H   ASG d 514      28.734  19.799   3.381  0.00  0.00     0.040 H 
ATOM     43  H   ASG d 514      27.234  19.307   4.131  0.00  0.00     0.040 H 
ATOM     44  H   ASG d 514      27.534  20.997   3.805  0.00  0.00     0.040 H 
ATOM     45  H   ASG d 514      24.253  21.915   0.887  0.00  0.00     0.091 H 
ATOM     46  H   ASG d 514      25.702  19.431   0.026  0.00  0.00     0.084 H 
ATOM     47  H   ASG d 514      23.169  17.435   1.408  0.00  0.00     0.212 HD
ATOM     48  H   ASG d 514      22.078  20.990  -0.131  0.00  0.00     0.090 H 
ATOM     49  H   ASG d 514      23.152  19.733   1.591  0.00  0.00     0.132 H 
ENDROOT
TORSDOF 12
ENDMDL
MODEL 25
REMARK VINA RESULT:      -6.4      2.745      5.440
REMARK  0 active torsions:
REMARK  status: ('A' for Active; 'I' for Inactive)
REMARK       I    between atoms: C6_2  and  C5_28 
REMARK       I    between atoms: C6_2  and  O6_5 
REMARK       I    between atoms: C2_4  and  O2_16 
REMARK       I    between atoms: C5_6  and  C6_24 
REMARK       I    between atoms: C4_7  and  O4_17 
REMARK       I    between atoms: O3_8  and  C3_19 
REMARK       I    between atoms: O3_10  and  C3_18 
REMARK       I    between atoms: O3_10  and  C1_30 
REMARK       I    between atoms: N_11  and  C2_26 
REMARK       I    between atoms: N_11  and  C7_21 
REMARK       I    between atoms: C8_13  and  C7_21 
REMARK       I    between atoms: O4_17  and  S_25 
REMARK       I    between atoms: O1_27  and  C1_29 
ROOT
ATOM      1  O5  GC4 d 516      27.779  23.114  -0.374  0.00  0.00    -0.311 OA
ATOM      2  O6A GC4 d 516      26.587  23.311   3.142  0.00  0.00    -0.642 OA
ATOM      3  C2  GC4 d 516      26.489  24.435  -1.936  0.00  0.00     0.111 C 
ATOM      4  C5  GC4 d 516      26.998  23.464   0.786  0.00  0.00     0.147 C 
ATOM      5  O3  GC4 d 516      24.264  23.902  -1.127  0.00  0.00    -0.389 OA
ATOM      6  O6B GC4 d 516      28.239  22.128   2.314  0.00  0.00    -0.642 OA
ATOM      7  O2  GC4 d 516      27.482  25.452  -1.901  0.00  0.00    -0.388 OA
ATOM      8  C3  GC4 d 516      25.384  24.761  -0.904  0.00  0.00     0.084 C 
ATOM      9  C4  GC4 d 516      25.756  24.328   0.540  0.00  0.00    -0.034 C 
ATOM     10  C6  GC4 d 516      27.311  22.953   2.185  0.00  0.00     0.233 C 
ATOM     11  C1  GC4 d 516      27.118  23.063  -1.638  0.00  0.00     0.165 C 
ATOM     12  H   GC4 d 516      26.056  24.398  -2.913  0.00  0.00     0.095 H 
ATOM     13  H   GC4 d 516      23.909  24.059  -2.016  0.00  0.00     0.210 HD
ATOM     14  H   GC4 d 516      27.877  25.488  -1.016  0.00  0.00     0.210 HD
ATOM     15  H   GC4 d 516      25.220  25.813  -1.006  0.00  0.00     0.093 H 
ATOM     16  H   GC4 d 516      25.167  24.622   1.335  0.00  0.00     0.085 H 
ATOM     17  H   GC4 d 516      27.805  22.911  -2.445  0.00  0.00     0.134 H 
ATOM     18  C6  ASG d 514      26.493  17.371   0.298  0.00  0.00     0.043 C 
ATOM     19  O6  ASG d 514      26.954  17.691   1.602  0.00  0.00    -0.398 OA
ATOM     20  C4  ASG d 514      26.453  19.745  -0.629  0.00  0.00     0.114 C 
ATOM     21  O7  ASG d 514      25.417  21.652  -4.932  0.00  0.00    -0.274 OA
ATOM     22  O3  ASG d 514      26.287  21.899  -1.748  0.00  0.00    -0.348 OA
ATOM     23  N   ASG d 514      27.362  20.722  -4.200  0.00  0.00    -0.349 N 
ATOM     24  OSC ASG d 514      24.758  20.691   1.483  0.00  0.00    -0.572 OA
ATOM     25  C8  ASG d 514      27.382  22.285  -6.057  0.00  0.00    -0.003 C 
ATOM     26  O5  ASG d 514      26.718  17.776  -2.031  0.00  0.00    -0.349 OA
ATOM     27  O4  ASG d 514      25.025  19.691  -0.661  0.00  0.00    -0.246 OA
ATOM     28  C3  ASG d 514      26.960  20.630  -1.782  0.00  0.00     0.094 C 
ATOM     29  C7  ASG d 514      26.654  21.515  -5.013  0.00  0.00     0.214 C 
ATOM     30  OSA ASG d 514      23.406  21.347  -0.264  0.00  0.00    -0.572 OA
ATOM     31  OSB ASG d 514      23.203  19.157   0.685  0.00  0.00    -0.572 OA
ATOM     32  S   ASG d 514      24.076  20.220   0.311  0.00  0.00     0.252 S 
ATOM     33  C2  ASG d 514      26.723  19.957  -3.136  0.00  0.00     0.087 C 
ATOM     34  O1  ASG d 514      27.012  17.896  -4.295  0.00  0.00    -0.369 OA
ATOM     35  C5  ASG d 514      27.042  18.331  -0.739  0.00  0.00     0.090 C 
ATOM     36  C1  ASG d 514      27.298  18.538  -3.102  0.00  0.00     0.151 C 
ATOM     37  H   ASG d 514      26.806  16.378   0.052  0.00  0.00     0.078 H 
ATOM     38  H   ASG d 514      25.425  17.447   0.292  0.00  0.00     0.078 H 
ATOM     39  H   ASG d 514      27.921  17.627   1.628  0.00  0.00     0.209 HD
ATOM     40  H   ASG d 514      26.768  20.170   0.301  0.00  0.00     0.093 H 
ATOM     41  H   ASG d 514      28.336  20.653  -4.323  0.00  0.00     0.163 HD
ATOM     42  H   ASG d 514      26.685  22.868  -6.621  0.00  0.00     0.040 H 
ATOM     43  H   ASG d 514      27.892  21.607  -6.709  0.00  0.00     0.040 H 
ATOM     44  H   ASG d 514      28.094  22.934  -5.590  0.00  0.00     0.040 H 
ATOM     45  H   ASG d 514      28.013  20.775  -1.658  0.00  0.00     0.091 H 
ATOM     46  H   ASG d 514      25.671  19.916  -3.328  0.00  0.00     0.084 H 
ATOM     47  H   ASG d 514      27.375  16.998  -4.274  0.00  0.00     0.212 HD
ATOM     48  H   ASG d 514      28.096  18.437  -0.586  0.00  0.00     0.090 H 
ATOM     49  H   ASG d 514      28.355  18.611  -2.953  0.00  0.00     0.132 H 
ENDROOT
TORSDOF 12
ENDMDL
MODEL 26
REMARK VINA RESULT:      -6.3      3.136      6.461
REMARK  0 active torsions:
REMARK  status: ('A' for Active; 'I' for Inactive)
REMARK       I    between atoms: C6_2  and  C5_28 
REMARK       I    between atoms: C6_2  and  O6_5 
REMARK       I    between atoms: C2_4  and  O2_16 
REMARK       I    between atoms: C5_6  and  C6_24 
REMARK       I    between atoms: C4_7  and  O4_17 
REMARK       I    between atoms: O3_8  and  C3_19 
REMARK       I    between atoms: O3_10  and  C3_18 
REMARK       I    between atoms: O3_10  and  C1_30 
REMARK       I    between atoms: N_11  and  C2_26 
REMARK       I    between atoms: N_11  and  C7_21 
REMARK       I    between atoms: C8_13  and  C7_21 
REMARK       I    between atoms: O4_17  and  S_25 
REMARK       I    between atoms: O1_27  and  C1_29 
ROOT
ATOM      1  O5  GC4 d 516      26.195  21.180   2.715  0.00  0.00    -0.311 OA
ATOM      2  O6A GC4 d 516      28.327  23.715   1.026  0.00  0.00    -0.642 OA
ATOM      3  C2  GC4 d 516      27.363  19.156   3.338  0.00  0.00     0.111 C 
ATOM      4  C5  GC4 d 516      27.339  21.825   2.119  0.00  0.00     0.147 C 
ATOM      5  O3  GC4 d 516      28.666  18.839   1.316  0.00  0.00    -0.389 OA
ATOM      6  O6B GC4 d 516      26.179  23.797   1.466  0.00  0.00    -0.642 OA
ATOM      7  O2  GC4 d 516      27.464  19.624   4.677  0.00  0.00    -0.388 OA
ATOM      8  C3  GC4 d 516      28.646  19.537   2.563  0.00  0.00     0.084 C 
ATOM      9  C4  GC4 d 516      28.626  20.999   2.039  0.00  0.00    -0.034 C 
ATOM     10  C6  GC4 d 516      27.286  23.222   1.516  0.00  0.00     0.233 C 
ATOM     11  C1  GC4 d 516      26.121  19.756   2.655  0.00  0.00     0.165 C 
ATOM     12  H   GC4 d 516      27.259  18.092   3.342  0.00  0.00     0.095 H 
ATOM     13  H   GC4 d 516      28.680  17.884   1.481  0.00  0.00     0.210 HD
ATOM     14  H   GC4 d 516      27.558  20.589   4.676  0.00  0.00     0.210 HD
ATOM     15  H   GC4 d 516      29.444  19.337   3.246  0.00  0.00     0.093 H 
ATOM     16  H   GC4 d 516      29.481  21.414   1.636  0.00  0.00     0.085 H 
ATOM     17  H   GC4 d 516      25.300  19.372   3.224  0.00  0.00     0.134 H 
ATOM     18  C6  ASG d 514      23.237  21.341  -2.415  0.00  0.00     0.043 C 
ATOM     19  O6  ASG d 514      23.637  22.699  -2.300  0.00  0.00    -0.398 OA
ATOM     20  C4  ASG d 514      24.585  20.433  -0.451  0.00  0.00     0.114 C 
ATOM     21  O7  ASG d 514      25.026  16.093   1.597  0.00  0.00    -0.274 OA
ATOM     22  O3  ASG d 514      25.789  19.303   1.335  0.00  0.00    -0.348 OA
ATOM     23  N   ASG d 514      23.427  17.681   1.920  0.00  0.00    -0.349 N 
ATOM     24  OSC ASG d 514      27.052  21.470  -1.484  0.00  0.00    -0.572 OA
ATOM     25  C8  ASG d 514      23.841  16.007   3.627  0.00  0.00    -0.003 C 
ATOM     26  O5  ASG d 514      22.549  19.381  -1.265  0.00  0.00    -0.349 OA
ATOM     27  O4  ASG d 514      25.425  19.735  -1.373  0.00  0.00    -0.246 OA
ATOM     28  C3  ASG d 514      24.474  19.628   0.856  0.00  0.00     0.094 C 
ATOM     29  C7  ASG d 514      24.131  16.608   2.297  0.00  0.00     0.214 C 
ATOM     30  OSA ASG d 514      27.729  19.274  -1.319  0.00  0.00    -0.572 OA
ATOM     31  OSB ASG d 514      26.668  20.081  -3.310  0.00  0.00    -0.572 OA
ATOM     32  S   ASG d 514      26.731  20.130  -1.886  0.00  0.00     0.252 S 
ATOM     33  C2  ASG d 514      23.671  18.343   0.643  0.00  0.00     0.087 C 
ATOM     34  O1  ASG d 514      21.643  17.518  -0.296  0.00  0.00    -0.369 OA
ATOM     35  C5  ASG d 514      23.194  20.656  -1.063  0.00  0.00     0.090 C 
ATOM     36  C1  ASG d 514      22.337  18.686  -0.025  0.00  0.00     0.151 C 
ATOM     37  H   ASG d 514      22.262  21.301  -2.855  0.00  0.00     0.078 H 
ATOM     38  H   ASG d 514      23.953  20.831  -3.026  0.00  0.00     0.078 H 
ATOM     39  H   ASG d 514      22.998  23.178  -1.749  0.00  0.00     0.209 HD
ATOM     40  H   ASG d 514      25.015  21.389  -0.237  0.00  0.00     0.093 H 
ATOM     41  H   ASG d 514      22.728  18.033   2.517  0.00  0.00     0.163 HD
ATOM     42  H   ASG d 514      24.481  15.163   3.783  0.00  0.00     0.040 H 
ATOM     43  H   ASG d 514      22.820  15.691   3.660  0.00  0.00     0.040 H 
ATOM     44  H   ASG d 514      24.016  16.733   4.392  0.00  0.00     0.040 H 
ATOM     45  H   ASG d 514      23.963  20.228   1.580  0.00  0.00     0.091 H 
ATOM     46  H   ASG d 514      24.229  17.680   0.016  0.00  0.00     0.084 H 
ATOM     47  H   ASG d 514      20.799  17.734  -0.720  0.00  0.00     0.212 HD
ATOM     48  H   ASG d 514      22.665  21.283  -0.376  0.00  0.00     0.090 H 
ATOM     49  H   ASG d 514      21.783  19.312   0.641  0.00  0.00     0.132 H 
ENDROOT
TORSDOF 12
ENDMDL
MODEL 27
REMARK VINA RESULT:      -6.3      2.359      5.509
REMARK  0 active torsions:
REMARK  status: ('A' for Active; 'I' for Inactive)
REMARK       I    between atoms: C6_2  and  C5_28 
REMARK       I    between atoms: C6_2  and  O6_5 
REMARK       I    between atoms: C2_4  and  O2_16 
REMARK       I    between atoms: C5_6  and  C6_24 
REMARK       I    between atoms: C4_7  and  O4_17 
REMARK       I    between atoms: O3_8  and  C3_19 
REMARK       I    between atoms: O3_10  and  C3_18 
REMARK       I    between atoms: O3_10  and  C1_30 
REMARK       I    between atoms: N_11  and  C2_26 
REMARK       I    between atoms: N_11  and  C7_21 
REMARK       I    between atoms: C8_13  and  C7_21 
REMARK       I    between atoms: O4_17  and  S_25 
REMARK       I    between atoms: O1_27  and  C1_29 
ROOT
ATOM      1  O5  GC4 d 516      25.679  24.920  -1.396  0.00  0.00    -0.311 OA
ATOM      2  O6A GC4 d 516      25.163  25.532  -5.027  0.00  0.00    -0.642 OA
ATOM      3  C2  GC4 d 516      27.985  24.553  -0.769  0.00  0.00     0.111 C 
ATOM      4  C5  GC4 d 516      25.941  25.090  -2.804  0.00  0.00     0.147 C 
ATOM      5  O3  GC4 d 516      28.640  23.092  -2.593  0.00  0.00    -0.389 OA
ATOM      6  O6B GC4 d 516      23.666  25.406  -3.427  0.00  0.00    -0.642 OA
ATOM      7  O2  GC4 d 516      28.080  25.898  -0.319  0.00  0.00    -0.388 OA
ATOM      8  C3  GC4 d 516      28.476  24.465  -2.233  0.00  0.00     0.084 C 
ATOM      9  C4  GC4 d 516      27.386  24.871  -3.263  0.00  0.00    -0.034 C 
ATOM     10  C6  GC4 d 516      24.850  25.389  -3.823  0.00  0.00     0.233 C 
ATOM     11  C1  GC4 d 516      26.535  24.051  -0.654  0.00  0.00     0.165 C 
ATOM     12  H   GC4 d 516      28.602  23.930  -0.156  0.00  0.00     0.095 H 
ATOM     13  H   GC4 d 516      29.310  22.686  -2.021  0.00  0.00     0.210 HD
ATOM     14  H   GC4 d 516      27.522  26.464  -0.873  0.00  0.00     0.210 HD
ATOM     15  H   GC4 d 516      29.347  25.085  -2.264  0.00  0.00     0.093 H 
ATOM     16  H   GC4 d 516      27.636  24.994  -4.256  0.00  0.00     0.085 H 
ATOM     17  H   GC4 d 516      26.330  24.085   0.395  0.00  0.00     0.134 H 
ATOM     18  C6  ASG d 514      22.196  20.246  -2.450  0.00  0.00     0.043 C 
ATOM     19  O6  ASG d 514      21.632  21.199  -3.339  0.00  0.00    -0.398 OA
ATOM     20  C4  ASG d 514      24.234  21.610  -1.755  0.00  0.00     0.114 C 
ATOM     21  O7  ASG d 514      27.864  20.885   1.331  0.00  0.00    -0.274 OA
ATOM     22  O3  ASG d 514      26.269  22.674  -0.952  0.00  0.00    -0.348 OA
ATOM     23  N   ASG d 514      25.759  21.649   1.739  0.00  0.00    -0.349 N 
ATOM     24  OSC ASG d 514      25.090  21.976  -4.468  0.00  0.00    -0.572 OA
ATOM     25  C8  ASG d 514      27.559  22.152   3.288  0.00  0.00    -0.003 C 
ATOM     26  O5  ASG d 514      23.251  19.881  -0.354  0.00  0.00    -0.349 OA
ATOM     27  O4  ASG d 514      25.070  20.692  -2.463  0.00  0.00    -0.246 OA
ATOM     28  C3  ASG d 514      24.993  22.160  -0.535  0.00  0.00     0.094 C 
ATOM     29  C7  ASG d 514      27.055  21.511   2.043  0.00  0.00     0.214 C 
ATOM     30  OSA ASG d 514      27.043  21.031  -3.692  0.00  0.00    -0.572 OA
ATOM     31  OSB ASG d 514      25.271  19.658  -4.539  0.00  0.00    -0.572 OA
ATOM     32  S   ASG d 514      25.630  20.825  -3.802  0.00  0.00     0.252 S 
ATOM     33  C2  ASG d 514      25.196  21.073   0.523  0.00  0.00     0.087 C 
ATOM     34  O1  ASG d 514      24.041  19.376   1.731  0.00  0.00    -0.369 OA
ATOM     35  C5  ASG d 514      22.938  20.916  -1.311  0.00  0.00     0.090 C 
ATOM     36  C1  ASG d 514      23.850  20.416   0.837  0.00  0.00     0.151 C 
ATOM     37  H   ASG d 514      21.412  19.640  -2.046  0.00  0.00     0.078 H 
ATOM     38  H   ASG d 514      22.895  19.649  -2.999  0.00  0.00     0.078 H 
ATOM     39  H   ASG d 514      20.994  21.750  -2.859  0.00  0.00     0.209 HD
ATOM     40  H   ASG d 514      23.976  22.422  -2.401  0.00  0.00     0.093 H 
ATOM     41  H   ASG d 514      25.172  22.150   2.350  0.00  0.00     0.163 HD
ATOM     42  H   ASG d 514      28.605  21.954   3.392  0.00  0.00     0.040 H 
ATOM     43  H   ASG d 514      27.034  21.753   4.131  0.00  0.00     0.040 H 
ATOM     44  H   ASG d 514      27.399  23.209   3.235  0.00  0.00     0.040 H 
ATOM     45  H   ASG d 514      24.411  22.947  -0.101  0.00  0.00     0.091 H 
ATOM     46  H   ASG d 514      25.877  20.339   0.146  0.00  0.00     0.084 H 
ATOM     47  H   ASG d 514      23.188  18.959   1.929  0.00  0.00     0.212 HD
ATOM     48  H   ASG d 514      22.316  21.684  -0.901  0.00  0.00     0.090 H 
ATOM     49  H   ASG d 514      23.205  21.162   1.252  0.00  0.00     0.132 H 
ENDROOT
TORSDOF 12
ENDMDL
MODEL 28
REMARK VINA RESULT:      -6.2      2.011      2.765
REMARK  0 active torsions:
REMARK  status: ('A' for Active; 'I' for Inactive)
REMARK       I    between atoms: C6_2  and  C5_28 
REMARK       I    between atoms: C6_2  and  O6_5 
REMARK       I    between atoms: C2_4  and  O2_16 
REMARK       I    between atoms: C5_6  and  C6_24 
REMARK       I    between atoms: C4_7  and  O4_17 
REMARK       I    between atoms: O3_8  and  C3_19 
REMARK       I    between atoms: O3_10  and  C3_18 
REMARK       I    between atoms: O3_10  and  C1_30 
REMARK       I    between atoms: N_11  and  C2_26 
REMARK       I    between atoms: N_11  and  C7_21 
REMARK       I    between atoms: C8_13  and  C7_21 
REMARK       I    between atoms: O4_17  and  S_25 
REMARK       I    between atoms: O1_27  and  C1_29 
ROOT
ATOM      1  O5  GC4 d 516      28.261  23.032  -3.318  0.00  0.00    -0.311 OA
ATOM      2  O6A GC4 d 516      27.499  26.379  -4.749  0.00  0.00    -0.642 OA
ATOM      3  C2  GC4 d 516      27.116  21.203  -4.408  0.00  0.00     0.111 C 
ATOM      4  C5  GC4 d 516      27.690  24.068  -4.144  0.00  0.00     0.147 C 
ATOM      5  O3  GC4 d 516      24.923  22.217  -4.636  0.00  0.00    -0.389 OA
ATOM      6  O6B GC4 d 516      28.782  25.872  -3.042  0.00  0.00    -0.642 OA
ATOM      7  O2  GC4 d 516      28.294  20.899  -5.143  0.00  0.00    -0.388 OA
ATOM      8  C3  GC4 d 516      26.212  22.135  -5.248  0.00  0.00     0.084 C 
ATOM      9  C4  GC4 d 516      26.633  23.627  -5.161  0.00  0.00    -0.034 C 
ATOM     10  C6  GC4 d 516      28.033  25.543  -3.985  0.00  0.00     0.233 C 
ATOM     11  C1  GC4 d 516      27.477  21.866  -3.068  0.00  0.00     0.165 C 
ATOM     12  H   GC4 d 516      26.586  20.297  -4.199  0.00  0.00     0.095 H 
ATOM     13  H   GC4 d 516      24.518  21.336  -4.615  0.00  0.00     0.210 HD
ATOM     14  H   GC4 d 516      28.776  21.719  -5.334  0.00  0.00     0.210 HD
ATOM     15  H   GC4 d 516      26.256  21.734  -6.239  0.00  0.00     0.093 H 
ATOM     16  H   GC4 d 516      26.201  24.322  -5.789  0.00  0.00     0.085 H 
ATOM     17  H   GC4 d 516      28.033  21.114  -2.546  0.00  0.00     0.134 H 
ATOM     18  C6  ASG d 514      25.903  25.411   1.568  0.00  0.00     0.043 C 
ATOM     19  O6  ASG d 514      26.550  26.545   1.010  0.00  0.00    -0.398 OA
ATOM     20  C4  ASG d 514      26.254  23.830  -0.400  0.00  0.00     0.114 C 
ATOM     21  O7  ASG d 514      25.196  19.200  -1.217  0.00  0.00    -0.274 OA
ATOM     22  O3  ASG d 514      26.419  22.135  -2.138  0.00  0.00    -0.348 OA
ATOM     23  N   ASG d 514      26.974  20.097  -0.114  0.00  0.00    -0.349 N 
ATOM     24  OSC ASG d 514      25.014  25.634  -2.253  0.00  0.00    -0.572 OA
ATOM     25  C8  ASG d 514      27.125  17.864  -1.053  0.00  0.00    -0.003 C 
ATOM     26  O5  ASG d 514      25.967  23.059   1.888  0.00  0.00    -0.349 OA
ATOM     27  O4  ASG d 514      24.850  23.870  -0.663  0.00  0.00    -0.246 OA
ATOM     28  C3  ASG d 514      26.811  22.449  -0.791  0.00  0.00     0.094 C 
ATOM     29  C7  ASG d 514      26.365  19.115  -0.789  0.00  0.00     0.214 C 
ATOM     30  OSA ASG d 514      23.654  23.825  -2.684  0.00  0.00    -0.572 OA
ATOM     31  OSB ASG d 514      23.105  25.383  -0.948  0.00  0.00    -0.572 OA
ATOM     32  S   ASG d 514      24.134  24.680  -1.640  0.00  0.00     0.252 S 
ATOM     33  C2  ASG d 514      26.305  21.363   0.161  0.00  0.00     0.087 C 
ATOM     34  O1  ASG d 514      26.046  20.850   2.472  0.00  0.00    -0.369 OA
ATOM     35  C5  ASG d 514      26.528  24.118   1.083  0.00  0.00     0.090 C 
ATOM     36  C1  ASG d 514      26.578  21.790   1.605  0.00  0.00     0.151 C 
ATOM     37  H   ASG d 514      25.979  25.456   2.634  0.00  0.00     0.078 H 
ATOM     38  H   ASG d 514      24.878  25.424   1.258  0.00  0.00     0.078 H 
ATOM     39  H   ASG d 514      27.482  26.551   1.281  0.00  0.00     0.209 HD
ATOM     40  H   ASG d 514      26.743  24.581  -0.984  0.00  0.00     0.093 H 
ATOM     41  H   ASG d 514      27.896  19.963   0.204  0.00  0.00     0.163 HD
ATOM     42  H   ASG d 514      26.507  17.180  -1.597  0.00  0.00     0.040 H 
ATOM     43  H   ASG d 514      27.415  17.421  -0.124  0.00  0.00     0.040 H 
ATOM     44  H   ASG d 514      27.998  18.092  -1.628  0.00  0.00     0.040 H 
ATOM     45  H   ASG d 514      27.879  22.484  -0.724  0.00  0.00     0.091 H 
ATOM     46  H   ASG d 514      25.253  21.232   0.015  0.00  0.00     0.084 H 
ATOM     47  H   ASG d 514      26.218  21.120   3.387  0.00  0.00     0.212 HD
ATOM     48  H   ASG d 514      27.591  24.192   1.179  0.00  0.00     0.090 H 
ATOM     49  H   ASG d 514      27.637  21.871   1.733  0.00  0.00     0.132 H 
ENDROOT
TORSDOF 12
ENDMDL
MODEL 29
REMARK VINA RESULT:      -6.2      3.285      6.612
REMARK  0 active torsions:
REMARK  status: ('A' for Active; 'I' for Inactive)
REMARK       I    between atoms: C6_2  and  C5_28 
REMARK       I    between atoms: C6_2  and  O6_5 
REMARK       I    between atoms: C2_4  and  O2_16 
REMARK       I    between atoms: C5_6  and  C6_24 
REMARK       I    between atoms: C4_7  and  O4_17 
REMARK       I    between atoms: O3_8  and  C3_19 
REMARK       I    between atoms: O3_10  and  C3_18 
REMARK       I    between atoms: O3_10  and  C1_30 
REMARK       I    between atoms: N_11  and  C2_26 
REMARK       I    between atoms: N_11  and  C7_21 
REMARK       I    between atoms: C8_13  and  C7_21 
REMARK       I    between atoms: O4_17  and  S_25 
REMARK       I    between atoms: O1_27  and  C1_29 
ROOT
ATOM      1  O5  GC4 d 516      23.355  19.896   0.165  0.00  0.00    -0.311 OA
ATOM      2  O6A GC4 d 516      22.773  16.465  -1.144  0.00  0.00    -0.642 OA
ATOM      3  C2  GC4 d 516      23.572  21.589  -1.548  0.00  0.00     0.111 C 
ATOM      4  C5  GC4 d 516      23.166  18.796  -0.747  0.00  0.00     0.147 C 
ATOM      5  O3  GC4 d 516      24.984  20.370  -3.100  0.00  0.00    -0.389 OA
ATOM      6  O6B GC4 d 516      22.998  17.124   0.938  0.00  0.00    -0.642 OA
ATOM      7  O2  GC4 d 516      22.224  21.985  -1.332  0.00  0.00    -0.388 OA
ATOM      8  C3  GC4 d 516      23.625  20.559  -2.702  0.00  0.00     0.084 C 
ATOM      9  C4  GC4 d 516      23.290  19.115  -2.241  0.00  0.00    -0.034 C 
ATOM     10  C6  GC4 d 516      22.937  17.363  -0.286  0.00  0.00     0.233 C 
ATOM     11  C1  GC4 d 516      24.167  20.990  -0.262  0.00  0.00     0.165 C 
ATOM     12  H   GC4 d 516      24.153  22.445  -1.817  0.00  0.00     0.095 H 
ATOM     13  H   GC4 d 516      25.346  21.210  -3.423  0.00  0.00     0.210 HD
ATOM     14  H   GC4 d 516      21.694  21.210  -1.088  0.00  0.00     0.210 HD
ATOM     15  H   GC4 d 516      22.950  20.942  -3.438  0.00  0.00     0.093 H 
ATOM     16  H   GC4 d 516      23.149  18.370  -2.940  0.00  0.00     0.085 H 
ATOM     17  H   GC4 d 516      24.147  21.801   0.436  0.00  0.00     0.134 H 
ATOM     18  C6  ASG d 514      28.244  17.409   2.400  0.00  0.00     0.043 C 
ATOM     19  O6  ASG d 514      27.329  16.329   2.506  0.00  0.00    -0.398 OA
ATOM     20  C4  ASG d 514      26.751  18.976   1.053  0.00  0.00     0.114 C 
ATOM     21  O7  ASG d 514      27.242  23.469  -0.617  0.00  0.00    -0.274 OA
ATOM     22  O3  ASG d 514      25.558  20.643  -0.257  0.00  0.00    -0.348 OA
ATOM     23  N   ASG d 514      26.617  22.764   1.455  0.00  0.00    -0.349 N 
ATOM     24  OSC ASG d 514      26.327  17.026  -1.008  0.00  0.00    -0.572 OA
ATOM     25  C8  ASG d 514      26.000  24.982   0.686  0.00  0.00    -0.003 C 
ATOM     26  O5  ASG d 514      28.541  19.763   2.498  0.00  0.00    -0.349 OA
ATOM     27  O4  ASG d 514      27.612  18.799  -0.074  0.00  0.00    -0.246 OA
ATOM     28  C3  ASG d 514      26.154  20.394   1.027  0.00  0.00     0.094 C 
ATOM     29  C7  ASG d 514      26.670  23.671   0.473  0.00  0.00     0.214 C 
ATOM     30  OSA ASG d 514      27.144  18.692  -2.374  0.00  0.00    -0.572 OA
ATOM     31  OSB ASG d 514      28.628  17.125  -1.332  0.00  0.00    -0.572 OA
ATOM     32  S   ASG d 514      27.441  17.907  -1.214  0.00  0.00     0.252 S 
ATOM     33  C2  ASG d 514      27.227  21.448   1.311  0.00  0.00     0.087 C 
ATOM     34  O1  ASG d 514      28.997  21.982   2.812  0.00  0.00    -0.369 OA
ATOM     35  C5  ASG d 514      27.528  18.745   2.357  0.00  0.00     0.090 C 
ATOM     36  C1  ASG d 514      27.970  21.077   2.597  0.00  0.00     0.151 C 
ATOM     37  H   ASG d 514      28.900  17.394   3.245  0.00  0.00     0.078 H 
ATOM     38  H   ASG d 514      28.793  17.295   1.489  0.00  0.00     0.078 H 
ATOM     39  H   ASG d 514      26.821  16.416   3.328  0.00  0.00     0.209 HD
ATOM     40  H   ASG d 514      25.957  18.261   1.004  0.00  0.00     0.093 H 
ATOM     41  H   ASG d 514      26.156  22.991   2.295  0.00  0.00     0.163 HD
ATOM     42  H   ASG d 514      26.129  25.594  -0.182  0.00  0.00     0.040 H 
ATOM     43  H   ASG d 514      26.433  25.469   1.534  0.00  0.00     0.040 H 
ATOM     44  H   ASG d 514      24.956  24.824   0.859  0.00  0.00     0.040 H 
ATOM     45  H   ASG d 514      25.408  20.460   1.791  0.00  0.00     0.091 H 
ATOM     46  H   ASG d 514      27.915  21.477   0.492  0.00  0.00     0.084 H 
ATOM     47  H   ASG d 514      29.468  21.747   3.627  0.00  0.00     0.212 HD
ATOM     48  H   ASG d 514      26.802  18.772   3.143  0.00  0.00     0.090 H 
ATOM     49  H   ASG d 514      27.268  21.098   3.404  0.00  0.00     0.132 H 
ENDROOT
TORSDOF 12
ENDMDL
MODEL 30
REMARK VINA RESULT:      -6.2      3.836      7.726
REMARK  0 active torsions:
REMARK  status: ('A' for Active; 'I' for Inactive)
REMARK       I    between atoms: C6_2  and  C5_28 
REMARK       I    between atoms: C6_2  and  O6_5 
REMARK       I    between atoms: C2_4  and  O2_16 
REMARK       I    between atoms: C5_6  and  C6_24 
REMARK       I    between atoms: C4_7  and  O4_17 
REMARK       I    between atoms: O3_8  and  C3_19 
REMARK       I    between atoms: O3_10  and  C3_18 
REMARK       I    between atoms: O3_10  and  C1_30 
REMARK       I    between atoms: N_11  and  C2_26 
REMARK       I    between atoms: N_11  and  C7_21 
REMARK       I    between atoms: C8_13  and  C7_21 
REMARK       I    between atoms: O4_17  and  S_25 
REMARK       I    between atoms: O1_27  and  C1_29 
ROOT
ATOM      1  O5  GC4 d 516      24.076  21.830  -4.117  0.00  0.00    -0.311 OA
ATOM      2  O6A GC4 d 516      20.829  20.890  -2.568  0.00  0.00    -0.642 OA
ATOM      3  C2  GC4 d 516      25.930  21.909  -2.566  0.00  0.00     0.111 C 
ATOM      4  C5  GC4 d 516      23.087  21.460  -3.135  0.00  0.00     0.147 C 
ATOM      5  O3  GC4 d 516      24.824  23.032  -0.720  0.00  0.00    -0.389 OA
ATOM      6  O6B GC4 d 516      21.255  21.427  -4.653  0.00  0.00    -0.642 OA
ATOM      7  O2  GC4 d 516      26.356  20.626  -3.005  0.00  0.00    -0.388 OA
ATOM      8  C3  GC4 d 516      25.026  21.751  -1.320  0.00  0.00     0.084 C 
ATOM      9  C4  GC4 d 516      23.556  21.401  -1.678  0.00  0.00    -0.034 C 
ATOM     10  C6  GC4 d 516      21.624  21.217  -3.479  0.00  0.00     0.233 C 
ATOM     11  C1  GC4 d 516      25.174  22.636  -3.691  0.00  0.00     0.165 C 
ATOM     12  H   GC4 d 516      26.785  22.496  -2.305  0.00  0.00     0.095 H 
ATOM     13  H   GC4 d 516      25.678  23.393  -0.435  0.00  0.00     0.210 HD
ATOM     14  H   GC4 d 516      25.582  20.092  -3.242  0.00  0.00     0.210 HD
ATOM     15  H   GC4 d 516      25.512  21.005  -0.726  0.00  0.00     0.093 H 
ATOM     16  H   GC4 d 516      22.895  21.127  -0.934  0.00  0.00     0.085 H 
ATOM     17  H   GC4 d 516      25.907  22.755  -4.462  0.00  0.00     0.134 H 
ATOM     18  C6  ASG d 514      21.169  26.830  -5.395  0.00  0.00     0.043 C 
ATOM     19  O6  ASG d 514      20.121  25.878  -5.520  0.00  0.00    -0.398 OA
ATOM     20  C4  ASG d 514      22.928  25.259  -4.430  0.00  0.00     0.114 C 
ATOM     21  O7  ASG d 514      27.549  25.769  -3.160  0.00  0.00    -0.274 OA
ATOM     22  O3  ASG d 514      24.772  23.995  -3.469  0.00  0.00    -0.348 OA
ATOM     23  N   ASG d 514      26.655  25.389  -5.219  0.00  0.00    -0.349 N 
ATOM     24  OSC ASG d 514      21.226  24.456  -2.265  0.00  0.00    -0.572 OA
ATOM     25  C8  ASG d 514      28.966  24.797  -4.766  0.00  0.00    -0.003 C 
ATOM     26  O5  ASG d 514      23.485  27.267  -5.684  0.00  0.00    -0.349 OA
ATOM     27  O4  ASG d 514      22.836  25.950  -3.182  0.00  0.00    -0.246 OA
ATOM     28  C3  ASG d 514      24.364  24.742  -4.627  0.00  0.00     0.094 C 
ATOM     29  C7  ASG d 514      27.658  25.360  -4.333  0.00  0.00     0.214 C 
ATOM     30  OSA ASG d 514      22.992  25.173  -0.970  0.00  0.00    -0.572 OA
ATOM     31  OSB ASG d 514      21.264  26.694  -1.636  0.00  0.00    -0.572 OA
ATOM     32  S   ASG d 514      22.077  25.579  -1.994  0.00  0.00     0.252 S 
ATOM     33  C2  ASG d 514      25.337  25.900  -4.862  0.00  0.00     0.087 C 
ATOM     34  O1  ASG d 514      25.637  27.881  -6.149  0.00  0.00    -0.369 OA
ATOM     35  C5  ASG d 514      22.529  26.189  -5.585  0.00  0.00     0.090 C 
ATOM     36  C1  ASG d 514      24.803  26.787  -5.990  0.00  0.00     0.151 C 
ATOM     37  H   ASG d 514      21.037  27.591  -6.136  0.00  0.00     0.078 H 
ATOM     38  H   ASG d 514      21.128  27.245  -4.410  0.00  0.00     0.078 H 
ATOM     39  H   ASG d 514      20.142  25.490  -6.409  0.00  0.00     0.209 HD
ATOM     40  H   ASG d 514      22.256  24.427  -4.421  0.00  0.00     0.093 H 
ATOM     41  H   ASG d 514      26.811  25.057  -6.133  0.00  0.00     0.163 HD
ATOM     42  H   ASG d 514      29.660  24.843  -3.953  0.00  0.00     0.040 H 
ATOM     43  H   ASG d 514      29.343  25.366  -5.590  0.00  0.00     0.040 H 
ATOM     44  H   ASG d 514      28.834  23.779  -5.066  0.00  0.00     0.040 H 
ATOM     45  H   ASG d 514      24.380  24.110  -5.490  0.00  0.00     0.091 H 
ATOM     46  H   ASG d 514      25.425  26.473  -3.963  0.00  0.00     0.084 H 
ATOM     47  H   ASG d 514      25.299  28.444  -6.863  0.00  0.00     0.212 HD
ATOM     48  H   ASG d 514      22.503  25.577  -6.462  0.00  0.00     0.090 H 
ATOM     49  H   ASG d 514      24.768  26.202  -6.885  0.00  0.00     0.132 H 
ENDROOT
TORSDOF 12
ENDMDL
MODEL 31
REMARK VINA RESULT:      -6.1      2.727      5.362
REMARK  0 active torsions:
REMARK  status: ('A' for Active; 'I' for Inactive)
REMARK       I    between atoms: C6_2  and  C5_28 
REMARK       I    between atoms: C6_2  and  O6_5 
REMARK       I    between atoms: C2_4  and  O2_16 
REMARK       I    between atoms: C5_6  and  C6_24 
REMARK       I    between atoms: C4_7  and  O4_17 
REMARK       I    between atoms: O3_8  and  C3_19 
REMARK       I    between atoms: O3_10  and  C3_18 
REMARK       I    between atoms: O3_10  and  C1_30 
REMARK       I    between atoms: N_11  and  C2_26 
REMARK       I    between atoms: N_11  and  C7_21 
REMARK       I    between atoms: C8_13  and  C7_21 
REMARK       I    between atoms: O4_17  and  S_25 
REMARK       I    between atoms: O1_27  and  C1_29 
ROOT
ATOM      1  O5  GC4 d 516      24.849  24.963  -3.736  0.00  0.00    -0.311 OA
ATOM      2  O6A GC4 d 516      21.920  23.942  -1.684  0.00  0.00    -0.642 OA
ATOM      3  C2  GC4 d 516      25.336  23.475  -5.579  0.00  0.00     0.111 C 
ATOM      4  C5  GC4 d 516      23.718  24.213  -3.245  0.00  0.00     0.147 C 
ATOM      5  O3  GC4 d 516      25.033  21.355  -4.438  0.00  0.00    -0.389 OA
ATOM      6  O6B GC4 d 516      23.266  25.652  -1.405  0.00  0.00    -0.642 OA
ATOM      7  O2  GC4 d 516      24.690  24.369  -6.476  0.00  0.00    -0.388 OA
ATOM      8  C3  GC4 d 516      24.328  22.400  -5.111  0.00  0.00     0.084 C 
ATOM      9  C4  GC4 d 516      23.419  22.885  -3.949  0.00  0.00    -0.034 C 
ATOM     10  C6  GC4 d 516      22.893  24.645  -2.041  0.00  0.00     0.233 C 
ATOM     11  C1  GC4 d 516      25.904  24.244  -4.373  0.00  0.00     0.165 C 
ATOM     12  H   GC4 d 516      26.150  22.997  -6.082  0.00  0.00     0.095 H 
ATOM     13  H   GC4 d 516      25.660  20.941  -5.052  0.00  0.00     0.210 HD
ATOM     14  H   GC4 d 516      23.952  24.805  -6.022  0.00  0.00     0.210 HD
ATOM     15  H   GC4 d 516      23.788  22.132  -5.994  0.00  0.00     0.093 H 
ATOM     16  H   GC4 d 516      22.614  22.314  -3.650  0.00  0.00     0.085 H 
ATOM     17  H   GC4 d 516      26.634  24.899  -4.802  0.00  0.00     0.134 H 
ATOM     18  C6  ASG d 514      27.739  24.255   1.386  0.00  0.00     0.043 C 
ATOM     19  O6  ASG d 514      26.494  24.752   1.854  0.00  0.00    -0.398 OA
ATOM     20  C4  ASG d 514      27.074  23.945  -1.055  0.00  0.00     0.114 C 
ATOM     21  O7  ASG d 514      29.415  22.513  -5.016  0.00  0.00    -0.274 OA
ATOM     22  O3  ASG d 514      26.696  23.521  -3.420  0.00  0.00    -0.348 OA
ATOM     23  N   ASG d 514      29.352  24.572  -4.047  0.00  0.00    -0.349 N 
ATOM     24  OSC ASG d 514      24.837  22.282  -0.380  0.00  0.00    -0.572 OA
ATOM     25  C8  ASG d 514      29.915  24.350  -6.397  0.00  0.00    -0.003 C 
ATOM     26  O5  ASG d 514      29.368  24.320  -0.341  0.00  0.00    -0.349 OA
ATOM     27  O4  ASG d 514      27.151  22.529  -0.879  0.00  0.00    -0.246 OA
ATOM     28  C3  ASG d 514      27.468  24.307  -2.498  0.00  0.00     0.094 C 
ATOM     29  C7  ASG d 514      29.544  23.752  -5.086  0.00  0.00     0.214 C 
ATOM     30  OSA ASG d 514      25.870  20.786  -1.796  0.00  0.00    -0.572 OA
ATOM     31  OSB ASG d 514      26.412  20.838   0.538  0.00  0.00    -0.572 OA
ATOM     32  S   ASG d 514      26.069  21.587  -0.625  0.00  0.00     0.252 S 
ATOM     33  C2  ASG d 514      28.960  24.064  -2.737  0.00  0.00     0.087 C 
ATOM     34  O1  ASG d 514      31.113  24.483  -1.809  0.00  0.00    -0.369 OA
ATOM     35  C5  ASG d 514      27.994  24.657  -0.053  0.00  0.00     0.090 C 
ATOM     36  C1  ASG d 514      29.768  24.769  -1.645  0.00  0.00     0.151 C 
ATOM     37  H   ASG d 514      28.523  24.646   2.000  0.00  0.00     0.078 H 
ATOM     38  H   ASG d 514      27.714  23.186   1.435  0.00  0.00     0.078 H 
ATOM     39  H   ASG d 514      26.498  25.721   1.818  0.00  0.00     0.209 HD
ATOM     40  H   ASG d 514      26.070  24.267  -0.877  0.00  0.00     0.093 H 
ATOM     41  H   ASG d 514      29.479  25.540  -4.168  0.00  0.00     0.163 HD
ATOM     42  H   ASG d 514      30.033  23.573  -7.123  0.00  0.00     0.040 H 
ATOM     43  H   ASG d 514      30.836  24.886  -6.296  0.00  0.00     0.040 H 
ATOM     44  H   ASG d 514      29.145  25.021  -6.714  0.00  0.00     0.040 H 
ATOM     45  H   ASG d 514      27.268  25.347  -2.652  0.00  0.00     0.091 H 
ATOM     46  H   ASG d 514      29.154  23.012  -2.707  0.00  0.00     0.084 H 
ATOM     47  H   ASG d 514      31.625  24.929  -1.117  0.00  0.00     0.212 HD
ATOM     48  H   ASG d 514      27.794  25.703  -0.159  0.00  0.00     0.090 H 
ATOM     49  H   ASG d 514      29.590  25.821  -1.727  0.00  0.00     0.132 H 
ENDROOT
TORSDOF 12
ENDMDL
MODEL 32
REMARK VINA RESULT:      -6.0      2.580      5.015
REMARK  0 active torsions:
REMARK  status: ('A' for Active; 'I' for Inactive)
REMARK       I    between atoms: C6_2  and  C5_28 
REMARK       I    between atoms: C6_2  and  O6_5 
REMARK       I    between atoms: C2_4  and  O2_16 
REMARK       I    between atoms: C5_6  and  C6_24 
REMARK       I    between atoms: C4_7  and  O4_17 
REMARK       I    between atoms: O3_8  and  C3_19 
REMARK       I    between atoms: O3_10  and  C3_18 
REMARK       I    between atoms: O3_10  and  C1_30 
REMARK       I    between atoms: N_11  and  C2_26 
REMARK       I    between atoms: N_11  and  C7_21 
REMARK       I    between atoms: C8_13  and  C7_21 
REMARK       I    between atoms: O4_17  and  S_25 
REMARK       I    between atoms: O1_27  and  C1_29 
ROOT
ATOM      1  O5  GC4 d 516      27.130  19.799  -2.266  0.00  0.00    -0.311 OA
ATOM      2  O6A GC4 d 516      25.546  20.522  -5.552  0.00  0.00    -0.642 OA
ATOM      3  C2  GC4 d 516      26.076  18.008  -1.029  0.00  0.00     0.111 C 
ATOM      4  C5  GC4 d 516      26.232  19.739  -3.393  0.00  0.00     0.147 C 
ATOM      5  O3  GC4 d 516      23.755  18.599  -1.422  0.00  0.00    -0.389 OA
ATOM      6  O6B GC4 d 516      27.241  21.531  -4.590  0.00  0.00    -0.642 OA
ATOM      7  O2  GC4 d 516      27.093  17.111  -1.455  0.00  0.00    -0.388 OA
ATOM      8  C3  GC4 d 516      24.870  17.914  -1.994  0.00  0.00     0.084 C 
ATOM      9  C4  GC4 d 516      25.058  18.761  -3.282  0.00  0.00    -0.034 C 
ATOM     10  C6  GC4 d 516      26.363  20.644  -4.610  0.00  0.00     0.233 C 
ATOM     11  C1  GC4 d 516      26.617  19.447  -0.981  0.00  0.00     0.165 C 
ATOM     12  H   GC4 d 516      25.757  17.740  -0.044  0.00  0.00     0.095 H 
ATOM     13  H   GC4 d 516      23.510  18.175  -0.584  0.00  0.00     0.210 HD
ATOM     14  H   GC4 d 516      27.384  17.353  -2.348  0.00  0.00     0.210 HD
ATOM     15  H   GC4 d 516      24.756  16.867  -2.182  0.00  0.00     0.093 H 
ATOM     16  H   GC4 d 516      24.391  18.664  -4.064  0.00  0.00     0.085 H 
ATOM     17  H   GC4 d 516      27.387  19.411  -0.239  0.00  0.00     0.134 H 
ATOM     18  C6  ASG d 514      25.575  25.399  -1.125  0.00  0.00     0.043 C 
ATOM     19  O6  ASG d 514      25.893  25.492  -2.506  0.00  0.00    -0.398 OA
ATOM     20  C4  ASG d 514      25.725  22.863  -0.921  0.00  0.00     0.114 C 
ATOM     21  O7  ASG d 514      25.261  19.757   2.733  0.00  0.00    -0.274 OA
ATOM     22  O3  ASG d 514      25.765  20.475  -0.458  0.00  0.00    -0.348 OA
ATOM     23  N   ASG d 514      27.074  20.982   2.108  0.00  0.00    -0.349 N 
ATOM     24  OSC ASG d 514      23.831  22.441  -3.034  0.00  0.00    -0.572 OA
ATOM     25  C8  ASG d 514      27.364  18.964   3.424  0.00  0.00    -0.003 C 
ATOM     26  O5  ASG d 514      26.082  24.370   0.954  0.00  0.00    -0.349 OA
ATOM     27  O4  ASG d 514      24.309  22.811  -0.731  0.00  0.00    -0.246 OA
ATOM     28  C3  ASG d 514      26.393  21.725  -0.128  0.00  0.00     0.094 C 
ATOM     29  C7  ASG d 514      26.493  19.946   2.725  0.00  0.00     0.214 C 
ATOM     30  OSA ASG d 514      22.714  21.230  -1.422  0.00  0.00    -0.572 OA
ATOM     31  OSB ASG d 514      22.326  23.581  -1.676  0.00  0.00    -0.572 OA
ATOM     32  S   ASG d 514      23.273  22.516  -1.713  0.00  0.00     0.252 S 
ATOM     33  C2  ASG d 514      26.291  21.972   1.379  0.00  0.00     0.087 C 
ATOM     34  O1  ASG d 514      26.640  23.637   3.046  0.00  0.00    -0.369 OA
ATOM     35  C5  ASG d 514      26.273  24.225  -0.469  0.00  0.00     0.090 C 
ATOM     36  C1  ASG d 514      26.808  23.378   1.696  0.00  0.00     0.151 C 
ATOM     37  H   ASG d 514      25.879  26.302  -0.637  0.00  0.00     0.078 H 
ATOM     38  H   ASG d 514      24.518  25.254  -1.033  0.00  0.00     0.078 H 
ATOM     39  H   ASG d 514      26.848  25.624  -2.609  0.00  0.00     0.209 HD
ATOM     40  H   ASG d 514      25.945  22.740  -1.961  0.00  0.00     0.093 H 
ATOM     41  H   ASG d 514      28.053  21.078   2.146  0.00  0.00     0.163 HD
ATOM     42  H   ASG d 514      26.757  18.200   3.865  0.00  0.00     0.040 H 
ATOM     43  H   ASG d 514      27.921  19.462   4.189  0.00  0.00     0.040 H 
ATOM     44  H   ASG d 514      28.039  18.521   2.721  0.00  0.00     0.040 H 
ATOM     45  H   ASG d 514      27.429  21.692  -0.394  0.00  0.00     0.091 H 
ATOM     46  H   ASG d 514      25.267  21.887   1.680  0.00  0.00     0.084 H 
ATOM     47  H   ASG d 514      26.966  24.527   3.248  0.00  0.00     0.212 HD
ATOM     48  H   ASG d 514      27.305  24.237  -0.752  0.00  0.00     0.090 H 
ATOM     49  H   ASG d 514      27.842  23.420   1.426  0.00  0.00     0.132 H 
ENDROOT
TORSDOF 12
ENDMDL
MODEL 33
REMARK VINA RESULT:      -6.0      3.226      6.935
REMARK  0 active torsions:
REMARK  status: ('A' for Active; 'I' for Inactive)
REMARK       I    between atoms: C6_2  and  C5_28 
REMARK       I    between atoms: C6_2  and  O6_5 
REMARK       I    between atoms: C2_4  and  O2_16 
REMARK       I    between atoms: C5_6  and  C6_24 
REMARK       I    between atoms: C4_7  and  O4_17 
REMARK       I    between atoms: O3_8  and  C3_19 
REMARK       I    between atoms: O3_10  and  C3_18 
REMARK       I    between atoms: O3_10  and  C1_30 
REMARK       I    between atoms: N_11  and  C2_26 
REMARK       I    between atoms: N_11  and  C7_21 
REMARK       I    between atoms: C8_13  and  C7_21 
REMARK       I    between atoms: O4_17  and  S_25 
REMARK       I    between atoms: O1_27  and  C1_29 
ROOT
ATOM      1  O5  GC4 d 516      23.888  18.395   1.051  0.00  0.00    -0.311 OA
ATOM      2  O6A GC4 d 516      24.870  16.514   4.105  0.00  0.00    -0.642 OA
ATOM      3  C2  GC4 d 516      24.170  17.161  -1.009  0.00  0.00     0.111 C 
ATOM      4  C5  GC4 d 516      24.374  17.345   1.912  0.00  0.00     0.147 C 
ATOM      5  O3  GC4 d 516      26.335  16.164  -0.553  0.00  0.00    -0.389 OA
ATOM      6  O6B GC4 d 516      24.139  18.577   3.935  0.00  0.00    -0.642 OA
ATOM      7  O2  GC4 d 516      22.780  16.865  -1.026  0.00  0.00    -0.388 OA
ATOM      8  C3  GC4 d 516      24.934  16.000  -0.328  0.00  0.00     0.084 C 
ATOM      9  C4  GC4 d 516      24.912  16.087   1.222  0.00  0.00    -0.034 C 
ATOM     10  C6  GC4 d 516      24.443  17.477   3.427  0.00  0.00     0.233 C 
ATOM     11  C1  GC4 d 516      24.427  18.484  -0.268  0.00  0.00     0.165 C 
ATOM     12  H   GC4 d 516      24.521  17.268  -2.014  0.00  0.00     0.095 H 
ATOM     13  H   GC4 d 516      26.515  16.131  -1.506  0.00  0.00     0.210 HD
ATOM     14  H   GC4 d 516      22.459  16.767  -0.116  0.00  0.00     0.210 HD
ATOM     15  H   GC4 d 516      24.478  15.113  -0.714  0.00  0.00     0.093 H 
ATOM     16  H   GC4 d 516      25.259  15.298   1.788  0.00  0.00     0.085 H 
ATOM     17  H   GC4 d 516      23.919  19.217  -0.860  0.00  0.00     0.134 H 
ATOM     18  C6  ASG d 514      28.188  22.060   2.831  0.00  0.00     0.043 C 
ATOM     19  O6  ASG d 514      27.667  21.640   4.083  0.00  0.00    -0.398 OA
ATOM     20  C4  ASG d 514      26.865  20.448   1.365  0.00  0.00     0.114 C 
ATOM     21  O7  ASG d 514      26.527  19.740  -3.389  0.00  0.00    -0.274 OA
ATOM     22  O3  ASG d 514      25.763  19.005  -0.254  0.00  0.00    -0.348 OA
ATOM     23  N   ASG d 514      25.459  21.268  -2.082  0.00  0.00    -0.349 N 
ATOM     24  OSC ASG d 514      27.802  18.150   2.803  0.00  0.00    -0.572 OA
ATOM     25  C8  ASG d 514      24.511  20.620  -4.221  0.00  0.00    -0.003 C 
ATOM     26  O5  ASG d 514      27.705  22.586   0.566  0.00  0.00    -0.349 OA
ATOM     27  O4  ASG d 514      28.077  19.753   1.064  0.00  0.00    -0.246 OA
ATOM     28  C3  ASG d 514      25.915  20.374   0.156  0.00  0.00     0.094 C 
ATOM     29  C7  ASG d 514      25.576  20.522  -3.187  0.00  0.00     0.214 C 
ATOM     30  OSA ASG d 514      28.502  17.468   0.716  0.00  0.00    -0.572 OA
ATOM     31  OSB ASG d 514      29.925  18.800   2.110  0.00  0.00    -0.572 OA
ATOM     32  S   ASG d 514      28.595  18.532   1.670  0.00  0.00     0.252 S 
ATOM     33  C2  ASG d 514      26.448  21.206  -1.013  0.00  0.00     0.087 C 
ATOM     34  O1  ASG d 514      27.327  23.352  -1.555  0.00  0.00    -0.369 OA
ATOM     35  C5  ASG d 514      27.165  21.911   1.722  0.00  0.00     0.090 C 
ATOM     36  C1  ASG d 514      26.767  22.620  -0.521  0.00  0.00     0.151 C 
ATOM     37  H   ASG d 514      28.478  23.088   2.901  0.00  0.00     0.078 H 
ATOM     38  H   ASG d 514      29.030  21.442   2.594  0.00  0.00     0.078 H 
ATOM     39  H   ASG d 514      26.902  22.190   4.315  0.00  0.00     0.209 HD
ATOM     40  H   ASG d 514      26.394  19.986   2.208  0.00  0.00     0.093 H 
ATOM     41  H   ASG d 514      24.687  21.871  -1.989  0.00  0.00     0.163 HD
ATOM     42  H   ASG d 514      24.745  19.970  -5.037  0.00  0.00     0.040 H 
ATOM     43  H   ASG d 514      24.449  21.628  -4.574  0.00  0.00     0.040 H 
ATOM     44  H   ASG d 514      23.572  20.333  -3.794  0.00  0.00     0.040 H 
ATOM     45  H   ASG d 514      24.966  20.772   0.448  0.00  0.00     0.091 H 
ATOM     46  H   ASG d 514      27.336  20.748  -1.394  0.00  0.00     0.084 H 
ATOM     47  H   ASG d 514      27.530  24.248  -1.244  0.00  0.00     0.212 HD
ATOM     48  H   ASG d 514      26.238  22.332   2.051  0.00  0.00     0.090 H 
ATOM     49  H   ASG d 514      25.855  23.070  -0.187  0.00  0.00     0.132 H 
ENDROOT
TORSDOF 12
ENDMDL
MODEL 34
REMARK VINA RESULT:      -6.0      1.954      2.540
REMARK  0 active torsions:
REMARK  status: ('A' for Active; 'I' for Inactive)
REMARK       I    between atoms: C6_2  and  C5_28 
REMARK       I    between atoms: C6_2  and  O6_5 
REMARK       I    between atoms: C2_4  and  O2_16 
REMARK       I    between atoms: C5_6  and  C6_24 
REMARK       I    between atoms: C4_7  and  O4_17 
REMARK       I    between atoms: O3_8  and  C3_19 
REMARK       I    between atoms: O3_10  and  C3_18 
REMARK       I    between atoms: O3_10  and  C1_30 
REMARK       I    between atoms: N_11  and  C2_26 
REMARK       I    between atoms: N_11  and  C7_21 
REMARK       I    between atoms: C8_13  and  C7_21 
REMARK       I    between atoms: O4_17  and  S_25 
REMARK       I    between atoms: O1_27  and  C1_29 
ROOT
ATOM      1  O5  GC4 d 516      26.505  23.053  -2.413  0.00  0.00    -0.311 OA
ATOM      2  O6A GC4 d 516      28.807  25.771  -1.343  0.00  0.00    -0.642 OA
ATOM      3  C2  GC4 d 516      24.196  23.739  -2.636  0.00  0.00     0.111 C 
ATOM      4  C5  GC4 d 516      26.995  24.344  -1.995  0.00  0.00     0.147 C 
ATOM      5  O3  GC4 d 516      24.012  25.089  -0.628  0.00  0.00    -0.389 OA
ATOM      6  O6B GC4 d 516      29.258  23.658  -1.732  0.00  0.00    -0.642 OA
ATOM      7  O2  GC4 d 516      24.359  23.839  -4.045  0.00  0.00    -0.388 OA
ATOM      8  C3  GC4 d 516      24.439  25.124  -1.991  0.00  0.00     0.084 C 
ATOM      9  C4  GC4 d 516      25.945  25.439  -1.780  0.00  0.00    -0.034 C 
ATOM     10  C6  GC4 d 516      28.462  24.619  -1.693  0.00  0.00     0.233 C 
ATOM     11  C1  GC4 d 516      25.169  22.696  -2.058  0.00  0.00     0.165 C 
ATOM     12  H   GC4 d 516      23.199  23.421  -2.417  0.00  0.00     0.095 H 
ATOM     13  H   GC4 d 516      23.062  24.897  -0.592  0.00  0.00     0.210 HD
ATOM     14  H   GC4 d 516      25.263  24.127  -4.246  0.00  0.00     0.210 HD
ATOM     15  H   GC4 d 516      23.943  25.815  -2.640  0.00  0.00     0.093 H 
ATOM     16  H   GC4 d 516      26.239  26.386  -1.496  0.00  0.00     0.085 H 
ATOM     17  H   GC4 d 516      24.866  21.776  -2.513  0.00  0.00     0.134 H 
ATOM     18  C6  ASG d 514      28.297  20.558   2.652  0.00  0.00     0.043 C 
ATOM     19  O6  ASG d 514      29.489  21.217   2.248  0.00  0.00    -0.398 OA
ATOM     20  C4  ASG d 514      26.755  21.552   0.882  0.00  0.00     0.114 C 
ATOM     21  O7  ASG d 514      22.106  20.956  -0.236  0.00  0.00    -0.274 OA
ATOM     22  O3  ASG d 514      25.066  22.373  -0.664  0.00  0.00    -0.348 OA
ATOM     23  N   ASG d 514      23.904  19.695  -0.836  0.00  0.00    -0.349 N 
ATOM     24  OSC ASG d 514      27.424  24.245   1.610  0.00  0.00    -0.572 OA
ATOM     25  C8  ASG d 514      21.877  19.639  -2.171  0.00  0.00    -0.003 C 
ATOM     26  O5  ASG d 514      26.343  19.407   1.951  0.00  0.00    -0.349 OA
ATOM     27  O4  ASG d 514      26.089  22.296   1.904  0.00  0.00    -0.246 OA
ATOM     28  C3  ASG d 514      25.752  21.188  -0.227  0.00  0.00     0.094 C 
ATOM     29  C7  ASG d 514      22.652  20.138  -1.002  0.00  0.00     0.214 C 
ATOM     30  OSA ASG d 514      25.145  24.447   1.884  0.00  0.00    -0.572 OA
ATOM     31  OSB ASG d 514      26.536  23.716   3.693  0.00  0.00    -0.572 OA
ATOM     32  S   ASG d 514      26.289  23.687   2.290  0.00  0.00     0.252 S 
ATOM     33  C2  ASG d 514      24.735  20.157   0.269  0.00  0.00     0.087 C 
ATOM     34  O1  ASG d 514      24.563  18.076   1.414  0.00  0.00    -0.369 OA
ATOM     35  C5  ASG d 514      27.386  20.282   1.473  0.00  0.00     0.090 C 
ATOM     36  C1  ASG d 514      25.479  18.972   0.888  0.00  0.00     0.151 C 
ATOM     37  H   ASG d 514      28.554  19.630   3.117  0.00  0.00     0.078 H 
ATOM     38  H   ASG d 514      27.777  21.197   3.335  0.00  0.00     0.078 H 
ATOM     39  H   ASG d 514      29.976  20.652   1.627  0.00  0.00     0.209 HD
ATOM     40  H   ASG d 514      27.536  22.151   0.463  0.00  0.00     0.093 H 
ATOM     41  H   ASG d 514      24.272  19.042  -1.474  0.00  0.00     0.163 HD
ATOM     42  H   ASG d 514      20.903  20.081  -2.167  0.00  0.00     0.040 H 
ATOM     43  H   ASG d 514      21.787  18.575  -2.110  0.00  0.00     0.040 H 
ATOM     44  H   ASG d 514      22.385  19.904  -3.074  0.00  0.00     0.040 H 
ATOM     45  H   ASG d 514      26.293  20.760  -1.045  0.00  0.00     0.091 H 
ATOM     46  H   ASG d 514      24.104  20.612   1.004  0.00  0.00     0.084 H 
ATOM     47  H   ASG d 514      25.034  17.325   1.807  0.00  0.00     0.212 HD
ATOM     48  H   ASG d 514      27.964  19.845   0.685  0.00  0.00     0.090 H 
ATOM     49  H   ASG d 514      26.067  18.511   0.122  0.00  0.00     0.132 H 
ENDROOT
TORSDOF 12
ENDMDL
MODEL 35
REMARK VINA RESULT:      -5.9      2.602      5.536
REMARK  0 active torsions:
REMARK  status: ('A' for Active; 'I' for Inactive)
REMARK       I    between atoms: C6_2  and  C5_28 
REMARK       I    between atoms: C6_2  and  O6_5 
REMARK       I    between atoms: C2_4  and  O2_16 
REMARK       I    between atoms: C5_6  and  C6_24 
REMARK       I    between atoms: C4_7  and  O4_17 
REMARK       I    between atoms: O3_8  and  C3_19 
REMARK       I    between atoms: O3_10  and  C3_18 
REMARK       I    between atoms: O3_10  and  C1_30 
REMARK       I    between atoms: N_11  and  C2_26 
REMARK       I    between atoms: N_11  and  C7_21 
REMARK       I    between atoms: C8_13  and  C7_21 
REMARK       I    between atoms: O4_17  and  S_25 
REMARK       I    between atoms: O1_27  and  C1_29 
ROOT
ATOM      1  O5  GC4 d 516      24.726  24.864  -3.021  0.00  0.00    -0.311 OA
ATOM      2  O6A GC4 d 516      22.067  22.306  -3.482  0.00  0.00    -0.642 OA
ATOM      3  C2  GC4 d 516      26.261  25.047  -4.881  0.00  0.00     0.111 C 
ATOM      4  C5  GC4 d 516      23.928  23.811  -3.600  0.00  0.00     0.147 C 
ATOM      5  O3  GC4 d 516      26.583  22.685  -5.332  0.00  0.00    -0.389 OA
ATOM      6  O6B GC4 d 516      22.446  23.600  -1.750  0.00  0.00    -0.642 OA
ATOM      7  O2  GC4 d 516      25.563  26.194  -5.348  0.00  0.00    -0.388 OA
ATOM      8  C3  GC4 d 516      25.711  23.787  -5.590  0.00  0.00     0.084 C 
ATOM      9  C4  GC4 d 516      24.411  23.243  -4.938  0.00  0.00    -0.034 C 
ATOM     10  C6  GC4 d 516      22.712  23.213  -2.907  0.00  0.00     0.233 C 
ATOM     11  C1  GC4 d 516      26.113  24.915  -3.355  0.00  0.00     0.165 C 
ATOM     12  H   GC4 d 516      27.301  25.150  -5.107  0.00  0.00     0.095 H 
ATOM     13  H   GC4 d 516      27.464  22.879  -5.691  0.00  0.00     0.210 HD
ATOM     14  H   GC4 d 516      24.619  26.103  -5.144  0.00  0.00     0.210 HD
ATOM     15  H   GC4 d 516      25.588  24.083  -6.610  0.00  0.00     0.093 H 
ATOM     16  H   GC4 d 516      23.872  22.498  -5.406  0.00  0.00     0.085 H 
ATOM     17  H   GC4 d 516      26.586  25.795  -2.970  0.00  0.00     0.134 H 
ATOM     18  C6  ASG d 514      26.178  21.442   1.591  0.00  0.00     0.043 C 
ATOM     19  O6  ASG d 514      24.764  21.307   1.600  0.00  0.00    -0.398 OA
ATOM     20  C4  ASG d 514      26.376  22.706  -0.613  0.00  0.00     0.114 C 
ATOM     21  O7  ASG d 514      30.057  24.607  -3.073  0.00  0.00    -0.274 OA
ATOM     22  O3  ASG d 514      26.851  23.881  -2.689  0.00  0.00    -0.348 OA
ATOM     23  N   ASG d 514      28.884  25.485  -1.330  0.00  0.00    -0.349 N 
ATOM     24  OSC ASG d 514      24.950  20.683  -2.063  0.00  0.00    -0.572 OA
ATOM     25  C8  ASG d 514      30.089  26.948  -2.847  0.00  0.00    -0.003 C 
ATOM     26  O5  ASG d 514      28.022  22.876   1.169  0.00  0.00    -0.349 OA
ATOM     27  O4  ASG d 514      26.989  21.556  -1.198  0.00  0.00    -0.246 OA
ATOM     28  C3  ASG d 514      26.949  23.980  -1.259  0.00  0.00     0.094 C 
ATOM     29  C7  ASG d 514      29.669  25.589  -2.409  0.00  0.00     0.214 C 
ATOM     30  OSA ASG d 514      26.849  20.665  -3.368  0.00  0.00    -0.572 OA
ATOM     31  OSB ASG d 514      26.680  19.261  -1.434  0.00  0.00    -0.572 OA
ATOM     32  S   ASG d 514      26.376  20.523  -2.024  0.00  0.00     0.252 S 
ATOM     33  C2  ASG d 514      28.410  24.191  -0.855  0.00  0.00     0.087 C 
ATOM     34  O1  ASG d 514      29.859  24.231   1.035  0.00  0.00    -0.369 OA
ATOM     35  C5  ASG d 514      26.612  22.721   0.905  0.00  0.00     0.090 C 
ATOM     36  C1  ASG d 514      28.527  24.125   0.669  0.00  0.00     0.151 C 
ATOM     37  H   ASG d 514      26.532  21.452   2.601  0.00  0.00     0.078 H 
ATOM     38  H   ASG d 514      26.590  20.615   1.051  0.00  0.00     0.078 H 
ATOM     39  H   ASG d 514      24.371  22.048   2.086  0.00  0.00     0.209 HD
ATOM     40  H   ASG d 514      25.321  22.670  -0.789  0.00  0.00     0.093 H 
ATOM     41  H   ASG d 514      28.621  26.301  -0.846  0.00  0.00     0.163 HD
ATOM     42  H   ASG d 514      30.708  26.867  -3.716  0.00  0.00     0.040 H 
ATOM     43  H   ASG d 514      30.637  27.422  -2.061  0.00  0.00     0.040 H 
ATOM     44  H   ASG d 514      29.222  27.531  -3.080  0.00  0.00     0.040 H 
ATOM     45  H   ASG d 514      26.380  24.819  -0.914  0.00  0.00     0.091 H 
ATOM     46  H   ASG d 514      29.011  23.424  -1.297  0.00  0.00     0.084 H 
ATOM     47  H   ASG d 514      29.934  24.189   2.000  0.00  0.00     0.212 HD
ATOM     48  H   ASG d 514      26.028  23.533   1.287  0.00  0.00     0.090 H 
ATOM     49  H   ASG d 514      27.954  24.928   1.082  0.00  0.00     0.132 H 
ENDROOT
TORSDOF 12
ENDMDL
MODEL 36
REMARK VINA RESULT:      -5.9      3.213      7.188
REMARK  0 active torsions:
REMARK  status: ('A' for Active; 'I' for Inactive)
REMARK       I    between atoms: C6_2  and  C5_28 
REMARK       I    between atoms: C6_2  and  O6_5 
REMARK       I    between atoms: C2_4  and  O2_16 
REMARK       I    between atoms: C5_6  and  C6_24 
REMARK       I    between atoms: C4_7  and  O4_17 
REMARK       I    between atoms: O3_8  and  C3_19 
REMARK       I    between atoms: O3_10  and  C3_18 
REMARK       I    between atoms: O3_10  and  C1_30 
REMARK       I    between atoms: N_11  and  C2_26 
REMARK       I    between atoms: N_11  and  C7_21 
REMARK       I    between atoms: C8_13  and  C7_21 
REMARK       I    between atoms: O4_17  and  S_25 
REMARK       I    between atoms: O1_27  and  C1_29 
ROOT
ATOM      1  O5  GC4 d 516      25.178  21.614  -3.386  0.00  0.00    -0.311 OA
ATOM      2  O6A GC4 d 516      21.678  20.683  -2.542  0.00  0.00    -0.642 OA
ATOM      3  C2  GC4 d 516      26.627  21.871  -1.468  0.00  0.00     0.111 C 
ATOM      4  C5  GC4 d 516      23.996  21.285  -2.627  0.00  0.00     0.147 C 
ATOM      5  O3  GC4 d 516      25.112  23.090  -0.016  0.00  0.00    -0.389 OA
ATOM      6  O6B GC4 d 516      22.560  21.078  -4.513  0.00  0.00    -0.642 OA
ATOM      7  O2  GC4 d 516      27.163  20.574  -1.695  0.00  0.00    -0.388 OA
ATOM      8  C3  GC4 d 516      25.466  21.775  -0.450  0.00  0.00     0.084 C 
ATOM      9  C4  GC4 d 516      24.122  21.350  -1.102  0.00  0.00    -0.034 C 
ATOM     10  C6  GC4 d 516      22.655  20.968  -3.273  0.00  0.00     0.233 C 
ATOM     11  C1  GC4 d 516      26.137  22.487  -2.790  0.00  0.00     0.165 C 
ATOM     12  H   GC4 d 516      27.391  22.504  -1.069  0.00  0.00     0.095 H 
ATOM     13  H   GC4 d 516      25.873  23.500   0.425  0.00  0.00     0.210 HD
ATOM     14  H   GC4 d 516      26.472  19.998  -2.058  0.00  0.00     0.210 HD
ATOM     15  H   GC4 d 516      25.815  21.093   0.296  0.00  0.00     0.093 H 
ATOM     16  H   GC4 d 516      23.314  21.111  -0.507  0.00  0.00     0.085 H 
ATOM     17  H   GC4 d 516      27.024  22.573  -3.382  0.00  0.00     0.134 H 
ATOM     18  C6  ASG d 514      22.559  26.405  -5.685  0.00  0.00     0.043 C 
ATOM     19  O6  ASG d 514      21.583  25.412  -5.967  0.00  0.00    -0.398 OA
ATOM     20  C4  ASG d 514      24.077  24.970  -4.224  0.00  0.00     0.114 C 
ATOM     21  O7  ASG d 514      28.277  25.729  -1.988  0.00  0.00    -0.274 OA
ATOM     22  O3  ASG d 514      25.673  23.844  -2.774  0.00  0.00    -0.348 OA
ATOM     23  N   ASG d 514      27.883  25.167  -4.158  0.00  0.00    -0.349 N 
ATOM     24  OSC ASG d 514      21.939  24.273  -2.443  0.00  0.00    -0.572 OA
ATOM     25  C8  ASG d 514      30.038  24.689  -3.149  0.00  0.00    -0.003 C 
ATOM     26  O5  ASG d 514      24.872  26.897  -5.476  0.00  0.00    -0.349 OA
ATOM     27  O4  ASG d 514      23.692  25.748  -3.089  0.00  0.00    -0.246 OA
ATOM     28  C3  ASG d 514      25.528  24.489  -4.050  0.00  0.00     0.094 C 
ATOM     29  C7  ASG d 514      28.658  25.237  -3.069  0.00  0.00     0.214 C 
ATOM     30  OSA ASG d 514      23.351  25.144  -0.844  0.00  0.00    -0.572 OA
ATOM     31  OSB ASG d 514      21.797  26.552  -2.003  0.00  0.00    -0.572 OA
ATOM     32  S   ASG d 514      22.688  25.442  -2.078  0.00  0.00     0.252 S 
ATOM     33  C2  ASG d 514      26.511  25.658  -4.151  0.00  0.00     0.087 C 
ATOM     34  O1  ASG d 514      27.064  27.548  -5.491  0.00  0.00    -0.369 OA
ATOM     35  C5  ASG d 514      23.937  25.798  -5.510  0.00  0.00     0.090 C 
ATOM     36  C1  ASG d 514      26.234  26.440  -5.437  0.00  0.00     0.151 C 
ATOM     37  H   ASG d 514      22.587  27.104  -6.494  0.00  0.00     0.078 H 
ATOM     38  H   ASG d 514      22.288  26.890  -4.771  0.00  0.00     0.078 H 
ATOM     39  H   ASG d 514      21.812  24.960  -6.794  0.00  0.00     0.209 HD
ATOM     40  H   ASG d 514      23.434  24.119  -4.301  0.00  0.00     0.093 H 
ATOM     41  H   ASG d 514      28.248  24.774  -4.984  0.00  0.00     0.163 HD
ATOM     42  H   ASG d 514      30.528  24.818  -2.207  0.00  0.00     0.040 H 
ATOM     43  H   ASG d 514      30.584  25.207  -3.909  0.00  0.00     0.040 H 
ATOM     44  H   ASG d 514      29.994  23.647  -3.388  0.00  0.00     0.040 H 
ATOM     45  H   ASG d 514      25.750  23.795  -4.834  0.00  0.00     0.091 H 
ATOM     46  H   ASG d 514      26.382  26.299  -3.303  0.00  0.00     0.084 H 
ATOM     47  H   ASG d 514      26.889  28.044  -6.305  0.00  0.00     0.212 HD
ATOM     48  H   ASG d 514      24.121  25.122  -6.319  0.00  0.00     0.090 H 
ATOM     49  H   ASG d 514      26.413  25.789  -6.267  0.00  0.00     0.132 H 
ENDROOT
TORSDOF 12
ENDMDL
MODEL 37
REMARK VINA RESULT:      -5.9      2.887      5.892
REMARK  0 active torsions:
REMARK  status: ('A' for Active; 'I' for Inactive)
REMARK       I    between atoms: C6_2  and  C5_28 
REMARK       I    between atoms: C6_2  and  O6_5 
REMARK       I    between atoms: C2_4  and  O2_16 
REMARK       I    between atoms: C5_6  and  C6_24 
REMARK       I    between atoms: C4_7  and  O4_17 
REMARK       I    between atoms: O3_8  and  C3_19 
REMARK       I    between atoms: O3_10  and  C3_18 
REMARK       I    between atoms: O3_10  and  C1_30 
REMARK       I    between atoms: N_11  and  C2_26 
REMARK       I    between atoms: N_11  and  C7_21 
REMARK       I    between atoms: C8_13  and  C7_21 
REMARK       I    between atoms: O4_17  and  S_25 
REMARK       I    between atoms: O1_27  and  C1_29 
ROOT
ATOM      1  O5  GC4 d 516      23.705  20.616  -0.265  0.00  0.00    -0.311 OA
ATOM      2  O6A GC4 d 516      26.889  19.729   1.440  0.00  0.00    -0.642 OA
ATOM      3  C2  GC4 d 516      23.386  19.526  -2.400  0.00  0.00     0.111 C 
ATOM      4  C5  GC4 d 516      24.992  20.022   0.005  0.00  0.00     0.147 C 
ATOM      5  O3  GC4 d 516      25.629  19.784  -3.290  0.00  0.00    -0.389 OA
ATOM      6  O6B GC4 d 516      25.327  21.129   2.084  0.00  0.00    -0.642 OA
ATOM      7  O2  GC4 d 516      22.524  18.575  -1.789  0.00  0.00    -0.388 OA
ATOM      8  C3  GC4 d 516      24.825  18.961  -2.442  0.00  0.00     0.084 C 
ATOM      9  C4  GC4 d 516      25.590  19.150  -1.103  0.00  0.00    -0.034 C 
ATOM     10  C6  GC4 d 516      25.782  20.292   1.278  0.00  0.00     0.233 C 
ATOM     11  C1  GC4 d 516      23.350  20.855  -1.626  0.00  0.00     0.165 C 
ATOM     12  H   GC4 d 516      23.054  19.713  -3.399  0.00  0.00     0.095 H 
ATOM     13  H   GC4 d 516      25.267  19.769  -4.190  0.00  0.00     0.210 HD
ATOM     14  H   GC4 d 516      22.822  18.404  -0.882  0.00  0.00     0.210 HD
ATOM     15  H   GC4 d 516      24.706  17.937  -2.727  0.00  0.00     0.093 H 
ATOM     16  H   GC4 d 516      26.501  18.687  -0.960  0.00  0.00     0.085 H 
ATOM     17  H   GC4 d 516      22.337  21.186  -1.724  0.00  0.00     0.134 H 
ATOM     18  C6  ASG d 514      26.017  26.067  -0.126  0.00  0.00     0.043 C 
ATOM     19  O6  ASG d 514      26.502  25.546   1.103  0.00  0.00    -0.398 OA
ATOM     20  C4  ASG d 514      25.044  23.898  -1.044  0.00  0.00     0.114 C 
ATOM     21  O7  ASG d 514      22.613  22.737  -5.040  0.00  0.00    -0.274 OA
ATOM     22  O3  ASG d 514      24.068  21.973  -2.166  0.00  0.00    -0.348 OA
ATOM     23  N   ASG d 514      21.840  23.626  -3.092  0.00  0.00    -0.349 N 
ATOM     24  OSC ASG d 514      27.533  22.500  -0.768  0.00  0.00    -0.572 OA
ATOM     25  C8  ASG d 514      20.332  22.422  -4.565  0.00  0.00    -0.003 C 
ATOM     26  O5  ASG d 514      24.232  26.098  -1.691  0.00  0.00    -0.349 OA
ATOM     27  O4  ASG d 514      26.068  23.879  -2.040  0.00  0.00    -0.246 OA
ATOM     28  C3  ASG d 514      23.762  23.263  -1.612  0.00  0.00     0.094 C 
ATOM     29  C7  ASG d 514      21.683  22.952  -4.238  0.00  0.00     0.214 C 
ATOM     30  OSA ASG d 514      27.241  22.093  -3.017  0.00  0.00    -0.572 OA
ATOM     31  OSB ASG d 514      28.377  24.065  -2.266  0.00  0.00    -0.572 OA
ATOM     32  S   ASG d 514      27.321  23.135  -2.037  0.00  0.00     0.252 S 
ATOM     33  C2  ASG d 514      23.138  24.153  -2.689  0.00  0.00     0.087 C 
ATOM     34  O1  ASG d 514      22.487  26.400  -3.137  0.00  0.00    -0.369 OA
ATOM     35  C5  ASG d 514      24.771  25.339  -0.588  0.00  0.00     0.090 C 
ATOM     36  C1  ASG d 514      22.973  25.571  -2.139  0.00  0.00     0.151 C 
ATOM     37  H   ASG d 514      25.786  27.104   0.004  0.00  0.00     0.078 H 
ATOM     38  H   ASG d 514      26.776  25.936  -0.869  0.00  0.00     0.078 H 
ATOM     39  H   ASG d 514      25.827  25.657   1.790  0.00  0.00     0.209 HD
ATOM     40  H   ASG d 514      25.367  23.333  -0.196  0.00  0.00     0.093 H 
ATOM     41  H   ASG d 514      21.061  23.768  -2.507  0.00  0.00     0.163 HD
ATOM     42  H   ASG d 514      20.367  21.912  -5.504  0.00  0.00     0.040 H 
ATOM     43  H   ASG d 514      19.636  23.232  -4.623  0.00  0.00     0.040 H 
ATOM     44  H   ASG d 514      20.022  21.740  -3.800  0.00  0.00     0.040 H 
ATOM     45  H   ASG d 514      23.056  23.156  -0.814  0.00  0.00     0.091 H 
ATOM     46  H   ASG d 514      23.780  24.170  -3.545  0.00  0.00     0.084 H 
ATOM     47  H   ASG d 514      22.383  27.298  -2.789  0.00  0.00     0.212 HD
ATOM     48  H   ASG d 514      24.090  25.265   0.235  0.00  0.00     0.090 H 
ATOM     49  H   ASG d 514      22.293  25.531  -1.314  0.00  0.00     0.132 H 
ENDROOT
TORSDOF 12
ENDMDL
MODEL 38
REMARK VINA RESULT:      -5.9      2.958      6.377
REMARK  0 active torsions:
REMARK  status: ('A' for Active; 'I' for Inactive)
REMARK       I    between atoms: C6_2  and  C5_28 
REMARK       I    between atoms: C6_2  and  O6_5 
REMARK       I    between atoms: C2_4  and  O2_16 
REMARK       I    between atoms: C5_6  and  C6_24 
REMARK       I    between atoms: C4_7  and  O4_17 
REMARK       I    between atoms: O3_8  and  C3_19 
REMARK       I    between atoms: O3_10  and  C3_18 
REMARK       I    between atoms: O3_10  and  C1_30 
REMARK       I    between atoms: N_11  and  C2_26 
REMARK       I    between atoms: N_11  and  C7_21 
REMARK       I    between atoms: C8_13  and  C7_21 
REMARK       I    between atoms: O4_17  and  S_25 
REMARK       I    between atoms: O1_27  and  C1_29 
ROOT
ATOM      1  O5  GC4 d 516      26.857  25.956  -0.814  0.00  0.00    -0.311 OA
ATOM      2  O6A GC4 d 516      30.255  24.452  -0.957  0.00  0.00    -0.642 OA
ATOM      3  C2  GC4 d 516      25.338  24.836   0.697  0.00  0.00     0.111 C 
ATOM      4  C5  GC4 d 516      27.975  25.078  -0.568  0.00  0.00     0.147 C 
ATOM      5  O3  GC4 d 516      25.884  22.538   0.139  0.00  0.00    -0.389 OA
ATOM      6  O6B GC4 d 516      29.455  26.154  -2.089  0.00  0.00    -0.642 OA
ATOM      7  O2  GC4 d 516      25.570  25.837   1.678  0.00  0.00    -0.388 OA
ATOM      8  C3  GC4 d 516      26.297  23.646   0.941  0.00  0.00     0.084 C 
ATOM      9  C4  GC4 d 516      27.713  23.878   0.348  0.00  0.00    -0.034 C 
ATOM     10  C6  GC4 d 516      29.333  25.254  -1.232  0.00  0.00     0.233 C 
ATOM     11  C1  GC4 d 516      25.542  25.412  -0.715  0.00  0.00     0.165 C 
ATOM     12  H   GC4 d 516      24.328  24.492   0.774  0.00  0.00     0.095 H 
ATOM     13  H   GC4 d 516      24.989  22.267   0.397  0.00  0.00     0.210 HD
ATOM     14  H   GC4 d 516      26.485  26.151   1.610  0.00  0.00     0.210 HD
ATOM     15  H   GC4 d 516      26.293  23.509   2.001  0.00  0.00     0.093 H 
ATOM     16  H   GC4 d 516      28.479  23.224   0.572  0.00  0.00     0.085 H 
ATOM     17  H   GC4 d 516      24.788  26.167  -0.799  0.00  0.00     0.134 H 
ATOM     18  C6  ASG d 514      26.793  24.521  -6.561  0.00  0.00     0.043 C 
ATOM     19  O6  ASG d 514      28.161  24.866  -6.392  0.00  0.00    -0.398 OA
ATOM     20  C4  ASG d 514      26.126  24.604  -4.102  0.00  0.00     0.114 C 
ATOM     21  O7  ASG d 514      21.978  23.996  -1.728  0.00  0.00    -0.274 OA
ATOM     22  O3  ASG d 514      25.234  24.576  -1.839  0.00  0.00    -0.348 OA
ATOM     23  N   ASG d 514      22.775  25.850  -2.779  0.00  0.00    -0.349 N 
ATOM     24  OSC ASG d 514      28.168  22.739  -3.340  0.00  0.00    -0.572 OA
ATOM     25  C8  ASG d 514      21.106  26.066  -1.030  0.00  0.00    -0.003 C 
ATOM     26  O5  ASG d 514      24.551  24.965  -5.919  0.00  0.00    -0.349 OA
ATOM     27  O4  ASG d 514      25.962  23.184  -4.116  0.00  0.00    -0.246 OA
ATOM     28  C3  ASG d 514      25.124  25.229  -3.115  0.00  0.00     0.094 C 
ATOM     29  C7  ASG d 514      21.993  25.233  -1.886  0.00  0.00     0.214 C 
ATOM     30  OSA ASG d 514      26.388  21.564  -2.470  0.00  0.00    -0.572 OA
ATOM     31  OSB ASG d 514      27.076  21.239  -4.742  0.00  0.00    -0.572 OA
ATOM     32  S   ASG d 514      26.897  22.160  -3.668  0.00  0.00     0.252 S 
ATOM     33  C2  ASG d 514      23.690  25.105  -3.635  0.00  0.00     0.087 C 
ATOM     34  O1  ASG d 514      22.347  25.465  -5.569  0.00  0.00    -0.369 OA
ATOM     35  C5  ASG d 514      25.919  25.178  -5.512  0.00  0.00     0.090 C 
ATOM     36  C1  ASG d 514      23.624  25.651  -5.064  0.00  0.00     0.151 C 
ATOM     37  H   ASG d 514      26.471  24.839  -7.530  0.00  0.00     0.078 H 
ATOM     38  H   ASG d 514      26.700  23.460  -6.457  0.00  0.00     0.078 H 
ATOM     39  H   ASG d 514      28.265  25.827  -6.483  0.00  0.00     0.209 HD
ATOM     40  H   ASG d 514      27.121  24.840  -3.786  0.00  0.00     0.093 H 
ATOM     41  H   ASG d 514      22.733  26.831  -2.860  0.00  0.00     0.163 HD
ATOM     42  H   ASG d 514      20.548  25.432  -0.373  0.00  0.00     0.040 H 
ATOM     43  H   ASG d 514      20.433  26.621  -1.649  0.00  0.00     0.040 H 
ATOM     44  H   ASG d 514      21.702  26.742  -0.452  0.00  0.00     0.040 H 
ATOM     45  H   ASG d 514      25.356  26.268  -3.011  0.00  0.00     0.091 H 
ATOM     46  H   ASG d 514      23.402  24.075  -3.629  0.00  0.00     0.084 H 
ATOM     47  H   ASG d 514      22.304  25.810  -6.474  0.00  0.00     0.212 HD
ATOM     48  H   ASG d 514      26.175  26.215  -5.450  0.00  0.00     0.090 H 
ATOM     49  H   ASG d 514      23.873  26.691  -5.034  0.00  0.00     0.132 H 
ENDROOT
TORSDOF 12
ENDMDL
MODEL 39
REMARK VINA RESULT:      -5.8      2.452      6.222
REMARK  0 active torsions:
REMARK  status: ('A' for Active; 'I' for Inactive)
REMARK       I    between atoms: C6_2  and  C5_28 
REMARK       I    between atoms: C6_2  and  O6_5 
REMARK       I    between atoms: C2_4  and  O2_16 
REMARK       I    between atoms: C5_6  and  C6_24 
REMARK       I    between atoms: C4_7  and  O4_17 
REMARK       I    between atoms: O3_8  and  C3_19 
REMARK       I    between atoms: O3_10  and  C3_18 
REMARK       I    between atoms: O3_10  and  C1_30 
REMARK       I    between atoms: N_11  and  C2_26 
REMARK       I    between atoms: N_11  and  C7_21 
REMARK       I    between atoms: C8_13  and  C7_21 
REMARK       I    between atoms: O4_17  and  S_25 
REMARK       I    between atoms: O1_27  and  C1_29 
ROOT
ATOM      1  O5  GC4 d 516      27.002  20.328  -0.305  0.00  0.00    -0.311 OA
ATOM      2  O6A GC4 d 516      25.759  17.889  -2.822  0.00  0.00    -0.642 OA
ATOM      3  C2  GC4 d 516      25.279  21.250   1.119  0.00  0.00     0.111 C 
ATOM      4  C5  GC4 d 516      26.114  19.497  -1.081  0.00  0.00     0.147 C 
ATOM      5  O3  GC4 d 516      23.575  21.643  -0.563  0.00  0.00    -0.389 OA
ATOM      6  O6B GC4 d 516      27.803  18.625  -2.512  0.00  0.00    -0.642 OA
ATOM      7  O2  GC4 d 516      25.648  20.348   2.154  0.00  0.00    -0.388 OA
ATOM      8  C3  GC4 d 516      24.125  20.638   0.291  0.00  0.00     0.084 C 
ATOM      9  C4  GC4 d 516      24.617  19.630  -0.783  0.00  0.00    -0.034 C 
ATOM     10  C6  GC4 d 516      26.595  18.586  -2.202  0.00  0.00     0.233 C 
ATOM     11  C1  GC4 d 516      26.489  21.553   0.218  0.00  0.00     0.165 C 
ATOM     12  H   GC4 d 516      24.949  22.170   1.554  0.00  0.00     0.095 H 
ATOM     13  H   GC4 d 516      23.215  22.364  -0.023  0.00  0.00     0.210 HD
ATOM     14  H   GC4 d 516      25.948  19.513   1.763  0.00  0.00     0.210 HD
ATOM     15  H   GC4 d 516      23.471  20.204   1.018  0.00  0.00     0.093 H 
ATOM     16  H   GC4 d 516      23.936  19.050  -1.296  0.00  0.00     0.085 H 
ATOM     17  H   GC4 d 516      27.187  22.034   0.871  0.00  0.00     0.134 H 
ATOM     18  C6  ASG d 514      28.664  23.329  -5.135  0.00  0.00     0.043 C 
ATOM     19  O6  ASG d 514      28.870  21.994  -5.572  0.00  0.00    -0.398 OA
ATOM     20  C4  ASG d 514      27.498  22.780  -2.936  0.00  0.00     0.114 C 
ATOM     21  O7  ASG d 514      25.795  25.427   0.713  0.00  0.00    -0.274 OA
ATOM     22  O3  ASG d 514      26.336  22.539  -0.812  0.00  0.00    -0.348 OA
ATOM     23  N   ASG d 514      27.922  24.721   0.317  0.00  0.00    -0.349 N 
ATOM     24  OSC ASG d 514      25.494  21.190  -4.234  0.00  0.00    -0.572 OA
ATOM     25  C8  ASG d 514      27.234  25.310   2.569  0.00  0.00    -0.003 C 
ATOM     26  O5  ASG d 514      28.734  24.841  -3.305  0.00  0.00    -0.349 OA
ATOM     27  O4  ASG d 514      26.280  23.303  -3.470  0.00  0.00    -0.246 OA
ATOM     28  C3  ASG d 514      27.544  23.029  -1.418  0.00  0.00     0.094 C 
ATOM     29  C7  ASG d 514      26.942  25.156   1.118  0.00  0.00     0.214 C 
ATOM     30  OSA ASG d 514      24.048  22.635  -3.170  0.00  0.00    -0.572 OA
ATOM     31  OSB ASG d 514      24.911  23.148  -5.346  0.00  0.00    -0.572 OA
ATOM     32  S   ASG d 514      25.165  22.577  -4.064  0.00  0.00     0.252 S 
ATOM     33  C2  ASG d 514      27.707  24.520  -1.110  0.00  0.00     0.087 C 
ATOM     34  O1  ASG d 514      29.000  26.435  -1.687  0.00  0.00    -0.369 OA
ATOM     35  C5  ASG d 514      28.706  23.434  -3.623  0.00  0.00     0.090 C 
ATOM     36  C1  ASG d 514      28.899  25.069  -1.897  0.00  0.00     0.151 C 
ATOM     37  H   ASG d 514      29.429  23.952  -5.547  0.00  0.00     0.078 H 
ATOM     38  H   ASG d 514      27.696  23.644  -5.465  0.00  0.00     0.078 H 
ATOM     39  H   ASG d 514      29.744  21.690  -5.282  0.00  0.00     0.209 HD
ATOM     40  H   ASG d 514      27.537  21.726  -3.118  0.00  0.00     0.093 H 
ATOM     41  H   ASG d 514      28.809  24.533   0.700  0.00  0.00     0.163 HD
ATOM     42  H   ASG d 514      26.358  25.662   3.073  0.00  0.00     0.040 H 
ATOM     43  H   ASG d 514      28.029  26.013   2.700  0.00  0.00     0.040 H 
ATOM     44  H   ASG d 514      27.523  24.364   2.977  0.00  0.00     0.040 H 
ATOM     45  H   ASG d 514      28.387  22.509  -1.015  0.00  0.00     0.091 H 
ATOM     46  H   ASG d 514      26.815  25.037  -1.398  0.00  0.00     0.084 H 
ATOM     47  H   ASG d 514      29.755  26.784  -2.186  0.00  0.00     0.212 HD
ATOM     48  H   ASG d 514      29.568  22.911  -3.266  0.00  0.00     0.090 H 
ATOM     49  H   ASG d 514      29.781  24.566  -1.559  0.00  0.00     0.132 H 
ENDROOT
TORSDOF 12
ENDMDL
MODEL 40
REMARK VINA RESULT:      -5.8      2.626      6.643
REMARK  0 active torsions:
REMARK  status: ('A' for Active; 'I' for Inactive)
REMARK       I    between atoms: C6_2  and  C5_28 
REMARK       I    between atoms: C6_2  and  O6_5 
REMARK       I    between atoms: C2_4  and  O2_16 
REMARK       I    between atoms: C5_6  and  C6_24 
REMARK       I    between atoms: C4_7  and  O4_17 
REMARK       I    between atoms: O3_8  and  C3_19 
REMARK       I    between atoms: O3_10  and  C3_18 
REMARK       I    between atoms: O3_10  and  C1_30 
REMARK       I    between atoms: N_11  and  C2_26 
REMARK       I    between atoms: N_11  and  C7_21 
REMARK       I    between atoms: C8_13  and  C7_21 
REMARK       I    between atoms: O4_17  and  S_25 
REMARK       I    between atoms: O1_27  and  C1_29 
ROOT
ATOM      1  O5  GC4 d 516      27.915  23.309   0.096  0.00  0.00    -0.311 OA
ATOM      2  O6A GC4 d 516      24.871  21.621   1.405  0.00  0.00    -0.642 OA
ATOM      3  C2  GC4 d 516      27.808  25.724   0.143  0.00  0.00     0.111 C 
ATOM      4  C5  GC4 d 516      26.600  23.099   0.649  0.00  0.00     0.147 C 
ATOM      5  O3  GC4 d 516      25.534  26.012  -0.654  0.00  0.00    -0.389 OA
ATOM      6  O6B GC4 d 516      26.687  20.723   0.561  0.00  0.00    -0.642 OA
ATOM      7  O2  GC4 d 516      28.592  25.739   1.328  0.00  0.00    -0.388 OA
ATOM      8  C3  GC4 d 516      26.308  25.752   0.519  0.00  0.00     0.084 C 
ATOM      9  C4  GC4 d 516      25.750  24.351   0.888  0.00  0.00    -0.034 C 
ATOM     10  C6  GC4 d 516      26.020  21.716   0.915  0.00  0.00     0.233 C 
ATOM     11  C1  GC4 d 516      28.131  24.476  -0.697  0.00  0.00     0.165 C 
ATOM     12  H   GC4 d 516      28.038  26.588  -0.444  0.00  0.00     0.095 H 
ATOM     13  H   GC4 d 516      25.776  26.880  -1.014  0.00  0.00     0.210 HD
ATOM     14  H   GC4 d 516      28.386  24.956   1.862  0.00  0.00     0.210 HD
ATOM     15  H   GC4 d 516      26.242  26.463   1.315  0.00  0.00     0.093 H 
ATOM     16  H   GC4 d 516      24.806  24.263   1.296  0.00  0.00     0.085 H 
ATOM     17  H   GC4 d 516      29.162  24.597  -0.959  0.00  0.00     0.134 H 
ATOM     18  C6  ASG d 514      26.452  20.451  -4.882  0.00  0.00     0.043 C 
ATOM     19  O6  ASG d 514      26.051  19.500  -3.906  0.00  0.00    -0.398 OA
ATOM     20  C4  ASG d 514      26.981  22.363  -3.281  0.00  0.00     0.114 C 
ATOM     21  O7  ASG d 514      28.707  26.827  -3.839  0.00  0.00    -0.274 OA
ATOM     22  O3  ASG d 514      27.521  24.352  -1.989  0.00  0.00    -0.348 OA
ATOM     23  N   ASG d 514      29.834  24.854  -3.707  0.00  0.00    -0.349 N 
ATOM     24  OSC ASG d 514      24.369  22.282  -2.099  0.00  0.00    -0.572 OA
ATOM     25  C8  ASG d 514      30.959  26.938  -3.174  0.00  0.00    -0.003 C 
ATOM     26  O5  ASG d 514      28.016  22.138  -5.470  0.00  0.00    -0.349 OA
ATOM     27  O4  ASG d 514      25.849  23.076  -3.785  0.00  0.00    -0.246 OA
ATOM     28  C3  ASG d 514      28.077  23.361  -2.870  0.00  0.00     0.094 C 
ATOM     29  C7  ASG d 514      29.750  26.186  -3.604  0.00  0.00     0.214 C 
ATOM     30  OSA ASG d 514      24.319  24.502  -2.715  0.00  0.00    -0.572 OA
ATOM     31  OSB ASG d 514      23.581  22.794  -4.226  0.00  0.00    -0.572 OA
ATOM     32  S   ASG d 514      24.512  23.173  -3.214  0.00  0.00     0.252 S 
ATOM     33  C2  ASG d 514      28.686  24.045  -4.096  0.00  0.00     0.087 C 
ATOM     34  O1  ASG d 514      29.595  23.595  -6.251  0.00  0.00    -0.369 OA
ATOM     35  C5  ASG d 514      27.513  21.389  -4.343  0.00  0.00     0.090 C 
ATOM     36  C1  ASG d 514      29.121  22.979  -5.105  0.00  0.00     0.151 C 
ATOM     37  H   ASG d 514      26.845  19.933  -5.732  0.00  0.00     0.078 H 
ATOM     38  H   ASG d 514      25.596  21.034  -5.152  0.00  0.00     0.078 H 
ATOM     39  H   ASG d 514      26.815  18.960  -3.648  0.00  0.00     0.209 HD
ATOM     40  H   ASG d 514      26.686  21.796  -2.423  0.00  0.00     0.093 H 
ATOM     41  H   ASG d 514      30.692  24.410  -3.515  0.00  0.00     0.163 HD
ATOM     42  H   ASG d 514      30.735  27.983  -3.140  0.00  0.00     0.040 H 
ATOM     43  H   ASG d 514      31.753  26.765  -3.870  0.00  0.00     0.040 H 
ATOM     44  H   ASG d 514      31.259  26.606  -2.202  0.00  0.00     0.040 H 
ATOM     45  H   ASG d 514      28.853  22.823  -2.366  0.00  0.00     0.091 H 
ATOM     46  H   ASG d 514      27.952  24.685  -4.541  0.00  0.00     0.084 H 
ATOM     47  H   ASG d 514      29.870  22.920  -6.890  0.00  0.00     0.212 HD
ATOM     48  H   ASG d 514      28.272  20.810  -3.860  0.00  0.00     0.090 H 
ATOM     49  H   ASG d 514      29.884  22.383  -4.649  0.00  0.00     0.132 H 
ENDROOT
TORSDOF 12
ENDMDL
MODEL 41
REMARK VINA RESULT:      -5.8      2.987      6.993
REMARK  0 active torsions:
REMARK  status: ('A' for Active; 'I' for Inactive)
REMARK       I    between atoms: C6_2  and  C5_28 
REMARK       I    between atoms: C6_2  and  O6_5 
REMARK       I    between atoms: C2_4  and  O2_16 
REMARK       I    between atoms: C5_6  and  C6_24 
REMARK       I    between atoms: C4_7  and  O4_17 
REMARK       I    between atoms: O3_8  and  C3_19 
REMARK       I    between atoms: O3_10  and  C3_18 
REMARK       I    between atoms: O3_10  and  C1_30 
REMARK       I    between atoms: N_11  and  C2_26 
REMARK       I    between atoms: N_11  and  C7_21 
REMARK       I    between atoms: C8_13  and  C7_21 
REMARK       I    between atoms: O4_17  and  S_25 
REMARK       I    between atoms: O1_27  and  C1_29 
ROOT
ATOM      1  O5  GC4 d 516      27.051  20.482  -0.960  0.00  0.00    -0.311 OA
ATOM      2  O6A GC4 d 516      25.373  17.233  -1.634  0.00  0.00    -0.642 OA
ATOM      3  C2  GC4 d 516      26.581  21.408   1.224  0.00  0.00     0.111 C 
ATOM      4  C5  GC4 d 516      26.233  19.306  -0.794  0.00  0.00     0.147 C 
ATOM      5  O3  GC4 d 516      24.197  20.961   1.314  0.00  0.00    -0.389 OA
ATOM      6  O6B GC4 d 516      26.660  18.418  -2.960  0.00  0.00    -0.642 OA
ATOM      7  O2  GC4 d 516      27.831  20.928   1.700  0.00  0.00    -0.388 OA
ATOM      8  C3  GC4 d 516      25.479  20.369   1.539  0.00  0.00     0.084 C 
ATOM      9  C4  GC4 d 516      25.416  19.218   0.499  0.00  0.00    -0.034 C 
ATOM     10  C6  GC4 d 516      26.098  18.229  -1.861  0.00  0.00     0.233 C 
ATOM     11  C1  GC4 d 516      26.652  21.677  -0.289  0.00  0.00     0.165 C 
ATOM     12  H   GC4 d 516      26.345  22.328   1.715  0.00  0.00     0.095 H 
ATOM     13  H   GC4 d 516      24.082  21.719   1.908  0.00  0.00     0.210 HD
ATOM     14  H   GC4 d 516      28.048  20.094   1.256  0.00  0.00     0.210 HD
ATOM     15  H   GC4 d 516      25.695  20.039   2.533  0.00  0.00     0.093 H 
ATOM     16  H   GC4 d 516      24.824  18.392   0.680  0.00  0.00     0.085 H 
ATOM     17  H   GC4 d 516      27.384  22.453  -0.382  0.00  0.00     0.134 H 
ATOM     18  C6  ASG d 514      23.828  22.258  -5.602  0.00  0.00     0.043 C 
ATOM     19  O6  ASG d 514      24.124  20.923  -5.984  0.00  0.00    -0.398 OA
ATOM     20  C4  ASG d 514      24.749  22.134  -3.229  0.00  0.00     0.114 C 
ATOM     21  O7  ASG d 514      25.208  25.313   0.364  0.00  0.00    -0.274 OA
ATOM     22  O3  ASG d 514      25.516  22.280  -0.924  0.00  0.00    -0.348 OA
ATOM     23  N   ASG d 514      26.565  24.963  -1.430  0.00  0.00    -0.349 N 
ATOM     24  OSC ASG d 514      23.111  19.877  -2.561  0.00  0.00    -0.572 OA
ATOM     25  C8  ASG d 514      27.442  26.017   0.573  0.00  0.00    -0.003 C 
ATOM     26  O5  ASG d 514      24.595  24.210  -4.488  0.00  0.00    -0.349 OA
ATOM     27  O4  ASG d 514      23.416  22.232  -2.724  0.00  0.00    -0.246 OA
ATOM     28  C3  ASG d 514      25.723  22.808  -2.245  0.00  0.00     0.094 C 
ATOM     29  C7  ASG d 514      26.322  25.403  -0.190  0.00  0.00     0.214 C 
ATOM     30  OSA ASG d 514      22.397  21.246  -0.851  0.00  0.00    -0.572 OA
ATOM     31  OSB ASG d 514      21.307  21.282  -2.985  0.00  0.00    -0.572 OA
ATOM     32  S   ASG d 514      22.537  21.160  -2.273  0.00  0.00     0.252 S 
ATOM     33  C2  ASG d 514      25.526  24.326  -2.230  0.00  0.00     0.087 C 
ATOM     34  O1  ASG d 514      25.319  26.216  -3.664  0.00  0.00    -0.369 OA
ATOM     35  C5  ASG d 514      24.844  22.794  -4.613  0.00  0.00     0.090 C 
ATOM     36  C1  ASG d 514      25.580  24.856  -3.665  0.00  0.00     0.151 C 
ATOM     37  H   ASG d 514      23.832  22.879  -6.474  0.00  0.00     0.078 H 
ATOM     38  H   ASG d 514      22.867  22.268  -5.132  0.00  0.00     0.078 H 
ATOM     39  H   ASG d 514      24.993  20.894  -6.413  0.00  0.00     0.209 HD
ATOM     40  H   ASG d 514      25.013  21.103  -3.329  0.00  0.00     0.093 H 
ATOM     41  H   ASG d 514      27.466  25.072  -1.811  0.00  0.00     0.163 HD
ATOM     42  H   ASG d 514      27.093  26.316   1.539  0.00  0.00     0.040 H 
ATOM     43  H   ASG d 514      27.807  26.872   0.044  0.00  0.00     0.040 H 
ATOM     44  H   ASG d 514      28.231  25.302   0.684  0.00  0.00     0.040 H 
ATOM     45  H   ASG d 514      26.723  22.602  -2.565  0.00  0.00     0.091 H 
ATOM     46  H   ASG d 514      24.574  24.552  -1.797  0.00  0.00     0.084 H 
ATOM     47  H   ASG d 514      25.352  26.553  -4.573  0.00  0.00     0.212 HD
ATOM     48  H   ASG d 514      25.827  22.577  -4.977  0.00  0.00     0.090 H 
ATOM     49  H   ASG d 514      26.555  24.656  -4.057  0.00  0.00     0.132 H 
ENDROOT
TORSDOF 12
ENDMDL
MODEL 42
REMARK VINA RESULT:      -5.8      2.744      6.021
REMARK  0 active torsions:
REMARK  status: ('A' for Active; 'I' for Inactive)
REMARK       I    between atoms: C6_2  and  C5_28 
REMARK       I    between atoms: C6_2  and  O6_5 
REMARK       I    between atoms: C2_4  and  O2_16 
REMARK       I    between atoms: C5_6  and  C6_24 
REMARK       I    between atoms: C4_7  and  O4_17 
REMARK       I    between atoms: O3_8  and  C3_19 
REMARK       I    between atoms: O3_10  and  C3_18 
REMARK       I    between atoms: O3_10  and  C1_30 
REMARK       I    between atoms: N_11  and  C2_26 
REMARK       I    between atoms: N_11  and  C7_21 
REMARK       I    between atoms: C8_13  and  C7_21 
REMARK       I    between atoms: O4_17  and  S_25 
REMARK       I    between atoms: O1_27  and  C1_29 
ROOT
ATOM      1  O5  GC4 d 516      24.153  24.410  -1.096  0.00  0.00    -0.311 OA
ATOM      2  O6A GC4 d 516      22.741  25.099  -4.467  0.00  0.00    -0.642 OA
ATOM      3  C2  GC4 d 516      26.569  24.451  -1.005  0.00  0.00     0.111 C 
ATOM      4  C5  GC4 d 516      24.060  24.698  -2.506  0.00  0.00     0.147 C 
ATOM      5  O3  GC4 d 516      27.041  23.234  -3.051  0.00  0.00    -0.389 OA
ATOM      6  O6B GC4 d 516      21.685  24.613  -2.606  0.00  0.00    -0.642 OA
ATOM      7  O2  GC4 d 516      26.529  25.765  -0.464  0.00  0.00    -0.388 OA
ATOM      8  C3  GC4 d 516      26.727  24.532  -2.541  0.00  0.00     0.084 C 
ATOM      9  C4  GC4 d 516      25.382  24.778  -3.277  0.00  0.00    -0.034 C 
ATOM     10  C6  GC4 d 516      22.735  24.839  -3.242  0.00  0.00     0.233 C 
ATOM     11  C1  GC4 d 516      25.289  23.681  -0.634  0.00  0.00     0.165 C 
ATOM     12  H   GC4 d 516      27.405  23.925  -0.594  0.00  0.00     0.095 H 
ATOM     13  H   GC4 d 516      27.881  22.933  -2.672  0.00  0.00     0.210 HD
ATOM     14  H   GC4 d 516      25.772  26.244  -0.835  0.00  0.00     0.210 HD
ATOM     15  H   GC4 d 516      27.450  25.305  -2.698  0.00  0.00     0.093 H 
ATOM     16  H   GC4 d 516      25.378  24.997  -4.285  0.00  0.00     0.085 H 
ATOM     17  H   GC4 d 516      25.321  23.622   0.434  0.00  0.00     0.134 H 
ATOM     18  C6  ASG d 514      21.380  19.225  -1.815  0.00  0.00     0.043 C 
ATOM     19  O6  ASG d 514      20.476  20.099  -2.475  0.00  0.00    -0.398 OA
ATOM     20  C4  ASG d 514      23.256  20.910  -1.443  0.00  0.00     0.114 C 
ATOM     21  O7  ASG d 514      27.553  20.723   0.731  0.00  0.00    -0.274 OA
ATOM     22  O3  ASG d 514      25.205  22.295  -0.993  0.00  0.00    -0.348 OA
ATOM     23  N   ASG d 514      25.493  21.056   1.641  0.00  0.00    -0.349 N 
ATOM     24  OSC ASG d 514      23.408  21.569  -4.230  0.00  0.00    -0.572 OA
ATOM     25  C8  ASG d 514      27.479  21.808   2.815  0.00  0.00    -0.003 C 
ATOM     26  O5  ASG d 514      22.922  18.959  -0.030  0.00  0.00    -0.349 OA
ATOM     27  O4  ASG d 514      24.057  20.203  -2.392  0.00  0.00    -0.246 OA
ATOM     28  C3  ASG d 514      24.162  21.530  -0.365  0.00  0.00     0.094 C 
ATOM     29  C7  ASG d 514      26.828  21.149   1.651  0.00  0.00     0.214 C 
ATOM     30  OSA ASG d 514      25.618  20.969  -3.972  0.00  0.00    -0.572 OA
ATOM     31  OSB ASG d 514      23.964  19.333  -4.549  0.00  0.00    -0.572 OA
ATOM     32  S   ASG d 514      24.273  20.507  -3.801  0.00  0.00     0.252 S 
ATOM     33  C2  ASG d 514      24.780  20.448   0.523  0.00  0.00     0.087 C 
ATOM     34  O1  ASG d 514      24.233  18.505   1.787  0.00  0.00    -0.369 OA
ATOM     35  C5  ASG d 514      22.230  19.963  -0.801  0.00  0.00     0.090 C 
ATOM     36  C1  ASG d 514      23.671  19.535   1.052  0.00  0.00     0.151 C 
ATOM     37  H   ASG d 514      20.822  18.463  -1.312  0.00  0.00     0.078 H 
ATOM     38  H   ASG d 514      22.030  18.799  -2.551  0.00  0.00     0.078 H 
ATOM     39  H   ASG d 514      19.876  20.496  -1.823  0.00  0.00     0.209 HD
ATOM     40  H   ASG d 514      22.724  21.691  -1.944  0.00  0.00     0.093 H 
ATOM     41  H   ASG d 514      24.980  21.406   2.404  0.00  0.00     0.163 HD
ATOM     42  H   ASG d 514      28.540  21.805   2.679  0.00  0.00     0.040 H 
ATOM     43  H   ASG d 514      27.233  21.276   3.710  0.00  0.00     0.040 H 
ATOM     44  H   ASG d 514      27.132  22.818   2.894  0.00  0.00     0.040 H 
ATOM     45  H   ASG d 514      23.565  22.170   0.251  0.00  0.00     0.091 H 
ATOM     46  H   ASG d 514      25.475  19.875  -0.054  0.00  0.00     0.084 H 
ATOM     47  H   ASG d 514      23.531  17.926   2.122  0.00  0.00     0.212 HD
ATOM     48  H   ASG d 514      21.594  20.580  -0.201  0.00  0.00     0.090 H 
ATOM     49  H   ASG d 514      23.017  20.124   1.660  0.00  0.00     0.132 H 
ENDROOT
TORSDOF 12
ENDMDL
MODEL 43
REMARK VINA RESULT:      -5.8      2.695      5.835
REMARK  0 active torsions:
REMARK  status: ('A' for Active; 'I' for Inactive)
REMARK       I    between atoms: C6_2  and  C5_28 
REMARK       I    between atoms: C6_2  and  O6_5 
REMARK       I    between atoms: C2_4  and  O2_16 
REMARK       I    between atoms: C5_6  and  C6_24 
REMARK       I    between atoms: C4_7  and  O4_17 
REMARK       I    between atoms: O3_8  and  C3_19 
REMARK       I    between atoms: O3_10  and  C3_18 
REMARK       I    between atoms: O3_10  and  C1_30 
REMARK       I    between atoms: N_11  and  C2_26 
REMARK       I    between atoms: N_11  and  C7_21 
REMARK       I    between atoms: C8_13  and  C7_21 
REMARK       I    between atoms: O4_17  and  S_25 
REMARK       I    between atoms: O1_27  and  C1_29 
ROOT
ATOM      1  O5  GC4 d 516      27.824  23.058  -0.470  0.00  0.00    -0.311 OA
ATOM      2  O6A GC4 d 516      26.226  22.798   2.878  0.00  0.00    -0.642 OA
ATOM      3  C2  GC4 d 516      26.973  24.861  -1.838  0.00  0.00     0.111 C 
ATOM      4  C5  GC4 d 516      26.961  23.317   0.657  0.00  0.00     0.147 C 
ATOM      5  O3  GC4 d 516      24.605  24.594  -1.378  0.00  0.00    -0.389 OA
ATOM      6  O6B GC4 d 516      27.767  21.515   1.985  0.00  0.00    -0.642 OA
ATOM      7  O2  GC4 d 516      28.099  25.657  -1.496  0.00  0.00    -0.388 OA
ATOM      8  C3  GC4 d 516      25.806  25.179  -0.873  0.00  0.00     0.084 C 
ATOM      9  C4  GC4 d 516      25.913  24.421   0.477  0.00  0.00    -0.034 C 
ATOM     10  C6  GC4 d 516      27.004  22.502   1.942  0.00  0.00     0.233 C 
ATOM     11  C1  GC4 d 516      27.334  23.367  -1.775  0.00  0.00     0.165 C 
ATOM     12  H   GC4 d 516      26.671  25.088  -2.839  0.00  0.00     0.095 H 
ATOM     13  H   GC4 d 516      24.398  24.977  -2.245  0.00  0.00     0.210 HD
ATOM     14  H   GC4 d 516      28.375  25.453  -0.589  0.00  0.00     0.210 HD
ATOM     15  H   GC4 d 516      25.824  26.244  -0.770  0.00  0.00     0.093 H 
ATOM     16  H   GC4 d 516      25.279  24.660   1.255  0.00  0.00     0.085 H 
ATOM     17  H   GC4 d 516      28.088  23.249  -2.524  0.00  0.00     0.134 H 
ATOM     18  C6  ASG d 514      25.576  17.619  -1.140  0.00  0.00     0.043 C 
ATOM     19  O6  ASG d 514      25.906  17.598   0.241  0.00  0.00    -0.398 OA
ATOM     20  C4  ASG d 514      26.030  20.093  -1.550  0.00  0.00     0.114 C 
ATOM     21  O7  ASG d 514      25.880  22.934  -5.439  0.00  0.00    -0.274 OA
ATOM     22  O3  ASG d 514      26.352  22.414  -2.205  0.00  0.00    -0.348 OA
ATOM     23  N   ASG d 514      27.542  21.548  -4.733  0.00  0.00    -0.349 N 
ATOM     24  OSC ASG d 514      24.242  20.912   0.538  0.00  0.00    -0.572 OA
ATOM     25  C8  ASG d 514      28.051  23.405  -6.211  0.00  0.00    -0.003 C 
ATOM     26  O5  ASG d 514      26.166  18.410  -3.300  0.00  0.00    -0.349 OA
ATOM     27  O4  ASG d 514      24.628  20.304  -1.731  0.00  0.00    -0.246 OA
ATOM     28  C3  ASG d 514      26.817  21.074  -2.438  0.00  0.00     0.094 C 
ATOM     29  C7  ASG d 514      27.080  22.595  -5.426  0.00  0.00     0.214 C 
ATOM     30  OSA ASG d 514      23.252  22.119  -1.156  0.00  0.00    -0.572 OA
ATOM     31  OSB ASG d 514      22.584  19.861  -0.709  0.00  0.00    -0.572 OA
ATOM     32  S   ASG d 514      23.655  20.801  -0.766  0.00  0.00     0.252 S 
ATOM     33  C2  ASG d 514      26.657  20.723  -3.919  0.00  0.00     0.087 C 
ATOM     34  O1  ASG d 514      26.769  18.901  -5.450  0.00  0.00    -0.369 OA
ATOM     35  C5  ASG d 514      26.400  18.643  -1.895  0.00  0.00     0.090 C 
ATOM     36  C1  ASG d 514      26.993  19.244  -4.126  0.00  0.00     0.151 C 
ATOM     37  H   ASG d 514      25.759  16.650  -1.556  0.00  0.00     0.078 H 
ATOM     38  H   ASG d 514      24.544  17.885  -1.234  0.00  0.00     0.078 H 
ATOM     39  H   ASG d 514      26.840  17.357   0.346  0.00  0.00     0.209 HD
ATOM     40  H   ASG d 514      26.283  20.270  -0.526  0.00  0.00     0.093 H 
ATOM     41  H   ASG d 514      28.501  21.330  -4.772  0.00  0.00     0.163 HD
ATOM     42  H   ASG d 514      27.534  24.200  -6.706  0.00  0.00     0.040 H 
ATOM     43  H   ASG d 514      28.529  22.782  -6.938  0.00  0.00     0.040 H 
ATOM     44  H   ASG d 514      28.787  23.815  -5.552  0.00  0.00     0.040 H 
ATOM     45  H   ASG d 514      27.854  21.001  -2.185  0.00  0.00     0.091 H 
ATOM     46  H   ASG d 514      25.646  20.909  -4.217  0.00  0.00     0.084 H 
ATOM     47  H   ASG d 514      26.981  17.964  -5.582  0.00  0.00     0.212 HD
ATOM     48  H   ASG d 514      27.428  18.527  -1.622  0.00  0.00     0.090 H 
ATOM     49  H   ASG d 514      28.019  19.096  -3.863  0.00  0.00     0.132 H 
ENDROOT
TORSDOF 12
ENDMDL
MODEL 44
REMARK VINA RESULT:      -5.6      3.501      7.268
REMARK  0 active torsions:
REMARK  status: ('A' for Active; 'I' for Inactive)
REMARK       I    between atoms: C6_2  and  C5_28 
REMARK       I    between atoms: C6_2  and  O6_5 
REMARK       I    between atoms: C2_4  and  O2_16 
REMARK       I    between atoms: C5_6  and  C6_24 
REMARK       I    between atoms: C4_7  and  O4_17 
REMARK       I    between atoms: O3_8  and  C3_19 
REMARK       I    between atoms: O3_10  and  C3_18 
REMARK       I    between atoms: O3_10  and  C1_30 
REMARK       I    between atoms: N_11  and  C2_26 
REMARK       I    between atoms: N_11  and  C7_21 
REMARK       I    between atoms: C8_13  and  C7_21 
REMARK       I    between atoms: O4_17  and  S_25 
REMARK       I    between atoms: O1_27  and  C1_29 
ROOT
ATOM      1  O5  GC4 d 516      26.674  21.248  -1.716  0.00  0.00    -0.311 OA
ATOM      2  O6A GC4 d 516      27.198  17.814  -0.388  0.00  0.00    -0.642 OA
ATOM      3  C2  GC4 d 516      26.417  22.942  -0.010  0.00  0.00     0.111 C 
ATOM      4  C5  GC4 d 516      26.830  20.146  -0.797  0.00  0.00     0.147 C 
ATOM      5  O3  GC4 d 516      24.953  21.732   1.501  0.00  0.00    -0.389 OA
ATOM      6  O6B GC4 d 516      27.038  18.472  -2.476  0.00  0.00    -0.642 OA
ATOM      7  O2  GC4 d 516      27.772  23.331  -0.187  0.00  0.00    -0.388 OA
ATOM      8  C3  GC4 d 516      26.324  21.914   1.142  0.00  0.00     0.084 C 
ATOM      9  C4  GC4 d 516      26.665  20.467   0.692  0.00  0.00    -0.034 C 
ATOM     10  C6  GC4 d 516      27.064  18.712  -1.251  0.00  0.00     0.233 C 
ATOM     11  C1  GC4 d 516      25.856  22.346  -1.313  0.00  0.00     0.165 C 
ATOM     12  H   GC4 d 516      25.832  23.802   0.241  0.00  0.00     0.095 H 
ATOM     13  H   GC4 d 516      24.586  22.575   1.812  0.00  0.00     0.210 HD
ATOM     14  H   GC4 d 516      28.304  22.553  -0.415  0.00  0.00     0.210 HD
ATOM     15  H   GC4 d 516      26.979  22.293   1.897  0.00  0.00     0.093 H 
ATOM     16  H   GC4 d 516      26.780  19.722   1.395  0.00  0.00     0.085 H 
ATOM     17  H   GC4 d 516      25.901  23.156  -2.011  0.00  0.00     0.134 H 
ATOM     18  C6  ASG d 514      21.838  18.786  -4.091  0.00  0.00     0.043 C 
ATOM     19  O6  ASG d 514      22.751  17.700  -4.170  0.00  0.00    -0.398 OA
ATOM     20  C4  ASG d 514      23.300  20.345  -2.701  0.00  0.00     0.114 C 
ATOM     21  O7  ASG d 514      22.785  24.842  -1.049  0.00  0.00    -0.274 OA
ATOM     22  O3  ASG d 514      24.464  22.006  -1.358  0.00  0.00    -0.348 OA
ATOM     23  N   ASG d 514      23.466  24.132  -3.102  0.00  0.00    -0.349 N 
ATOM     24  OSC ASG d 514      23.653  18.394  -0.628  0.00  0.00    -0.572 OA
ATOM     25  C8  ASG d 514      24.073  26.347  -2.316  0.00  0.00    -0.003 C 
ATOM     26  O5  ASG d 514      21.557  21.141  -4.199  0.00  0.00    -0.349 OA
ATOM     27  O4  ASG d 514      22.406  20.174  -1.600  0.00  0.00    -0.246 OA
ATOM     28  C3  ASG d 514      23.904  21.760  -2.659  0.00  0.00     0.094 C 
ATOM     29  C7  ASG d 514      23.390  25.040  -2.122  0.00  0.00     0.214 C 
ATOM     30  OSA ASG d 514      22.806  20.066   0.713  0.00  0.00    -0.572 OA
ATOM     31  OSB ASG d 514      21.344  18.506  -0.371  0.00  0.00    -0.572 OA
ATOM     32  S   ASG d 514      22.538  19.281  -0.455  0.00  0.00     0.252 S 
ATOM     33  C2  ASG d 514      22.846  22.819  -2.975  0.00  0.00     0.087 C 
ATOM     34  O1  ASG d 514      21.123  23.362  -4.528  0.00  0.00    -0.369 OA
ATOM     35  C5  ASG d 514      22.560  20.118  -4.028  0.00  0.00     0.090 C 
ATOM     36  C1  ASG d 514      22.138  22.452  -4.282  0.00  0.00     0.151 C 
ATOM     37  H   ASG d 514      21.207  18.773  -4.955  0.00  0.00     0.078 H 
ATOM     38  H   ASG d 514      21.262  18.675  -3.196  0.00  0.00     0.078 H 
ATOM     39  H   ASG d 514      23.283  17.784  -4.977  0.00  0.00     0.209 HD
ATOM     40  H   ASG d 514      24.089  19.626  -2.629  0.00  0.00     0.093 H 
ATOM     41  H   ASG d 514      23.953  24.356  -3.928  0.00  0.00     0.163 HD
ATOM     42  H   ASG d 514      23.922  26.960  -1.453  0.00  0.00     0.040 H 
ATOM     43  H   ASG d 514      23.668  26.836  -3.177  0.00  0.00     0.040 H 
ATOM     44  H   ASG d 514      25.121  26.184  -2.458  0.00  0.00     0.040 H 
ATOM     45  H   ASG d 514      24.673  21.821  -3.401  0.00  0.00     0.091 H 
ATOM     46  H   ASG d 514      22.134  22.853  -2.176  0.00  0.00     0.084 H 
ATOM     47  H   ASG d 514      20.674  23.130  -5.355  0.00  0.00     0.212 HD
ATOM     48  H   ASG d 514      23.309  20.140  -4.792  0.00  0.00     0.090 H 
ATOM     49  H   ASG d 514      22.863  22.469  -5.068  0.00  0.00     0.132 H 
ENDROOT
TORSDOF 12
ENDMDL
MODEL 45
REMARK VINA RESULT:      -5.6      5.178      8.089
REMARK  0 active torsions:
REMARK  status: ('A' for Active; 'I' for Inactive)
REMARK       I    between atoms: C6_2  and  C5_28 
REMARK       I    between atoms: C6_2  and  O6_5 
REMARK       I    between atoms: C2_4  and  O2_16 
REMARK       I    between atoms: C5_6  and  C6_24 
REMARK       I    between atoms: C4_7  and  O4_17 
REMARK       I    between atoms: O3_8  and  C3_19 
REMARK       I    between atoms: O3_10  and  C3_18 
REMARK       I    between atoms: O3_10  and  C1_30 
REMARK       I    between atoms: N_11  and  C2_26 
REMARK       I    between atoms: N_11  and  C7_21 
REMARK       I    between atoms: C8_13  and  C7_21 
REMARK       I    between atoms: O4_17  and  S_25 
REMARK       I    between atoms: O1_27  and  C1_29 
ROOT
ATOM      1  O5  GC4 d 516      26.527  16.782   1.672  0.00  0.00    -0.311 OA
ATOM      2  O6A GC4 d 516      24.674  18.534   4.378  0.00  0.00    -0.642 OA
ATOM      3  C2  GC4 d 516      28.543  17.910   0.958  0.00  0.00     0.111 C 
ATOM      4  C5  GC4 d 516      26.158  17.765   2.660  0.00  0.00     0.147 C 
ATOM      5  O3  GC4 d 516      27.698  20.184   0.899  0.00  0.00    -0.389 OA
ATOM      6  O6B GC4 d 516      24.150  16.678   3.330  0.00  0.00    -0.642 OA
ATOM      7  O2  GC4 d 516      29.324  17.023   1.749  0.00  0.00    -0.388 OA
ATOM      8  C3  GC4 d 516      28.237  19.189   1.772  0.00  0.00     0.084 C 
ATOM      9  C4  GC4 d 516      27.035  19.019   2.740  0.00  0.00    -0.034 C 
ATOM     10  C6  GC4 d 516      24.919  17.639   3.537  0.00  0.00     0.233 C 
ATOM     11  C1  GC4 d 516      27.238  17.226   0.516  0.00  0.00     0.165 C 
ATOM     12  H   GC4 d 516      29.093  18.177   0.080  0.00  0.00     0.095 H 
ATOM     13  H   GC4 d 516      28.352  20.404   0.217  0.00  0.00     0.210 HD
ATOM     14  H   GC4 d 516      28.827  16.779   2.546  0.00  0.00     0.210 HD
ATOM     15  H   GC4 d 516      29.156  19.422   2.267  0.00  0.00     0.093 H 
ATOM     16  H   GC4 d 516      26.827  19.749   3.438  0.00  0.00     0.085 H 
ATOM     17  H   GC4 d 516      27.565  16.408  -0.092  0.00  0.00     0.134 H 
ATOM     18  C6  ASG d 514      21.501  17.680  -1.331  0.00  0.00     0.043 C 
ATOM     19  O6  ASG d 514      20.990  17.461  -0.024  0.00  0.00    -0.398 OA
ATOM     20  C4  ASG d 514      23.971  17.767  -0.709  0.00  0.00     0.114 C 
ATOM     21  O7  ASG d 514      28.051  18.255  -3.227  0.00  0.00    -0.274 OA
ATOM     22  O3  ASG d 514      26.377  17.929  -0.390  0.00  0.00    -0.348 OA
ATOM     23  N   ASG d 514      26.819  16.382  -2.833  0.00  0.00    -0.349 N 
ATOM     24  OSC ASG d 514      23.556  19.850   1.218  0.00  0.00    -0.572 OA
ATOM     25  C8  ASG d 514      29.169  16.194  -3.409  0.00  0.00    -0.003 C 
ATOM     26  O5  ASG d 514      23.179  17.119  -2.915  0.00  0.00    -0.349 OA
ATOM     27  O4  ASG d 514      23.983  19.162  -1.020  0.00  0.00    -0.246 OA
ATOM     28  C3  ASG d 514      25.348  17.157  -1.029  0.00  0.00     0.094 C 
ATOM     29  C7  ASG d 514      27.955  17.014  -3.149  0.00  0.00     0.214 C 
ATOM     30  OSA ASG d 514      25.142  20.954  -0.038  0.00  0.00    -0.572 OA
ATOM     31  OSB ASG d 514      22.814  21.125  -0.580  0.00  0.00    -0.572 OA
ATOM     32  S   ASG d 514      23.873  20.295  -0.110  0.00  0.00     0.252 S 
ATOM     33  C2  ASG d 514      25.594  17.117  -2.539  0.00  0.00     0.087 C 
ATOM     34  O1  ASG d 514      24.586  16.478  -4.600  0.00  0.00    -0.369 OA
ATOM     35  C5  ASG d 514      22.870  17.053  -1.507  0.00  0.00     0.090 C 
ATOM     36  C1  ASG d 514      24.406  16.441  -3.227  0.00  0.00     0.151 C 
ATOM     37  H   ASG d 514      20.828  17.250  -2.044  0.00  0.00     0.078 H 
ATOM     38  H   ASG d 514      21.594  18.735  -1.483  0.00  0.00     0.078 H 
ATOM     39  H   ASG d 514      20.898  16.508   0.131  0.00  0.00     0.209 HD
ATOM     40  H   ASG d 514      23.767  17.641   0.333  0.00  0.00     0.093 H 
ATOM     41  H   ASG d 514      26.809  15.399  -2.797  0.00  0.00     0.163 HD
ATOM     42  H   ASG d 514      29.989  16.838  -3.647  0.00  0.00     0.040 H 
ATOM     43  H   ASG d 514      28.984  15.533  -4.229  0.00  0.00     0.040 H 
ATOM     44  H   ASG d 514      29.406  15.623  -2.535  0.00  0.00     0.040 H 
ATOM     45  H   ASG d 514      25.366  16.153  -0.659  0.00  0.00     0.091 H 
ATOM     46  H   ASG d 514      25.700  18.118  -2.903  0.00  0.00     0.084 H 
ATOM     47  H   ASG d 514      23.833  16.049  -5.036  0.00  0.00     0.212 HD
ATOM     48  H   ASG d 514      22.840  16.050  -1.136  0.00  0.00     0.090 H 
ATOM     49  H   ASG d 514      24.351  15.431  -2.877  0.00  0.00     0.132 H 
ENDROOT
TORSDOF 12
ENDMDL
MODEL 46
REMARK VINA RESULT:      -5.4      3.161      6.387
REMARK  0 active torsions:
REMARK  status: ('A' for Active; 'I' for Inactive)
REMARK       I    between atoms: C6_2  and  C5_28 
REMARK       I    between atoms: C6_2  and  O6_5 
REMARK       I    between atoms: C2_4  and  O2_16 
REMARK       I    between atoms: C5_6  and  C6_24 
REMARK       I    between atoms: C4_7  and  O4_17 
REMARK       I    between atoms: O3_8  and  C3_19 
REMARK       I    between atoms: O3_10  and  C3_18 
REMARK       I    between atoms: O3_10  and  C1_30 
REMARK       I    between atoms: N_11  and  C2_26 
REMARK       I    between atoms: N_11  and  C7_21 
REMARK       I    between atoms: C8_13  and  C7_21 
REMARK       I    between atoms: O4_17  and  S_25 
REMARK       I    between atoms: O1_27  and  C1_29 
ROOT
ATOM      1  O5  GC4 d 516      27.119  20.900  -0.682  0.00  0.00    -0.311 OA
ATOM      2  O6A GC4 d 516      25.786  22.185   2.543  0.00  0.00    -0.642 OA
ATOM      3  C2  GC4 d 516      26.902  22.442  -2.532  0.00  0.00     0.111 C 
ATOM      4  C5  GC4 d 516      26.499  21.762   0.294  0.00  0.00     0.147 C 
ATOM      5  O3  GC4 d 516      24.644  23.223  -2.103  0.00  0.00    -0.389 OA
ATOM      6  O6B GC4 d 516      26.672  20.226   2.103  0.00  0.00    -0.642 OA
ATOM      7  O2  GC4 d 516      28.265  22.816  -2.384  0.00  0.00    -0.388 OA
ATOM      8  C3  GC4 d 516      26.010  23.427  -1.738  0.00  0.00     0.084 C 
ATOM      9  C4  GC4 d 516      25.925  23.084  -0.226  0.00  0.00    -0.034 C 
ATOM     10  C6  GC4 d 516      26.329  21.375   1.757  0.00  0.00     0.233 C 
ATOM     11  C1  GC4 d 516      26.686  21.001  -2.038  0.00  0.00     0.165 C 
ATOM     12  H   GC4 d 516      26.634  22.484  -3.566  0.00  0.00     0.095 H 
ATOM     13  H   GC4 d 516      24.532  23.403  -3.050  0.00  0.00     0.210 HD
ATOM     14  H   GC4 d 516      28.511  22.779  -1.447  0.00  0.00     0.210 HD
ATOM     15  H   GC4 d 516      26.429  24.391  -1.936  0.00  0.00     0.093 H 
ATOM     16  H   GC4 d 516      25.483  23.747   0.429  0.00  0.00     0.085 H 
ATOM     17  H   GC4 d 516      27.286  20.408  -2.697  0.00  0.00     0.134 H 
ATOM     18  C6  ASG d 514      22.969  16.748   0.115  0.00  0.00     0.043 C 
ATOM     19  O6  ASG d 514      23.368  16.982   1.458  0.00  0.00    -0.398 OA
ATOM     20  C4  ASG d 514      24.279  18.655  -0.954  0.00  0.00     0.114 C 
ATOM     21  O7  ASG d 514      24.912  20.165  -5.486  0.00  0.00    -0.274 OA
ATOM     22  O3  ASG d 514      25.392  20.409  -2.221  0.00  0.00    -0.348 OA
ATOM     23  N   ASG d 514      25.988  18.505  -4.359  0.00  0.00    -0.349 N 
ATOM     24  OSC ASG d 514      23.080  20.624   0.754  0.00  0.00    -0.572 OA
ATOM     25  C8  ASG d 514      27.041  19.553  -6.278  0.00  0.00    -0.003 C 
ATOM     26  O5  ASG d 514      23.652  16.636  -2.156  0.00  0.00    -0.349 OA
ATOM     27  O4  ASG d 514      23.047  19.320  -1.239  0.00  0.00    -0.246 OA
ATOM     28  C3  ASG d 514      25.307  18.985  -2.052  0.00  0.00     0.094 C 
ATOM     29  C7  ASG d 514      25.898  19.416  -5.335  0.00  0.00     0.214 C 
ATOM     30  OSA ASG d 514      22.488  21.602  -1.247  0.00  0.00    -0.572 OA
ATOM     31  OSB ASG d 514      21.065  19.977  -0.210  0.00  0.00    -0.572 OA
ATOM     32  S   ASG d 514      22.400  20.390  -0.489  0.00  0.00     0.252 S 
ATOM     33  C2  ASG d 514      24.921  18.330  -3.380  0.00  0.00     0.087 C 
ATOM     34  O1  ASG d 514      24.237  16.257  -4.334  0.00  0.00    -0.369 OA
ATOM     35  C5  ASG d 514      24.058  17.138  -0.865  0.00  0.00     0.090 C 
ATOM     36  C1  ASG d 514      24.668  16.837  -3.152  0.00  0.00     0.151 C 
ATOM     37  H   ASG d 514      22.749  15.708  -0.006  0.00  0.00     0.078 H 
ATOM     38  H   ASG d 514      22.106  17.347  -0.087  0.00  0.00     0.078 H 
ATOM     39  H   ASG d 514      24.150  16.446   1.661  0.00  0.00     0.209 HD
ATOM     40  H   ASG d 514      24.654  18.996  -0.012  0.00  0.00     0.093 H 
ATOM     41  H   ASG d 514      26.791  17.939  -4.300  0.00  0.00     0.163 HD
ATOM     42  H   ASG d 514      26.821  20.316  -6.995  0.00  0.00     0.040 H 
ATOM     43  H   ASG d 514      27.199  18.623  -6.783  0.00  0.00     0.040 H 
ATOM     44  H   ASG d 514      27.923  19.818  -5.733  0.00  0.00     0.040 H 
ATOM     45  H   ASG d 514      26.258  18.598  -1.750  0.00  0.00     0.091 H 
ATOM     46  H   ASG d 514      24.033  18.794  -3.755  0.00  0.00     0.084 H 
ATOM     47  H   ASG d 514      24.076  15.312  -4.190  0.00  0.00     0.212 HD
ATOM     48  H   ASG d 514      24.986  16.723  -0.532  0.00  0.00     0.090 H 
ATOM     49  H   ASG d 514      25.582  16.392  -2.820  0.00  0.00     0.132 H 
ENDROOT
TORSDOF 12
ENDMDL
MODEL 47
REMARK VINA RESULT:      -5.4      4.420      6.359
REMARK  0 active torsions:
REMARK  status: ('A' for Active; 'I' for Inactive)
REMARK       I    between atoms: C6_2  and  C5_28 
REMARK       I    between atoms: C6_2  and  O6_5 
REMARK       I    between atoms: C2_4  and  O2_16 
REMARK       I    between atoms: C5_6  and  C6_24 
REMARK       I    between atoms: C4_7  and  O4_17 
REMARK       I    between atoms: O3_8  and  C3_19 
REMARK       I    between atoms: O3_10  and  C3_18 
REMARK       I    between atoms: O3_10  and  C1_30 
REMARK       I    between atoms: N_11  and  C2_26 
REMARK       I    between atoms: N_11  and  C7_21 
REMARK       I    between atoms: C8_13  and  C7_21 
REMARK       I    between atoms: O4_17  and  S_25 
REMARK       I    between atoms: O1_27  and  C1_29 
ROOT
ATOM      1  O5  GC4 d 516      24.789  25.336  -2.934  0.00  0.00    -0.311 OA
ATOM      2  O6A GC4 d 516      21.165  26.076  -2.548  0.00  0.00    -0.642 OA
ATOM      3  C2  GC4 d 516      25.611  25.551  -5.198  0.00  0.00     0.111 C 
ATOM      4  C5  GC4 d 516      23.424  25.682  -3.246  0.00  0.00     0.147 C 
ATOM      5  O3  GC4 d 516      23.778  24.470  -6.365  0.00  0.00    -0.389 OA
ATOM      6  O6B GC4 d 516      22.606  25.426  -1.026  0.00  0.00    -0.642 OA
ATOM      7  O2  GC4 d 516      26.143  26.832  -4.886  0.00  0.00    -0.388 OA
ATOM      8  C3  GC4 d 516      24.197  25.716  -5.803  0.00  0.00     0.084 C 
ATOM      9  C4  GC4 d 516      23.093  25.896  -4.726  0.00  0.00    -0.034 C 
ATOM     10  C6  GC4 d 516      22.324  25.759  -2.196  0.00  0.00     0.233 C 
ATOM     11  C1  GC4 d 516      25.558  24.672  -3.936  0.00  0.00     0.165 C 
ATOM     12  H   GC4 d 516      26.244  25.070  -5.913  0.00  0.00     0.095 H 
ATOM     13  H   GC4 d 516      24.387  24.214  -7.075  0.00  0.00     0.210 HD
ATOM     14  H   GC4 d 516      25.570  27.271  -4.238  0.00  0.00     0.210 HD
ATOM     15  H   GC4 d 516      24.284  26.547  -6.471  0.00  0.00     0.093 H 
ATOM     16  H   GC4 d 516      22.136  26.160  -5.007  0.00  0.00     0.085 H 
ATOM     17  H   GC4 d 516      26.584  24.566  -3.650  0.00  0.00     0.134 H 
ATOM     18  C6  ASG d 514      23.147  19.999  -0.955  0.00  0.00     0.043 C 
ATOM     19  O6  ASG d 514      22.264  20.834  -0.221  0.00  0.00    -0.398 OA
ATOM     20  C4  ASG d 514      24.109  21.799  -2.482  0.00  0.00     0.114 C 
ATOM     21  O7  ASG d 514      27.480  21.829  -5.926  0.00  0.00    -0.274 OA
ATOM     22  O3  ASG d 514      25.160  23.302  -4.081  0.00  0.00    -0.348 OA
ATOM     23  N   ASG d 514      27.729  21.966  -3.668  0.00  0.00    -0.349 N 
ATOM     24  OSC ASG d 514      21.515  22.597  -3.409  0.00  0.00    -0.572 OA
ATOM     25  C8  ASG d 514      29.467  22.808  -5.137  0.00  0.00    -0.003 C 
ATOM     26  O5  ASG d 514      25.310  19.765  -1.906  0.00  0.00    -0.349 OA
ATOM     27  O4  ASG d 514      23.433  21.198  -3.589  0.00  0.00    -0.246 OA
ATOM     28  C3  ASG d 514      25.425  22.434  -2.967  0.00  0.00     0.094 C 
ATOM     29  C7  ASG d 514      28.146  22.157  -4.924  0.00  0.00     0.214 C 
ATOM     30  OSA ASG d 514      22.418  22.151  -5.482  0.00  0.00    -0.572 OA
ATOM     31  OSB ASG d 514      21.331  20.426  -4.223  0.00  0.00    -0.572 OA
ATOM     32  S   ASG d 514      22.163  21.583  -4.192  0.00  0.00     0.252 S 
ATOM     33  C2  ASG d 514      26.435  21.360  -3.378  0.00  0.00     0.087 C 
ATOM     34  O1  ASG d 514      27.430  19.325  -2.643  0.00  0.00    -0.369 OA
ATOM     35  C5  ASG d 514      24.388  20.750  -1.396  0.00  0.00     0.090 C 
ATOM     36  C1  ASG d 514      26.581  20.344  -2.243  0.00  0.00     0.151 C 
ATOM     37  H   ASG d 514      23.441  19.175  -0.339  0.00  0.00     0.078 H 
ATOM     38  H   ASG d 514      22.635  19.658  -1.830  0.00  0.00     0.078 H 
ATOM     39  H   ASG d 514      22.712  21.154   0.578  0.00  0.00     0.209 HD
ATOM     40  H   ASG d 514      23.488  22.562  -2.062  0.00  0.00     0.093 H 
ATOM     41  H   ASG d 514      28.308  22.241  -2.921  0.00  0.00     0.163 HD
ATOM     42  H   ASG d 514      29.659  22.890  -6.187  0.00  0.00     0.040 H 
ATOM     43  H   ASG d 514      30.233  22.217  -4.679  0.00  0.00     0.040 H 
ATOM     44  H   ASG d 514      29.459  23.784  -4.699  0.00  0.00     0.040 H 
ATOM     45  H   ASG d 514      25.845  22.998  -2.160  0.00  0.00     0.091 H 
ATOM     46  H   ASG d 514      26.083  20.868  -4.261  0.00  0.00     0.084 H 
ATOM     47  H   ASG d 514      27.522  18.680  -1.925  0.00  0.00     0.212 HD
ATOM     48  H   ASG d 514      24.780  21.289  -0.558  0.00  0.00     0.090 H 
ATOM     49  H   ASG d 514      26.975  20.854  -1.389  0.00  0.00     0.132 H 
ENDROOT
TORSDOF 12
ENDMDL
MODEL 48
REMARK VINA RESULT:      -5.4      2.617      6.007
REMARK  0 active torsions:
REMARK  status: ('A' for Active; 'I' for Inactive)
REMARK       I    between atoms: C6_2  and  C5_28 
REMARK       I    between atoms: C6_2  and  O6_5 
REMARK       I    between atoms: C2_4  and  O2_16 
REMARK       I    between atoms: C5_6  and  C6_24 
REMARK       I    between atoms: C4_7  and  O4_17 
REMARK       I    between atoms: O3_8  and  C3_19 
REMARK       I    between atoms: O3_10  and  C3_18 
REMARK       I    between atoms: O3_10  and  C1_30 
REMARK       I    between atoms: N_11  and  C2_26 
REMARK       I    between atoms: N_11  and  C7_21 
REMARK       I    between atoms: C8_13  and  C7_21 
REMARK       I    between atoms: O4_17  and  S_25 
REMARK       I    between atoms: O1_27  and  C1_29 
ROOT
ATOM      1  O5  GC4 d 516      26.056  19.636  -2.536  0.00  0.00    -0.311 OA
ATOM      2  O6A GC4 d 516      23.620  19.130  -5.299  0.00  0.00    -0.642 OA
ATOM      3  C2  GC4 d 516      25.436  18.568  -0.457  0.00  0.00     0.111 C 
ATOM      4  C5  GC4 d 516      24.890  19.209  -3.268  0.00  0.00     0.147 C 
ATOM      5  O3  GC4 d 516      23.077  19.139  -0.434  0.00  0.00    -0.389 OA
ATOM      6  O6B GC4 d 516      25.478  20.298  -5.300  0.00  0.00    -0.642 OA
ATOM      7  O2  GC4 d 516      26.328  17.498  -0.737  0.00  0.00    -0.388 OA
ATOM      8  C3  GC4 d 516      24.018  18.198  -0.953  0.00  0.00     0.084 C 
ATOM      9  C4  GC4 d 516      23.822  18.450  -2.473  0.00  0.00    -0.034 C 
ATOM     10  C6  GC4 d 516      24.657  19.547  -4.734  0.00  0.00     0.233 C 
ATOM     11  C1  GC4 d 516      25.923  19.862  -1.133  0.00  0.00     0.165 C 
ATOM     12  H   GC4 d 516      25.404  18.736   0.599  0.00  0.00     0.095 H 
ATOM     13  H   GC4 d 516      23.082  19.100   0.535  0.00  0.00     0.210 HD
ATOM     14  H   GC4 d 516      26.359  17.345  -1.694  0.00  0.00     0.210 HD
ATOM     15  H   GC4 d 516      23.891  17.174  -0.669  0.00  0.00     0.093 H 
ATOM     16  H   GC4 d 516      22.973  18.107  -2.947  0.00  0.00     0.085 H 
ATOM     17  H   GC4 d 516      26.865  20.060  -0.667  0.00  0.00     0.134 H 
ATOM     18  C6  ASG d 514      24.685  25.338  -3.373  0.00  0.00     0.043 C 
ATOM     19  O6  ASG d 514      24.614  24.853  -4.706  0.00  0.00    -0.398 OA
ATOM     20  C4  ASG d 514      24.968  23.084  -2.217  0.00  0.00     0.114 C 
ATOM     21  O7  ASG d 514      25.612  21.717   2.359  0.00  0.00    -0.274 OA
ATOM     22  O3  ASG d 514      25.210  21.077  -0.863  0.00  0.00    -0.348 OA
ATOM     23  N   ASG d 514      27.147  22.448   0.846  0.00  0.00    -0.349 N 
ATOM     24  OSC ASG d 514      22.588  22.015  -3.409  0.00  0.00    -0.572 OA
ATOM     25  C8  ASG d 514      27.848  21.096   2.736  0.00  0.00    -0.003 C 
ATOM     26  O5  ASG d 514      25.769  25.175  -1.267  0.00  0.00    -0.349 OA
ATOM     27  O4  ASG d 514      23.659  23.224  -1.660  0.00  0.00    -0.246 OA
ATOM     28  C3  ASG d 514      25.862  22.302  -1.238  0.00  0.00     0.094 C 
ATOM     29  C7  ASG d 514      26.789  21.789   1.954  0.00  0.00     0.214 C 
ATOM     30  OSA ASG d 514      21.990  21.631  -1.218  0.00  0.00    -0.572 OA
ATOM     31  OSB ASG d 514      21.470  23.715  -2.282  0.00  0.00    -0.572 OA
ATOM     32  S   ASG d 514      22.406  22.649  -2.135  0.00  0.00     0.252 S 
ATOM     33  C2  ASG d 514      26.164  23.130   0.013  0.00  0.00     0.087 C 
ATOM     34  O1  ASG d 514      26.896  25.283   0.720  0.00  0.00    -0.369 OA
ATOM     35  C5  ASG d 514      25.573  24.465  -2.508  0.00  0.00     0.090 C 
ATOM     36  C1  ASG d 514      26.701  24.500  -0.406  0.00  0.00     0.151 C 
ATOM     37  H   ASG d 514      25.081  26.332  -3.385  0.00  0.00     0.078 H 
ATOM     38  H   ASG d 514      23.698  25.325  -2.959  0.00  0.00     0.078 H 
ATOM     39  H   ASG d 514      25.501  24.858  -5.099  0.00  0.00     0.209 HD
ATOM     40  H   ASG d 514      24.903  22.544  -3.138  0.00  0.00     0.093 H 
ATOM     41  H   ASG d 514      28.096  22.473   0.586  0.00  0.00     0.163 HD
ATOM     42  H   ASG d 514      27.409  20.619   3.586  0.00  0.00     0.040 H 
ATOM     43  H   ASG d 514      28.575  21.810   3.062  0.00  0.00     0.040 H 
ATOM     44  H   ASG d 514      28.322  20.360   2.119  0.00  0.00     0.040 H 
ATOM     45  H   ASG d 514      26.788  22.084  -1.728  0.00  0.00     0.091 H 
ATOM     46  H   ASG d 514      25.263  23.252   0.578  0.00  0.00     0.084 H 
ATOM     47  H   ASG d 514      27.235  26.152   0.455  0.00  0.00     0.212 HD
ATOM     48  H   ASG d 514      26.489  24.283  -3.030  0.00  0.00     0.090 H 
ATOM     49  H   ASG d 514      27.622  24.351  -0.930  0.00  0.00     0.132 H 
ENDROOT
TORSDOF 12
ENDMDL
MODEL 49
REMARK VINA RESULT:      -5.4      3.986      7.851
REMARK  0 active torsions:
REMARK  status: ('A' for Active; 'I' for Inactive)
REMARK       I    between atoms: C6_2  and  C5_28 
REMARK       I    between atoms: C6_2  and  O6_5 
REMARK       I    between atoms: C2_4  and  O2_16 
REMARK       I    between atoms: C5_6  and  C6_24 
REMARK       I    between atoms: C4_7  and  O4_17 
REMARK       I    between atoms: O3_8  and  C3_19 
REMARK       I    between atoms: O3_10  and  C3_18 
REMARK       I    between atoms: O3_10  and  C1_30 
REMARK       I    between atoms: N_11  and  C2_26 
REMARK       I    between atoms: N_11  and  C7_21 
REMARK       I    between atoms: C8_13  and  C7_21 
REMARK       I    between atoms: O4_17  and  S_25 
REMARK       I    between atoms: O1_27  and  C1_29 
ROOT
ATOM      1  O5  GC4 d 516      25.629  20.930  -2.567  0.00  0.00    -0.311 OA
ATOM      2  O6A GC4 d 516      25.547  17.299  -1.767  0.00  0.00    -0.642 OA
ATOM      3  C2  GC4 d 516      25.919  22.364  -0.642  0.00  0.00     0.111 C 
ATOM      4  C5  GC4 d 516      25.643  19.693  -1.825  0.00  0.00     0.147 C 
ATOM      5  O3  GC4 d 516      24.398  21.250   0.885  0.00  0.00    -0.389 OA
ATOM      6  O6B GC4 d 516      25.313  18.285  -3.714  0.00  0.00    -0.642 OA
ATOM      7  O2  GC4 d 516      27.300  22.502  -0.949  0.00  0.00    -0.388 OA
ATOM      8  C3  GC4 d 516      25.730  21.212   0.372  0.00  0.00     0.084 C 
ATOM      9  C4  GC4 d 516      25.707  19.811  -0.299  0.00  0.00    -0.034 C 
ATOM     10  C6  GC4 d 516      25.518  18.326  -2.483  0.00  0.00     0.233 C 
ATOM     11  C1  GC4 d 516      25.111  22.093  -1.923  0.00  0.00     0.165 C 
ATOM     12  H   GC4 d 516      25.560  23.274  -0.209  0.00  0.00     0.095 H 
ATOM     13  H   GC4 d 516      24.253  22.091   1.347  0.00  0.00     0.210 HD
ATOM     14  H   GC4 d 516      27.627  21.679  -1.343  0.00  0.00     0.210 HD
ATOM     15  H   GC4 d 516      26.527  21.337   1.075  0.00  0.00     0.093 H 
ATOM     16  H   GC4 d 516      25.734  18.960   0.283  0.00  0.00     0.085 H 
ATOM     17  H   GC4 d 516      25.253  22.975  -2.513  0.00  0.00     0.134 H 
ATOM     18  C6  ASG d 514      20.158  19.851  -4.566  0.00  0.00     0.043 C 
ATOM     19  O6  ASG d 514      20.805  18.633  -4.903  0.00  0.00    -0.398 OA
ATOM     20  C4  ASG d 514      22.056  20.865  -3.199  0.00  0.00     0.114 C 
ATOM     21  O7  ASG d 514      22.686  25.074  -0.938  0.00  0.00    -0.274 OA
ATOM     22  O3  ASG d 514      23.681  22.044  -1.825  0.00  0.00    -0.348 OA
ATOM     23  N   ASG d 514      22.982  24.563  -3.136  0.00  0.00    -0.349 N 
ATOM     24  OSC ASG d 514      22.201  18.593  -1.455  0.00  0.00    -0.572 OA
ATOM     25  C8  ASG d 514      24.125  26.471  -2.165  0.00  0.00    -0.003 C 
ATOM     26  O5  ASG d 514      20.375  22.205  -4.337  0.00  0.00    -0.349 OA
ATOM     27  O4  ASG d 514      21.266  20.708  -2.018  0.00  0.00    -0.246 OA
ATOM     28  C3  ASG d 514      22.948  22.111  -3.060  0.00  0.00     0.094 C 
ATOM     29  C7  ASG d 514      23.203  25.309  -2.048  0.00  0.00     0.214 C 
ATOM     30  OSA ASG d 514      21.875  20.175   0.188  0.00  0.00    -0.572 OA
ATOM     31  OSB ASG d 514      20.009  19.115  -0.879  0.00  0.00    -0.572 OA
ATOM     32  S   ASG d 514      21.325  19.644  -1.024  0.00  0.00     0.252 S 
ATOM     33  C2  ASG d 514      22.113  23.393  -3.094  0.00  0.00     0.087 C 
ATOM     34  O1  ASG d 514      20.392  24.491  -4.321  0.00  0.00    -0.369 OA
ATOM     35  C5  ASG d 514      21.149  20.991  -4.433  0.00  0.00     0.090 C 
ATOM     36  C1  ASG d 514      21.210  23.374  -4.330  0.00  0.00     0.151 C 
ATOM     37  H   ASG d 514      19.452  20.094  -5.333  0.00  0.00     0.078 H 
ATOM     38  H   ASG d 514      19.669  19.722  -3.624  0.00  0.00     0.078 H 
ATOM     39  H   ASG d 514      21.255  18.731  -5.757  0.00  0.00     0.209 HD
ATOM     40  H   ASG d 514      22.677  20.003  -3.324  0.00  0.00     0.093 H 
ATOM     41  H   ASG d 514      23.415  24.809  -3.985  0.00  0.00     0.163 HD
ATOM     42  H   ASG d 514      24.199  26.964  -1.219  0.00  0.00     0.040 H 
ATOM     43  H   ASG d 514      23.745  27.155  -2.895  0.00  0.00     0.040 H 
ATOM     44  H   ASG d 514      25.093  26.129  -2.466  0.00  0.00     0.040 H 
ATOM     45  H   ASG d 514      23.630  22.132  -3.884  0.00  0.00     0.091 H 
ATOM     46  H   ASG d 514      21.513  23.445  -2.210  0.00  0.00     0.084 H 
ATOM     47  H   ASG d 514      19.820  24.479  -5.104  0.00  0.00     0.212 HD
ATOM     48  H   ASG d 514      21.801  20.981  -5.281  0.00  0.00     0.090 H 
ATOM     49  H   ASG d 514      21.836  23.367  -5.198  0.00  0.00     0.132 H 
ENDROOT
TORSDOF 12
ENDMDL
MODEL 50
REMARK VINA RESULT:      -5.4      2.930      6.085
REMARK  0 active torsions:
REMARK  status: ('A' for Active; 'I' for Inactive)
REMARK       I    between atoms: C6_2  and  C5_28 
REMARK       I    between atoms: C6_2  and  O6_5 
REMARK       I    between atoms: C2_4  and  O2_16 
REMARK       I    between atoms: C5_6  and  C6_24 
REMARK       I    between atoms: C4_7  and  O4_17 
REMARK       I    between atoms: O3_8  and  C3_19 
REMARK       I    between atoms: O3_10  and  C3_18 
REMARK       I    between atoms: O3_10  and  C1_30 
REMARK       I    between atoms: N_11  and  C2_26 
REMARK       I    between atoms: N_11  and  C7_21 
REMARK       I    between atoms: C8_13  and  C7_21 
REMARK       I    between atoms: O4_17  and  S_25 
REMARK       I    between atoms: O1_27  and  C1_29 
ROOT
ATOM      1  O5  GC4 d 516      23.657  19.992  -3.371  0.00  0.00    -0.311 OA
ATOM      2  O6A GC4 d 516      21.152  21.229  -5.825  0.00  0.00    -0.642 OA
ATOM      3  C2  GC4 d 516      22.728  19.391  -1.222  0.00  0.00     0.111 C 
ATOM      4  C5  GC4 d 516      22.404  20.401  -3.957  0.00  0.00     0.147 C 
ATOM      5  O3  GC4 d 516      21.216  21.266  -0.930  0.00  0.00    -0.389 OA
ATOM      6  O6B GC4 d 516      23.325  21.036  -6.057  0.00  0.00    -0.642 OA
ATOM      7  O2  GC4 d 516      22.755  18.018  -1.590  0.00  0.00    -0.388 OA
ATOM      8  C3  GC4 d 516      21.335  19.982  -1.544  0.00  0.00     0.084 C 
ATOM      9  C4  GC4 d 516      21.182  20.394  -3.033  0.00  0.00    -0.034 C 
ATOM     10  C6  GC4 d 516      22.279  20.901  -5.390  0.00  0.00     0.233 C 
ATOM     11  C1  GC4 d 516      23.829  20.166  -1.965  0.00  0.00     0.165 C 
ATOM     12  H   GC4 d 516      22.910  19.478  -0.171  0.00  0.00     0.095 H 
ATOM     13  H   GC4 d 516      21.293  21.173   0.032  0.00  0.00     0.210 HD
ATOM     14  H   GC4 d 516      22.590  17.936  -2.543  0.00  0.00     0.210 HD
ATOM     15  H   GC4 d 516      20.643  19.227  -1.235  0.00  0.00     0.093 H 
ATOM     16  H   GC4 d 516      20.256  20.663  -3.401  0.00  0.00     0.085 H 
ATOM     17  H   GC4 d 516      24.739  19.727  -1.615  0.00  0.00     0.134 H 
ATOM     18  C6  ASG d 514      25.950  25.404  -4.111  0.00  0.00     0.043 C 
ATOM     19  O6  ASG d 514      25.466  25.143  -5.421  0.00  0.00    -0.398 OA
ATOM     20  C4  ASG d 514      24.921  23.371  -2.969  0.00  0.00     0.114 C 
ATOM     21  O7  ASG d 514      25.058  21.615   1.517  0.00  0.00    -0.274 OA
ATOM     22  O3  ASG d 514      24.031  21.546  -1.629  0.00  0.00    -0.348 OA
ATOM     23  N   ASG d 514      26.561  21.362  -0.174  0.00  0.00    -0.349 N 
ATOM     24  OSC ASG d 514      22.277  24.030  -3.863  0.00  0.00    -0.572 OA
ATOM     25  C8  ASG d 514      26.483  19.748   1.637  0.00  0.00    -0.003 C 
ATOM     26  O5  ASG d 514      26.917  24.491  -2.144  0.00  0.00    -0.349 OA
ATOM     27  O4  ASG d 514      24.030  24.238  -2.265  0.00  0.00    -0.246 OA
ATOM     28  C3  ASG d 514      25.250  22.149  -2.092  0.00  0.00     0.094 C 
ATOM     29  C7  ASG d 514      25.990  20.987   0.976  0.00  0.00     0.214 C 
ATOM     30  OSA ASG d 514      21.791  23.952  -1.612  0.00  0.00    -0.572 OA
ATOM     31  OSB ASG d 514      22.539  25.987  -2.633  0.00  0.00    -0.572 OA
ATOM     32  S   ASG d 514      22.646  24.566  -2.583  0.00  0.00     0.252 S 
ATOM     33  C2  ASG d 514      26.115  22.549  -0.895  0.00  0.00     0.087 C 
ATOM     34  O1  ASG d 514      28.070  23.775  -0.304  0.00  0.00    -0.369 OA
ATOM     35  C5  ASG d 514      26.207  24.121  -3.346  0.00  0.00     0.090 C 
ATOM     36  C1  ASG d 514      27.328  23.340  -1.390  0.00  0.00     0.151 C 
ATOM     37  H   ASG d 514      26.863  25.956  -4.182  0.00  0.00     0.078 H 
ATOM     38  H   ASG d 514      25.205  25.964  -3.585  0.00  0.00     0.078 H 
ATOM     39  H   ASG d 514      26.129  24.635  -5.915  0.00  0.00     0.209 HD
ATOM     40  H   ASG d 514      24.450  23.037  -3.870  0.00  0.00     0.093 H 
ATOM     41  H   ASG d 514      27.299  20.825  -0.543  0.00  0.00     0.163 HD
ATOM     42  H   ASG d 514      25.932  19.582   2.539  0.00  0.00     0.040 H 
ATOM     43  H   ASG d 514      27.522  19.857   1.868  0.00  0.00     0.040 H 
ATOM     44  H   ASG d 514      26.349  18.915   0.979  0.00  0.00     0.040 H 
ATOM     45  H   ASG d 514      25.799  21.447  -2.684  0.00  0.00     0.091 H 
ATOM     46  H   ASG d 514      25.536  23.155  -0.230  0.00  0.00     0.084 H 
ATOM     47  H   ASG d 514      28.838  24.277  -0.617  0.00  0.00     0.212 HD
ATOM     48  H   ASG d 514      26.767  23.455  -3.969  0.00  0.00     0.090 H 
ATOM     49  H   ASG d 514      27.912  22.697  -2.016  0.00  0.00     0.132 H 
ENDROOT
TORSDOF 12
ENDMDL
MODEL 51
REMARK VINA RESULT:      -5.3      2.910      6.203
REMARK  0 active torsions:
REMARK  status: ('A' for Active; 'I' for Inactive)
REMARK       I    between atoms: C6_2  and  C5_28 
REMARK       I    between atoms: C6_2  and  O6_5 
REMARK       I    between atoms: C2_4  and  O2_16 
REMARK       I    between atoms: C5_6  and  C6_24 
REMARK       I    between atoms: C4_7  and  O4_17 
REMARK       I    between atoms: O3_8  and  C3_19 
REMARK       I    between atoms: O3_10  and  C3_18 
REMARK       I    between atoms: O3_10  and  C1_30 
REMARK       I    between atoms: N_11  and  C2_26 
REMARK       I    between atoms: N_11  and  C7_21 
REMARK       I    between atoms: C8_13  and  C7_21 
REMARK       I    between atoms: O4_17  and  S_25 
REMARK       I    between atoms: O1_27  and  C1_29 
ROOT
ATOM      1  O5  GC4 d 516      23.209  21.238  -2.311  0.00  0.00    -0.311 OA
ATOM      2  O6A GC4 d 516      22.137  18.430  -0.120  0.00  0.00    -0.642 OA
ATOM      3  C2  GC4 d 516      23.959  20.553  -4.505  0.00  0.00     0.111 C 
ATOM      4  C5  GC4 d 516      22.923  19.905  -1.838  0.00  0.00     0.147 C 
ATOM      5  O3  GC4 d 516      25.287  18.627  -3.862  0.00  0.00    -0.389 OA
ATOM      6  O6B GC4 d 516      22.228  20.575   0.337  0.00  0.00    -0.642 OA
ATOM      7  O2  GC4 d 516      22.697  20.914  -5.052  0.00  0.00    -0.388 OA
ATOM      8  C3  GC4 d 516      23.952  19.048  -4.150  0.00  0.00     0.084 C 
ATOM      9  C4  GC4 d 516      23.288  18.752  -2.777  0.00  0.00    -0.034 C 
ATOM     10  C6  GC4 d 516      22.366  19.617  -0.451  0.00  0.00     0.233 C 
ATOM     11  C1  GC4 d 516      24.264  21.401  -3.258  0.00  0.00     0.165 C 
ATOM     12  H   GC4 d 516      24.724  20.738  -5.229  0.00  0.00     0.095 H 
ATOM     13  H   GC4 d 516      25.842  18.753  -4.648  0.00  0.00     0.210 HD
ATOM     14  H   GC4 d 516      22.001  20.748  -4.398  0.00  0.00     0.210 HD
ATOM     15  H   GC4 d 516      23.459  18.577  -4.974  0.00  0.00     0.093 H 
ATOM     16  H   GC4 d 516      23.093  17.778  -2.498  0.00  0.00     0.085 H 
ATOM     17  H   GC4 d 516      24.316  22.403  -3.631  0.00  0.00     0.134 H 
ATOM     18  C6  ASG d 514      27.211  22.070   1.976  0.00  0.00     0.043 C 
ATOM     19  O6  ASG d 514      26.097  21.630   2.740  0.00  0.00    -0.398 OA
ATOM     20  C4  ASG d 514      26.227  21.621  -0.332  0.00  0.00     0.114 C 
ATOM     21  O7  ASG d 514      27.782  22.327  -4.838  0.00  0.00    -0.274 OA
ATOM     22  O3  ASG d 514      25.550  21.258  -2.640  0.00  0.00    -0.348 OA
ATOM     23  N   ASG d 514      26.783  23.795  -3.414  0.00  0.00    -0.349 N 
ATOM     24  OSC ASG d 514      25.688  18.871   0.278  0.00  0.00    -0.572 OA
ATOM     25  C8  ASG d 514      26.707  24.179  -5.809  0.00  0.00    -0.003 C 
ATOM     26  O5  ASG d 514      27.945  23.293   0.078  0.00  0.00    -0.349 OA
ATOM     27  O4  ASG d 514      27.169  20.561  -0.509  0.00  0.00    -0.246 OA
ATOM     28  C3  ASG d 514      25.924  22.273  -1.693  0.00  0.00     0.094 C 
ATOM     29  C7  ASG d 514      27.131  23.371  -4.634  0.00  0.00     0.214 C 
ATOM     30  OSA ASG d 514      26.974  18.486  -1.595  0.00  0.00    -0.572 OA
ATOM     31  OSB ASG d 514      27.986  18.667   0.569  0.00  0.00    -0.572 OA
ATOM     32  S   ASG d 514      26.969  19.130  -0.316  0.00  0.00     0.252 S 
ATOM     33  C2  ASG d 514      27.138  23.044  -2.216  0.00  0.00     0.087 C 
ATOM     34  O1  ASG d 514      28.781  24.642  -1.568  0.00  0.00    -0.369 OA
ATOM     35  C5  ASG d 514      26.779  22.665   0.651  0.00  0.00     0.090 C 
ATOM     36  C1  ASG d 514      27.632  24.003  -1.130  0.00  0.00     0.151 C 
ATOM     37  H   ASG d 514      27.743  22.813   2.533  0.00  0.00     0.078 H 
ATOM     38  H   ASG d 514      27.835  21.224   1.776  0.00  0.00     0.078 H 
ATOM     39  H   ASG d 514      25.519  22.385   2.932  0.00  0.00     0.209 HD
ATOM     40  H   ASG d 514      25.321  21.223   0.074  0.00  0.00     0.093 H 
ATOM     41  H   ASG d 514      26.275  24.633  -3.322  0.00  0.00     0.163 HD
ATOM     42  H   ASG d 514      27.058  23.715  -6.707  0.00  0.00     0.040 H 
ATOM     43  H   ASG d 514      27.119  25.164  -5.732  0.00  0.00     0.040 H 
ATOM     44  H   ASG d 514      25.639  24.240  -5.833  0.00  0.00     0.040 H 
ATOM     45  H   ASG d 514      25.117  22.963  -1.564  0.00  0.00     0.091 H 
ATOM     46  H   ASG d 514      27.914  22.350  -2.465  0.00  0.00     0.084 H 
ATOM     47  H   ASG d 514      29.095  25.250  -0.881  0.00  0.00     0.212 HD
ATOM     48  H   ASG d 514      25.981  23.356   0.827  0.00  0.00     0.090 H 
ATOM     49  H   ASG d 514      26.855  24.711  -0.933  0.00  0.00     0.132 H 
ENDROOT
TORSDOF 12
ENDMDL
MODEL 52
REMARK VINA RESULT:      -5.3      2.921      5.242
REMARK  0 active torsions:
REMARK  status: ('A' for Active; 'I' for Inactive)
REMARK       I    between atoms: C6_2  and  C5_28 
REMARK       I    between atoms: C6_2  and  O6_5 
REMARK       I    between atoms: C2_4  and  O2_16 
REMARK       I    between atoms: C5_6  and  C6_24 
REMARK       I    between atoms: C4_7  and  O4_17 
REMARK       I    between atoms: O3_8  and  C3_19 
REMARK       I    between atoms: O3_10  and  C3_18 
REMARK       I    between atoms: O3_10  and  C1_30 
REMARK       I    between atoms: N_11  and  C2_26 
REMARK       I    between atoms: N_11  and  C7_21 
REMARK       I    between atoms: C8_13  and  C7_21 
REMARK       I    between atoms: O4_17  and  S_25 
REMARK       I    between atoms: O1_27  and  C1_29 
ROOT
ATOM      1  O5  GC4 d 516      27.450  23.019  -1.500  0.00  0.00    -0.311 OA
ATOM      2  O6A GC4 d 516      25.192  25.613  -0.085  0.00  0.00    -0.642 OA
ATOM      3  C2  GC4 d 516      27.861  23.247  -3.872  0.00  0.00     0.111 C 
ATOM      4  C5  GC4 d 516      26.571  24.158  -1.399  0.00  0.00     0.147 C 
ATOM      5  O3  GC4 d 516      25.600  23.753  -4.595  0.00  0.00    -0.389 OA
ATOM      6  O6B GC4 d 516      26.131  23.906   0.926  0.00  0.00    -0.642 OA
ATOM      7  O2  GC4 d 516      29.115  23.858  -3.599  0.00  0.00    -0.388 OA
ATOM      8  C3  GC4 d 516      26.785  24.343  -4.056  0.00  0.00     0.084 C 
ATOM      9  C4  GC4 d 516      26.219  24.869  -2.709  0.00  0.00    -0.034 C 
ATOM     10  C6  GC4 d 516      25.939  24.607  -0.089  0.00  0.00     0.233 C 
ATOM     11  C1  GC4 d 516      27.470  22.294  -2.729  0.00  0.00     0.165 C 
ATOM     12  H   GC4 d 516      27.935  22.675  -4.772  0.00  0.00     0.095 H 
ATOM     13  H   GC4 d 516      25.798  23.368  -5.464  0.00  0.00     0.210 HD
ATOM     14  H   GC4 d 516      29.051  24.378  -2.783  0.00  0.00     0.210 HD
ATOM     15  H   GC4 d 516      27.264  25.097  -4.644  0.00  0.00     0.093 H 
ATOM     16  H   GC4 d 516      25.606  25.699  -2.697  0.00  0.00     0.085 H 
ATOM     17  H   GC4 d 516      28.236  21.546  -2.741  0.00  0.00     0.134 H 
ATOM     18  C6  ASG d 514      23.177  19.357   0.350  0.00  0.00     0.043 C 
ATOM     19  O6  ASG d 514      23.135  20.345   1.369  0.00  0.00    -0.398 OA
ATOM     20  C4  ASG d 514      24.797  20.559  -1.208  0.00  0.00     0.114 C 
ATOM     21  O7  ASG d 514      26.863  19.439  -5.415  0.00  0.00    -0.274 OA
ATOM     22  O3  ASG d 514      26.289  21.496  -2.886  0.00  0.00    -0.348 OA
ATOM     23  N   ASG d 514      27.492  18.863  -3.305  0.00  0.00    -0.349 N 
ATOM     24  OSC ASG d 514      23.160  22.912  -1.324  0.00  0.00    -0.572 OA
ATOM     25  C8  ASG d 514      29.119  18.854  -5.105  0.00  0.00    -0.003 C 
ATOM     26  O5  ASG d 514      24.541  18.141  -1.166  0.00  0.00    -0.349 OA
ATOM     27  O4  ASG d 514      23.732  20.750  -2.142  0.00  0.00    -0.246 OA
ATOM     28  C3  ASG d 514      26.126  20.401  -1.969  0.00  0.00     0.094 C 
ATOM     29  C7  ASG d 514      27.735  19.068  -4.605  0.00  0.00     0.214 C 
ATOM     30  OSA ASG d 514      23.252  22.532  -3.595  0.00  0.00    -0.572 OA
ATOM     31  OSB ASG d 514      21.540  21.525  -2.254  0.00  0.00    -0.572 OA
ATOM     32  S   ASG d 514      22.904  21.933  -2.342  0.00  0.00     0.252 S 
ATOM     33  C2  ASG d 514      26.167  19.077  -2.734  0.00  0.00     0.087 C 
ATOM     34  O1  ASG d 514      25.777  16.740  -2.485  0.00  0.00    -0.369 OA
ATOM     35  C5  ASG d 514      24.528  19.323  -0.338  0.00  0.00     0.090 C 
ATOM     36  C1  ASG d 514      25.824  17.931  -1.779  0.00  0.00     0.151 C 
ATOM     37  H   ASG d 514      22.985  18.399   0.786  0.00  0.00     0.078 H 
ATOM     38  H   ASG d 514      22.435  19.598  -0.382  0.00  0.00     0.078 H 
ATOM     39  H   ASG d 514      23.802  20.143   2.043  0.00  0.00     0.209 HD
ATOM     40  H   ASG d 514      24.861  21.414  -0.568  0.00  0.00     0.093 H 
ATOM     41  H   ASG d 514      28.224  18.561  -2.720  0.00  0.00     0.163 HD
ATOM     42  H   ASG d 514      29.154  19.056  -6.155  0.00  0.00     0.040 H 
ATOM     43  H   ASG d 514      29.410  17.840  -4.927  0.00  0.00     0.040 H 
ATOM     44  H   ASG d 514      29.789  19.513  -4.593  0.00  0.00     0.040 H 
ATOM     45  H   ASG d 514      26.925  20.403  -1.257  0.00  0.00     0.091 H 
ATOM     46  H   ASG d 514      25.453  19.109  -3.531  0.00  0.00     0.084 H 
ATOM     47  H   ASG d 514      25.559  16.014  -1.880  0.00  0.00     0.212 HD
ATOM     48  H   ASG d 514      25.294  19.314   0.409  0.00  0.00     0.090 H 
ATOM     49  H   ASG d 514      26.577  17.895  -1.019  0.00  0.00     0.132 H 
ENDROOT
TORSDOF 12
ENDMDL
MODEL 53
REMARK VINA RESULT:      -5.3      2.778      5.804
REMARK  0 active torsions:
REMARK  status: ('A' for Active; 'I' for Inactive)
REMARK       I    between atoms: C6_2  and  C5_28 
REMARK       I    between atoms: C6_2  and  O6_5 
REMARK       I    between atoms: C2_4  and  O2_16 
REMARK       I    between atoms: C5_6  and  C6_24 
REMARK       I    between atoms: C4_7  and  O4_17 
REMARK       I    between atoms: O3_8  and  C3_19 
REMARK       I    between atoms: O3_10  and  C3_18 
REMARK       I    between atoms: O3_10  and  C1_30 
REMARK       I    between atoms: N_11  and  C2_26 
REMARK       I    between atoms: N_11  and  C7_21 
REMARK       I    between atoms: C8_13  and  C7_21 
REMARK       I    between atoms: O4_17  and  S_25 
REMARK       I    between atoms: O1_27  and  C1_29 
ROOT
ATOM      1  O5  GC4 d 516      27.507  22.539  -1.232  0.00  0.00    -0.311 OA
ATOM      2  O6A GC4 d 516      26.082  24.735   1.409  0.00  0.00    -0.642 OA
ATOM      3  C2  GC4 d 516      28.513  23.732  -3.079  0.00  0.00     0.111 C 
ATOM      4  C5  GC4 d 516      27.103  23.718  -0.505  0.00  0.00     0.147 C 
ATOM      5  O3  GC4 d 516      26.826  25.451  -3.376  0.00  0.00    -0.389 OA
ATOM      6  O6B GC4 d 516      26.073  22.543   1.290  0.00  0.00    -0.642 OA
ATOM      7  O2  GC4 d 516      29.803  23.510  -2.524  0.00  0.00    -0.388 OA
ATOM      8  C3  GC4 d 516      27.983  25.108  -2.611  0.00  0.00     0.084 C 
ATOM      9  C4  GC4 d 516      27.349  25.064  -1.194  0.00  0.00    -0.034 C 
ATOM     10  C6  GC4 d 516      26.391  23.663   0.839  0.00  0.00     0.233 C 
ATOM     11  C1  GC4 d 516      27.548  22.610  -2.656  0.00  0.00     0.165 C 
ATOM     12  H   GC4 d 516      28.582  23.728  -4.146  0.00  0.00     0.095 H 
ATOM     13  H   GC4 d 516      27.066  25.517  -4.314  0.00  0.00     0.210 HD
ATOM     14  H   GC4 d 516      29.743  23.513  -1.556  0.00  0.00     0.210 HD
ATOM     15  H   GC4 d 516      28.826  25.762  -2.684  0.00  0.00     0.093 H 
ATOM     16  H   GC4 d 516      27.094  25.942  -0.716  0.00  0.00     0.085 H 
ATOM     17  H   GC4 d 516      27.970  21.727  -3.090  0.00  0.00     0.134 H 
ATOM     18  C6  ASG d 514      21.892  20.710  -1.694  0.00  0.00     0.043 C 
ATOM     19  O6  ASG d 514      21.975  20.951  -0.297  0.00  0.00    -0.398 OA
ATOM     20  C4  ASG d 514      24.153  21.698  -2.334  0.00  0.00     0.114 C 
ATOM     21  O7  ASG d 514      26.590  22.099  -6.471  0.00  0.00    -0.274 OA
ATOM     22  O3  ASG d 514      26.230  22.603  -3.220  0.00  0.00    -0.348 OA
ATOM     23  N   ASG d 514      26.457  20.329  -5.046  0.00  0.00    -0.349 N 
ATOM     24  OSC ASG d 514      23.556  24.220  -1.105  0.00  0.00    -0.572 OA
ATOM     25  C8  ASG d 514      28.342  20.531  -6.561  0.00  0.00    -0.003 C 
ATOM     26  O5  ASG d 514      23.035  19.980  -3.643  0.00  0.00    -0.349 OA
ATOM     27  O4  ASG d 514      23.478  22.772  -2.993  0.00  0.00    -0.246 OA
ATOM     28  C3  ASG d 514      25.471  21.392  -3.066  0.00  0.00     0.094 C 
ATOM     29  C7  ASG d 514      27.053  21.035  -6.013  0.00  0.00     0.214 C 
ATOM     30  OSA ASG d 514      24.031  25.045  -3.203  0.00  0.00    -0.572 OA
ATOM     31  OSB ASG d 514      21.808  24.352  -2.633  0.00  0.00    -0.572 OA
ATOM     32  S   ASG d 514      23.207  24.114  -2.493  0.00  0.00     0.252 S 
ATOM     33  C2  ASG d 514      25.206  20.771  -4.440  0.00  0.00     0.087 C 
ATOM     34  O1  ASG d 514      23.949  19.067  -5.530  0.00  0.00    -0.369 OA
ATOM     35  C5  ASG d 514      23.258  20.450  -2.297  0.00  0.00     0.090 C 
ATOM     36  C1  ASG d 514      24.258  19.580  -4.281  0.00  0.00     0.151 C 
ATOM     37  H   ASG d 514      21.269  19.856  -1.863  0.00  0.00     0.078 H 
ATOM     38  H   ASG d 514      21.480  21.580  -2.161  0.00  0.00     0.078 H 
ATOM     39  H   ASG d 514      22.346  20.171   0.144  0.00  0.00     0.209 HD
ATOM     40  H   ASG d 514      24.371  21.984  -1.327  0.00  0.00     0.093 H 
ATOM     41  H   ASG d 514      26.871  19.492  -4.735  0.00  0.00     0.163 HD
ATOM     42  H   ASG d 514      28.691  21.199  -7.321  0.00  0.00     0.040 H 
ATOM     43  H   ASG d 514      28.194  19.558  -6.981  0.00  0.00     0.040 H 
ATOM     44  H   ASG d 514      29.066  20.476  -5.775  0.00  0.00     0.040 H 
ATOM     45  H   ASG d 514      26.027  20.688  -2.482  0.00  0.00     0.091 H 
ATOM     46  H   ASG d 514      24.759  21.506  -5.077  0.00  0.00     0.084 H 
ATOM     47  H   ASG d 514      23.348  18.313  -5.430  0.00  0.00     0.212 HD
ATOM     48  H   ASG d 514      23.772  19.735  -1.689  0.00  0.00     0.090 H 
ATOM     49  H   ASG d 514      24.747  18.844  -3.678  0.00  0.00     0.132 H 
ENDROOT
TORSDOF 12
ENDMDL
MODEL 54
REMARK VINA RESULT:      -5.2      2.978      5.880
REMARK  0 active torsions:
REMARK  status: ('A' for Active; 'I' for Inactive)
REMARK       I    between atoms: C6_2  and  C5_28 
REMARK       I    between atoms: C6_2  and  O6_5 
REMARK       I    between atoms: C2_4  and  O2_16 
REMARK       I    between atoms: C5_6  and  C6_24 
REMARK       I    between atoms: C4_7  and  O4_17 
REMARK       I    between atoms: O3_8  and  C3_19 
REMARK       I    between atoms: O3_10  and  C3_18 
REMARK       I    between atoms: O3_10  and  C1_30 
REMARK       I    between atoms: N_11  and  C2_26 
REMARK       I    between atoms: N_11  and  C7_21 
REMARK       I    between atoms: C8_13  and  C7_21 
REMARK       I    between atoms: O4_17  and  S_25 
REMARK       I    between atoms: O1_27  and  C1_29 
ROOT
ATOM      1  O5  GC4 d 516      28.271  23.673  -1.260  0.00  0.00    -0.311 OA
ATOM      2  O6A GC4 d 516      26.739  26.530   0.562  0.00  0.00    -0.642 OA
ATOM      3  C2  GC4 d 516      29.948  24.314  -2.881  0.00  0.00     0.111 C 
ATOM      4  C5  GC4 d 516      27.964  25.017  -0.836  0.00  0.00     0.147 C 
ATOM      5  O3  GC4 d 516      28.808  26.218  -3.864  0.00  0.00    -0.389 OA
ATOM      6  O6B GC4 d 516      26.282  24.389   0.726  0.00  0.00    -0.642 OA
ATOM      7  O2  GC4 d 516      30.974  23.974  -1.958  0.00  0.00    -0.388 OA
ATOM      8  C3  GC4 d 516      29.630  25.823  -2.764  0.00  0.00     0.084 C 
ATOM      9  C4  GC4 d 516      28.665  26.151  -1.592  0.00  0.00    -0.034 C 
ATOM     10  C6  GC4 d 516      26.941  25.335   0.245  0.00  0.00     0.233 C 
ATOM     11  C1  GC4 d 516      28.687  23.475  -2.611  0.00  0.00     0.165 C 
ATOM     12  H   GC4 d 516      30.282  24.103  -3.874  0.00  0.00     0.095 H 
ATOM     13  H   GC4 d 516      29.287  26.069  -4.694  0.00  0.00     0.210 HD
ATOM     14  H   GC4 d 516      30.673  24.165  -1.056  0.00  0.00     0.210 HD
ATOM     15  H   GC4 d 516      30.586  26.295  -2.676  0.00  0.00     0.093 H 
ATOM     16  H   GC4 d 516      28.495  27.132  -1.322  0.00  0.00     0.085 H 
ATOM     17  H   GC4 d 516      29.001  22.467  -2.790  0.00  0.00     0.134 H 
ATOM     18  C6  ASG d 514      22.697  22.803  -3.066  0.00  0.00     0.043 C 
ATOM     19  O6  ASG d 514      22.474  23.277  -1.746  0.00  0.00    -0.398 OA
ATOM     20  C4  ASG d 514      25.205  23.246  -3.156  0.00  0.00     0.114 C 
ATOM     21  O7  ASG d 514      28.638  22.451  -6.443  0.00  0.00    -0.274 OA
ATOM     22  O3  ASG d 514      27.585  23.596  -3.521  0.00  0.00    -0.348 OA
ATOM     23  N   ASG d 514      27.764  21.023  -4.901  0.00  0.00    -0.349 N 
ATOM     24  OSC ASG d 514      24.883  26.015  -2.480  0.00  0.00    -0.572 OA
ATOM     25  C8  ASG d 514      29.969  20.612  -5.829  0.00  0.00    -0.003 C 
ATOM     26  O5  ASG d 514      24.108  21.541  -4.499  0.00  0.00    -0.349 OA
ATOM     27  O4  ASG d 514      24.971  24.283  -4.111  0.00  0.00    -0.246 OA
ATOM     28  C3  ASG d 514      26.567  22.585  -3.437  0.00  0.00     0.094 C 
ATOM     29  C7  ASG d 514      28.726  21.424  -5.740  0.00  0.00     0.214 C 
ATOM     30  OSA ASG d 514      26.042  26.347  -4.444  0.00  0.00    -0.572 OA
ATOM     31  OSB ASG d 514      23.652  26.170  -4.447  0.00  0.00    -0.572 OA
ATOM     32  S   ASG d 514      24.882  25.720  -3.885  0.00  0.00     0.252 S 
ATOM     33  C2  ASG d 514      26.529  21.780  -4.738  0.00  0.00     0.087 C 
ATOM     34  O1  ASG d 514      25.248  20.153  -5.914  0.00  0.00    -0.369 OA
ATOM     35  C5  ASG d 514      24.080  22.202  -3.216  0.00  0.00     0.090 C 
ATOM     36  C1  ASG d 514      25.335  20.823  -4.705  0.00  0.00     0.151 C 
ATOM     37  H   ASG d 514      21.967  22.055  -3.295  0.00  0.00     0.078 H 
ATOM     38  H   ASG d 514      22.617  23.632  -3.737  0.00  0.00     0.078 H 
ATOM     39  H   ASG d 514      22.542  22.538  -1.121  0.00  0.00     0.209 HD
ATOM     40  H   ASG d 514      25.219  23.669  -2.173  0.00  0.00     0.093 H 
ATOM     41  H   ASG d 514      27.893  20.197  -4.380  0.00  0.00     0.163 HD
ATOM     42  H   ASG d 514      30.636  21.057  -6.537  0.00  0.00     0.040 H 
ATOM     43  H   ASG d 514      29.724  19.619  -6.145  0.00  0.00     0.040 H 
ATOM     44  H   ASG d 514      30.440  20.574  -4.869  0.00  0.00     0.040 H 
ATOM     45  H   ASG d 514      26.789  21.914  -2.633  0.00  0.00     0.091 H 
ATOM     46  H   ASG d 514      26.430  22.453  -5.564  0.00  0.00     0.084 H 
ATOM     47  H   ASG d 514      24.491  19.547  -5.894  0.00  0.00     0.212 HD
ATOM     48  H   ASG d 514      24.255  21.531  -2.401  0.00  0.00     0.090 H 
ATOM     49  H   ASG d 514      25.482  20.135  -3.899  0.00  0.00     0.132 H 
ENDROOT
TORSDOF 12
ENDMDL
MODEL 55
REMARK VINA RESULT:      -5.2      3.106      6.485
REMARK  0 active torsions:
REMARK  status: ('A' for Active; 'I' for Inactive)
REMARK       I    between atoms: C6_2  and  C5_28 
REMARK       I    between atoms: C6_2  and  O6_5 
REMARK       I    between atoms: C2_4  and  O2_16 
REMARK       I    between atoms: C5_6  and  C6_24 
REMARK       I    between atoms: C4_7  and  O4_17 
REMARK       I    between atoms: O3_8  and  C3_19 
REMARK       I    between atoms: O3_10  and  C3_18 
REMARK       I    between atoms: O3_10  and  C1_30 
REMARK       I    between atoms: N_11  and  C2_26 
REMARK       I    between atoms: N_11  and  C7_21 
REMARK       I    between atoms: C8_13  and  C7_21 
REMARK       I    between atoms: O4_17  and  S_25 
REMARK       I    between atoms: O1_27  and  C1_29 
ROOT
ATOM      1  O5  GC4 d 516      24.331  23.413  -0.751  0.00  0.00    -0.311 OA
ATOM      2  O6A GC4 d 516      27.033  25.928  -0.296  0.00  0.00    -0.642 OA
ATOM      3  C2  GC4 d 516      25.024  21.130  -0.361  0.00  0.00     0.111 C 
ATOM      4  C5  GC4 d 516      25.622  23.999  -0.489  0.00  0.00     0.147 C 
ATOM      5  O3  GC4 d 516      27.161  21.187  -1.511  0.00  0.00    -0.389 OA
ATOM      6  O6B GC4 d 516      24.951  26.242  -0.917  0.00  0.00    -0.642 OA
ATOM      7  O2  GC4 d 516      24.447  21.173   0.937  0.00  0.00    -0.388 OA
ATOM      8  C3  GC4 d 516      26.525  21.494  -0.269  0.00  0.00     0.084 C 
ATOM      9  C4  GC4 d 516      26.775  23.026  -0.224  0.00  0.00    -0.034 C 
ATOM     10  C6  GC4 d 516      25.883  25.498  -0.546  0.00  0.00     0.233 C 
ATOM     11  C1  GC4 d 516      24.291  22.099  -1.305  0.00  0.00     0.165 C 
ATOM     12  H   GC4 d 516      24.928  20.141  -0.758  0.00  0.00     0.095 H 
ATOM     13  H   GC4 d 516      27.087  20.235  -1.685  0.00  0.00     0.210 HD
ATOM     14  H   GC4 d 516      24.533  22.068   1.299  0.00  0.00     0.210 HD
ATOM     15  H   GC4 d 516      26.876  20.977   0.599  0.00  0.00     0.093 H 
ATOM     16  H   GC4 d 516      27.719  23.388  -0.016  0.00  0.00     0.085 H 
ATOM     17  H   GC4 d 516      23.294  21.713  -1.351  0.00  0.00     0.134 H 
ATOM     18  C6  ASG d 514      24.324  25.522  -6.287  0.00  0.00     0.043 C 
ATOM     19  O6  ASG d 514      24.619  26.704  -5.557  0.00  0.00    -0.398 OA
ATOM     20  C4  ASG d 514      24.510  23.880  -4.346  0.00  0.00     0.114 C 
ATOM     21  O7  ASG d 514      23.853  19.127  -3.896  0.00  0.00    -0.274 OA
ATOM     22  O3  ASG d 514      24.659  22.103  -2.691  0.00  0.00    -0.348 OA
ATOM     23  N   ASG d 514      22.313  20.803  -3.857  0.00  0.00    -0.349 N 
ATOM     24  OSC ASG d 514      27.168  24.738  -3.692  0.00  0.00    -0.572 OA
ATOM     25  C8  ASG d 514      21.814  18.667  -2.818  0.00  0.00    -0.003 C 
ATOM     26  O5  ASG d 514      23.146  23.461  -6.315  0.00  0.00    -0.349 OA
ATOM     27  O4  ASG d 514      25.695  23.342  -4.937  0.00  0.00    -0.246 OA
ATOM     28  C3  ASG d 514      23.759  22.767  -3.594  0.00  0.00     0.094 C 
ATOM     29  C7  ASG d 514      22.731  19.564  -3.572  0.00  0.00     0.214 C 
ATOM     30  OSA ASG d 514      27.663  22.504  -3.965  0.00  0.00    -0.572 OA
ATOM     31  OSB ASG d 514      27.739  24.011  -5.826  0.00  0.00    -0.572 OA
ATOM     32  S   ASG d 514      27.085  23.641  -4.615  0.00  0.00     0.252 S 
ATOM     33  C2  ASG d 514      23.163  21.749  -4.569  0.00  0.00     0.087 C 
ATOM     34  O1  ASG d 514      21.870  21.579  -6.562  0.00  0.00    -0.369 OA
ATOM     35  C5  ASG d 514      23.610  24.498  -5.426  0.00  0.00     0.090 C 
ATOM     36  C1  ASG d 514      22.342  22.488  -5.629  0.00  0.00     0.151 C 
ATOM     37  H   ASG d 514      23.699  25.774  -7.118  0.00  0.00     0.078 H 
ATOM     38  H   ASG d 514      25.247  25.094  -6.619  0.00  0.00     0.078 H 
ATOM     39  H   ASG d 514      23.793  27.107  -5.246  0.00  0.00     0.209 HD
ATOM     40  H   ASG d 514      24.780  24.649  -3.653  0.00  0.00     0.093 H 
ATOM     41  H   ASG d 514      21.411  21.083  -3.580  0.00  0.00     0.163 HD
ATOM     42  H   ASG d 514      22.287  17.719  -2.669  0.00  0.00     0.040 H 
ATOM     43  H   ASG d 514      20.910  18.532  -3.374  0.00  0.00     0.040 H 
ATOM     44  H   ASG d 514      21.587  19.106  -1.869  0.00  0.00     0.040 H 
ATOM     45  H   ASG d 514      22.958  23.213  -3.043  0.00  0.00     0.091 H 
ATOM     46  H   ASG d 514      23.957  21.208  -5.040  0.00  0.00     0.084 H 
ATOM     47  H   ASG d 514      21.350  22.046  -7.234  0.00  0.00     0.212 HD
ATOM     48  H   ASG d 514      22.812  24.984  -4.904  0.00  0.00     0.090 H 
ATOM     49  H   ASG d 514      21.531  22.983  -5.136  0.00  0.00     0.132 H 
ENDROOT
TORSDOF 12
ENDMDL
MODEL 56
REMARK VINA RESULT:      -5.2      3.601      6.471
REMARK  0 active torsions:
REMARK  status: ('A' for Active; 'I' for Inactive)
REMARK       I    between atoms: C6_2  and  C5_28 
REMARK       I    between atoms: C6_2  and  O6_5 
REMARK       I    between atoms: C2_4  and  O2_16 
REMARK       I    between atoms: C5_6  and  C6_24 
REMARK       I    between atoms: C4_7  and  O4_17 
REMARK       I    between atoms: O3_8  and  C3_19 
REMARK       I    between atoms: O3_10  and  C3_18 
REMARK       I    between atoms: O3_10  and  C1_30 
REMARK       I    between atoms: N_11  and  C2_26 
REMARK       I    between atoms: N_11  and  C7_21 
REMARK       I    between atoms: C8_13  and  C7_21 
REMARK       I    between atoms: O4_17  and  S_25 
REMARK       I    between atoms: O1_27  and  C1_29 
ROOT
ATOM      1  O5  GC4 d 516      25.138  22.687  -1.162  0.00  0.00    -0.311 OA
ATOM      2  O6A GC4 d 516      26.418  26.125  -0.551  0.00  0.00    -0.642 OA
ATOM      3  C2  GC4 d 516      26.621  21.294  -2.469  0.00  0.00     0.111 C 
ATOM      4  C5  GC4 d 516      25.984  23.855  -1.186  0.00  0.00     0.147 C 
ATOM      5  O3  GC4 d 516      27.275  22.918  -4.149  0.00  0.00    -0.389 OA
ATOM      6  O6B GC4 d 516      24.505  25.240   0.060  0.00  0.00    -0.642 OA
ATOM      7  O2  GC4 d 516      27.080  20.662  -1.281  0.00  0.00    -0.388 OA
ATOM      8  C3  GC4 d 516      27.569  22.463  -2.827  0.00  0.00     0.084 C 
ATOM      9  C4  GC4 d 516      27.257  23.761  -2.034  0.00  0.00    -0.034 C 
ATOM     10  C6  GC4 d 516      25.623  25.159  -0.489  0.00  0.00     0.233 C 
ATOM     11  C1  GC4 d 516      25.182  21.804  -2.282  0.00  0.00     0.165 C 
ATOM     12  H   GC4 d 516      26.622  20.584  -3.269  0.00  0.00     0.095 H 
ATOM     13  H   GC4 d 516      27.426  22.196  -4.780  0.00  0.00     0.210 HD
ATOM     14  H   GC4 d 516      27.079  21.303  -0.553  0.00  0.00     0.210 HD
ATOM     15  H   GC4 d 516      28.551  22.078  -2.651  0.00  0.00     0.093 H 
ATOM     16  H   GC4 d 516      27.908  24.560  -2.077  0.00  0.00     0.085 H 
ATOM     17  H   GC4 d 516      24.610  20.915  -2.114  0.00  0.00     0.134 H 
ATOM     18  C6  ASG d 514      20.766  25.603  -3.894  0.00  0.00     0.043 C 
ATOM     19  O6  ASG d 514      21.055  26.500  -2.831  0.00  0.00    -0.398 OA
ATOM     20  C4  ASG d 514      22.722  24.012  -3.524  0.00  0.00     0.114 C 
ATOM     21  O7  ASG d 514      24.159  19.917  -5.618  0.00  0.00    -0.274 OA
ATOM     22  O3  ASG d 514      24.509  22.365  -3.418  0.00  0.00    -0.348 OA
ATOM     23  N   ASG d 514      22.594  20.231  -3.995  0.00  0.00    -0.349 N 
ATOM     24  OSC ASG d 514      24.655  26.125  -3.691  0.00  0.00    -0.572 OA
ATOM     25  C8  ASG d 514      23.658  18.065  -4.257  0.00  0.00    -0.003 C 
ATOM     26  O5  ASG d 514      20.641  23.335  -4.586  0.00  0.00    -0.349 OA
ATOM     27  O4  ASG d 514      23.305  24.472  -4.745  0.00  0.00    -0.246 OA
ATOM     28  C3  ASG d 514      23.086  22.533  -3.305  0.00  0.00     0.094 C 
ATOM     29  C7  ASG d 514      23.475  19.483  -4.669  0.00  0.00     0.214 C 
ATOM     30  OSA ASG d 514      25.549  24.807  -5.356  0.00  0.00    -0.572 OA
ATOM     31  OSB ASG d 514      23.866  26.438  -5.856  0.00  0.00    -0.572 OA
ATOM     32  S   ASG d 514      24.352  25.469  -4.931  0.00  0.00     0.252 S 
ATOM     33  C2  ASG d 514      22.378  21.635  -4.322  0.00  0.00     0.087 C 
ATOM     34  O1  ASG d 514      20.247  21.196  -5.290  0.00  0.00    -0.369 OA
ATOM     35  C5  ASG d 514      21.197  24.188  -3.563  0.00  0.00     0.090 C 
ATOM     36  C1  ASG d 514      20.879  21.946  -4.312  0.00  0.00     0.151 C 
ATOM     37  H   ASG d 514      19.712  25.611  -4.078  0.00  0.00     0.078 H 
ATOM     38  H   ASG d 514      21.307  25.924  -4.759  0.00  0.00     0.078 H 
ATOM     39  H   ASG d 514      20.572  26.225  -2.036  0.00  0.00     0.209 HD
ATOM     40  H   ASG d 514      23.107  24.591  -2.711  0.00  0.00     0.093 H 
ATOM     41  H   ASG d 514      22.079  19.824  -3.261  0.00  0.00     0.163 HD
ATOM     42  H   ASG d 514      24.389  17.603  -4.886  0.00  0.00     0.040 H 
ATOM     43  H   ASG d 514      22.728  17.545  -4.348  0.00  0.00     0.040 H 
ATOM     44  H   ASG d 514      23.988  18.030  -3.240  0.00  0.00     0.040 H 
ATOM     45  H   ASG d 514      22.765  22.248  -2.324  0.00  0.00     0.091 H 
ATOM     46  H   ASG d 514      22.779  21.825  -5.296  0.00  0.00     0.084 H 
ATOM     47  H   ASG d 514      19.297  21.392  -5.284  0.00  0.00     0.212 HD
ATOM     48  H   ASG d 514      20.846  23.942  -2.582  0.00  0.00     0.090 H 
ATOM     49  H   ASG d 514      20.497  21.706  -3.341  0.00  0.00     0.132 H 
ENDROOT
TORSDOF 12
ENDMDL
MODEL 57
REMARK VINA RESULT:      -5.1      3.314      6.479
REMARK  0 active torsions:
REMARK  status: ('A' for Active; 'I' for Inactive)
REMARK       I    between atoms: C6_2  and  C5_28 
REMARK       I    between atoms: C6_2  and  O6_5 
REMARK       I    between atoms: C2_4  and  O2_16 
REMARK       I    between atoms: C5_6  and  C6_24 
REMARK       I    between atoms: C4_7  and  O4_17 
REMARK       I    between atoms: O3_8  and  C3_19 
REMARK       I    between atoms: O3_10  and  C3_18 
REMARK       I    between atoms: O3_10  and  C1_30 
REMARK       I    between atoms: N_11  and  C2_26 
REMARK       I    between atoms: N_11  and  C7_21 
REMARK       I    between atoms: C8_13  and  C7_21 
REMARK       I    between atoms: O4_17  and  S_25 
REMARK       I    between atoms: O1_27  and  C1_29 
ROOT
ATOM      1  O5  GC4 d 516      25.847  22.243  -5.174  0.00  0.00    -0.311 OA
ATOM      2  O6A GC4 d 516      23.128  19.994  -6.348  0.00  0.00    -0.642 OA
ATOM      3  C2  GC4 d 516      27.618  21.117  -3.973  0.00  0.00     0.111 C 
ATOM      4  C5  GC4 d 516      25.060  21.058  -5.410  0.00  0.00     0.147 C 
ATOM      5  O3  GC4 d 516      26.261  19.644  -2.603  0.00  0.00    -0.389 OA
ATOM      6  O6B GC4 d 516      23.295  22.173  -6.551  0.00  0.00    -0.642 OA
ATOM      7  O2  GC4 d 516      28.425  21.133  -5.143  0.00  0.00    -0.388 OA
ATOM      8  C3  GC4 d 516      26.851  19.775  -3.897  0.00  0.00     0.084 C 
ATOM      9  C4  GC4 d 516      25.565  19.761  -4.768  0.00  0.00    -0.034 C 
ATOM     10  C6  GC4 d 516      23.746  21.070  -6.180  0.00  0.00     0.233 C 
ATOM     11  C1  GC4 d 516      26.635  22.300  -3.985  0.00  0.00     0.165 C 
ATOM     12  H   GC4 d 516      28.243  21.212  -3.111  0.00  0.00     0.095 H 
ATOM     13  H   GC4 d 516      26.959  19.636  -1.929  0.00  0.00     0.210 HD
ATOM     14  H   GC4 d 516      27.861  21.047  -5.927  0.00  0.00     0.210 HD
ATOM     15  H   GC4 d 516      27.570  19.036  -4.183  0.00  0.00     0.093 H 
ATOM     16  H   GC4 d 516      25.051  18.879  -4.915  0.00  0.00     0.085 H 
ATOM     17  H   GC4 d 516      27.266  23.164  -3.964  0.00  0.00     0.134 H 
ATOM     18  C6  ASG d 514      21.435  24.754  -2.122  0.00  0.00     0.043 C 
ATOM     19  O6  ASG d 514      20.751  24.376  -3.307  0.00  0.00    -0.398 OA
ATOM     20  C4  ASG d 514      23.637  23.571  -2.619  0.00  0.00     0.114 C 
ATOM     21  O7  ASG d 514      27.875  23.273  -0.346  0.00  0.00    -0.274 OA
ATOM     22  O3  ASG d 514      25.818  22.515  -2.826  0.00  0.00    -0.348 OA
ATOM     23  N   ASG d 514      27.095  24.906  -1.726  0.00  0.00    -0.349 N 
ATOM     24  OSC ASG d 514      22.352  21.034  -2.989  0.00  0.00    -0.572 OA
ATOM     25  C8  ASG d 514      29.484  24.625  -1.402  0.00  0.00    -0.003 C 
ATOM     26  O5  ASG d 514      23.473  25.523  -1.177  0.00  0.00    -0.349 OA
ATOM     27  O4  ASG d 514      23.362  22.650  -1.562  0.00  0.00    -0.246 OA
ATOM     28  C3  ASG d 514      25.157  23.787  -2.732  0.00  0.00     0.094 C 
ATOM     29  C7  ASG d 514      28.077  24.228  -1.122  0.00  0.00     0.214 C 
ATOM     30  OSA ASG d 514      23.825  20.356  -1.352  0.00  0.00    -0.572 OA
ATOM     31  OSB ASG d 514      21.678  21.250  -0.773  0.00  0.00    -0.572 OA
ATOM     32  S   ASG d 514      22.799  21.308  -1.653  0.00  0.00     0.252 S 
ATOM     33  C2  ASG d 514      25.693  24.559  -1.524  0.00  0.00     0.087 C 
ATOM     34  O1  ASG d 514      25.294  26.493  -0.192  0.00  0.00    -0.369 OA
ATOM     35  C5  ASG d 514      22.924  24.907  -2.361  0.00  0.00     0.090 C 
ATOM     36  C1  ASG d 514      24.867  25.833  -1.332  0.00  0.00     0.151 C 
ATOM     37  H   ASG d 514      21.041  25.687  -1.775  0.00  0.00     0.078 H 
ATOM     38  H   ASG d 514      21.290  23.985  -1.392  0.00  0.00     0.078 H 
ATOM     39  H   ASG d 514      20.870  25.063  -3.982  0.00  0.00     0.209 HD
ATOM     40  H   ASG d 514      23.273  23.169  -3.541  0.00  0.00     0.093 H 
ATOM     41  H   ASG d 514      27.323  25.656  -2.322  0.00  0.00     0.163 HD
ATOM     42  H   ASG d 514      30.149  23.995  -0.849  0.00  0.00     0.040 H 
ATOM     43  H   ASG d 514      29.631  25.643  -1.109  0.00  0.00     0.040 H 
ATOM     44  H   ASG d 514      29.682  24.522  -2.448  0.00  0.00     0.040 H 
ATOM     45  H   ASG d 514      25.352  24.363  -3.612  0.00  0.00     0.091 H 
ATOM     46  H   ASG d 514      25.616  23.944  -0.652  0.00  0.00     0.084 H 
ATOM     47  H   ASG d 514      24.771  27.300  -0.069  0.00  0.00     0.212 HD
ATOM     48  H   ASG d 514      23.073  25.497  -3.241  0.00  0.00     0.090 H 
ATOM     49  H   ASG d 514      24.998  26.448  -2.198  0.00  0.00     0.132 H 
ENDROOT
TORSDOF 12
ENDMDL
MODEL 58
REMARK VINA RESULT:      -5.1      4.065      5.916
REMARK  0 active torsions:
REMARK  status: ('A' for Active; 'I' for Inactive)
REMARK       I    between atoms: C6_2  and  C5_28 
REMARK       I    between atoms: C6_2  and  O6_5 
REMARK       I    between atoms: C2_4  and  O2_16 
REMARK       I    between atoms: C5_6  and  C6_24 
REMARK       I    between atoms: C4_7  and  O4_17 
REMARK       I    between atoms: O3_8  and  C3_19 
REMARK       I    between atoms: O3_10  and  C3_18 
REMARK       I    between atoms: O3_10  and  C1_30 
REMARK       I    between atoms: N_11  and  C2_26 
REMARK       I    between atoms: N_11  and  C7_21 
REMARK       I    between atoms: C8_13  and  C7_21 
REMARK       I    between atoms: O4_17  and  S_25 
REMARK       I    between atoms: O1_27  and  C1_29 
ROOT
ATOM      1  O5  GC4 d 516      22.828  23.223  -4.825  0.00  0.00    -0.311 OA
ATOM      2  O6A GC4 d 516      21.631  26.480  -3.489  0.00  0.00    -0.642 OA
ATOM      3  C2  GC4 d 516      22.369  21.332  -3.390  0.00  0.00     0.111 C 
ATOM      4  C5  GC4 d 516      22.236  24.208  -3.954  0.00  0.00     0.147 C 
ATOM      5  O3  GC4 d 516      22.958  22.330  -1.258  0.00  0.00    -0.389 OA
ATOM      6  O6B GC4 d 516      22.729  26.074  -5.346  0.00  0.00    -0.642 OA
ATOM      7  O2  GC4 d 516      21.250  20.987  -4.196  0.00  0.00    -0.388 OA
ATOM      8  C3  GC4 d 516      21.898  22.213  -2.209  0.00  0.00     0.084 C 
ATOM      9  C4  GC4 d 516      21.735  23.708  -2.595  0.00  0.00    -0.034 C 
ATOM     10  C6  GC4 d 516      22.171  25.690  -4.298  0.00  0.00     0.233 C 
ATOM     11  C1  GC4 d 516      23.425  22.072  -4.228  0.00  0.00     0.165 C 
ATOM     12  H   GC4 d 516      22.815  20.440  -3.004  0.00  0.00     0.095 H 
ATOM     13  H   GC4 d 516      23.181  21.451  -0.913  0.00  0.00     0.210 HD
ATOM     14  H   GC4 d 516      20.844  21.795  -4.547  0.00  0.00     0.210 HD
ATOM     15  H   GC4 d 516      20.991  21.756  -1.874  0.00  0.00     0.093 H 
ATOM     16  H   GC4 d 516      21.289  24.366  -1.937  0.00  0.00     0.085 H 
ATOM     17  H   GC4 d 516      23.728  21.352  -4.960  0.00  0.00     0.134 H 
ATOM     18  C6  ASG d 514      28.113  25.878  -4.495  0.00  0.00     0.043 C 
ATOM     19  O6  ASG d 514      27.288  26.979  -4.848  0.00  0.00    -0.398 OA
ATOM     20  C4  ASG d 514      26.250  24.186  -4.092  0.00  0.00     0.114 C 
ATOM     21  O7  ASG d 514      26.156  19.516  -2.908  0.00  0.00    -0.274 OA
ATOM     22  O3  ASG d 514      24.678  22.394  -3.608  0.00  0.00    -0.348 OA
ATOM     23  N   ASG d 514      26.431  20.477  -4.953  0.00  0.00    -0.349 N 
ATOM     24  OSC ASG d 514      24.933  25.879  -2.187  0.00  0.00    -0.572 OA
ATOM     25  C8  ASG d 514      25.628  18.193  -4.779  0.00  0.00    -0.003 C 
ATOM     26  O5  ASG d 514      28.507  23.549  -4.734  0.00  0.00    -0.349 OA
ATOM     27  O4  ASG d 514      26.553  24.210  -2.695  0.00  0.00    -0.246 OA
ATOM     28  C3  ASG d 514      25.747  22.786  -4.485  0.00  0.00     0.094 C 
ATOM     29  C7  ASG d 514      26.100  19.457  -4.153  0.00  0.00     0.214 C 
ATOM     30  OSA ASG d 514      25.162  24.046  -0.809  0.00  0.00    -0.572 OA
ATOM     31  OSB ASG d 514      26.889  25.702  -0.941  0.00  0.00    -0.572 OA
ATOM     32  S   ASG d 514      25.890  24.961  -1.637  0.00  0.00     0.252 S 
ATOM     33  C2  ASG d 514      26.877  21.756  -4.414  0.00  0.00     0.087 C 
ATOM     34  O1  ASG d 514      29.131  21.378  -5.085  0.00  0.00    -0.369 OA
ATOM     35  C5  ASG d 514      27.493  24.560  -4.913  0.00  0.00     0.090 C 
ATOM     36  C1  ASG d 514      28.076  22.267  -5.216  0.00  0.00     0.151 C 
ATOM     37  H   ASG d 514      29.061  25.985  -4.979  0.00  0.00     0.078 H 
ATOM     38  H   ASG d 514      28.226  25.873  -3.431  0.00  0.00     0.078 H 
ATOM     39  H   ASG d 514      27.174  27.001  -5.811  0.00  0.00     0.209 HD
ATOM     40  H   ASG d 514      25.483  24.903  -4.297  0.00  0.00     0.093 H 
ATOM     41  H   ASG d 514      26.372  20.362  -5.929  0.00  0.00     0.163 HD
ATOM     42  H   ASG d 514      25.404  17.479  -4.015  0.00  0.00     0.040 H 
ATOM     43  H   ASG d 514      26.393  17.805  -5.418  0.00  0.00     0.040 H 
ATOM     44  H   ASG d 514      24.747  18.388  -5.355  0.00  0.00     0.040 H 
ATOM     45  H   ASG d 514      25.392  22.826  -5.494  0.00  0.00     0.091 H 
ATOM     46  H   ASG d 514      27.160  21.616  -3.391  0.00  0.00     0.084 H 
ATOM     47  H   ASG d 514      29.891  21.701  -5.593  0.00  0.00     0.212 HD
ATOM     48  H   ASG d 514      27.163  24.641  -5.928  0.00  0.00     0.090 H 
ATOM     49  H   ASG d 514      27.778  22.355  -6.240  0.00  0.00     0.132 H 
ENDROOT
TORSDOF 12
ENDMDL
