MODEL 1
REMARK VINA RESULT:     -11.0      0.000      0.000
REMARK  0 active torsions:
REMARK  status: ('A' for Active; 'I' for Inactive)
REMARK       I    between atoms: C5_1  and  C6_64 
REMARK       I    between atoms: C4_2  and  O4_32 
REMARK       I    between atoms: C1_3  and  O4_32 
REMARK       I    between atoms: S1_6  and  N_87 
REMARK       I    between atoms: S1_6  and  O1S_23 
REMARK       I    between atoms: S1_6  and  O2S_31 
REMARK       I    between atoms: S1_6  and  O3S_47 
REMARK       I    between atoms: N_7  and  C2_53 
REMARK       I    between atoms: N_7  and  S1_10 
REMARK       I    between atoms: C3_9  and  O3_14 
REMARK       I    between atoms: S1_10  and  O1S_52 
REMARK       I    between atoms: S1_10  and  O2S_17 
REMARK       I    between atoms: S1_10  and  O3S_80 
REMARK       I    between atoms: C5_12  and  C6_73 
REMARK       I    between atoms: S1_13  and  N_25 
REMARK       I    between atoms: S1_13  and  O1S_58 
REMARK       I    between atoms: S1_13  and  O2S_66 
REMARK       I    between atoms: S1_13  and  O3S_62 
REMARK       I    between atoms: S2_15  and  O6_41 
REMARK       I    between atoms: C3_16  and  O3_48 
REMARK       I    between atoms: C2_18  and  N_87 
REMARK       I    between atoms: C1_19  and  O4_39 
REMARK       I    between atoms: C3_20  and  O3_27 
REMARK       I    between atoms: C1_24  and  O1_84 
REMARK       I    between atoms: N_25  and  C2_78 
REMARK       I    between atoms: O4_28  and  C4_30 
REMARK       I    between atoms: O4_28  and  C1_86 
REMARK       I    between atoms: C2_34  and  O2_59 
REMARK       I    between atoms: O3_35  and  C3_60 
REMARK       I    between atoms: C5_37  and  C6_81 
REMARK       I    between atoms: O4_39  and  C4_79 
REMARK       I    between atoms: O4_40  and  C4_77 
REMARK       I    between atoms: O4_40  and  C1_61 
REMARK       I    between atoms: O6_41  and  C6_57 
REMARK       I    between atoms: O6_45  and  C6_81 
REMARK       I    between atoms: O6_45  and  S2_83 
REMARK       I    between atoms: C3_46  and  O3_72 
REMARK       I    between atoms: C5_50  and  C6_57 
REMARK       I    between atoms: O2_59  and  S_69 
REMARK       I    between atoms: O6_63  and  C6_64 
REMARK       I    between atoms: O6_63  and  S2_70 
REMARK       I    between atoms: C5_67  and  C6_88 
REMARK       I    between atoms: S_71  and  O2_89 
REMARK       I    between atoms: O4_75  and  C4_82 
REMARK       I    between atoms: C2_85  and  O2_89 
ROOT
ATOM      1  C5  SGN d 401     -13.529  -2.862  45.205  0.00  0.00     0.091 C 
ATOM      2  S1  SGN d 401     -15.093  -3.770  50.545  0.00  0.00     0.156 S 
ATOM      3  C3  SGN d 401     -15.291  -2.230  46.900  0.00  0.00     0.083 C 
ATOM      4  C2  SGN d 401     -14.580  -3.195  47.873  0.00  0.00     0.081 C 
ATOM      5  O1S SGN d 401     -13.658  -3.574  50.628  0.00  0.00    -0.296 OA
ATOM      6  C1  SGN d 401     -13.949  -4.318  47.034  0.00  0.00     0.147 C 
ATOM      7  O2S SGN d 401     -15.815  -2.694  51.171  0.00  0.00    -0.296 OA
ATOM      8  O4  SGN d 401     -14.996  -0.962  44.901  0.00  0.00    -0.348 OA
ATOM      9  O4S SGN d 401     -10.683   0.057  43.976  0.00  0.00    -0.572 OA
ATOM     10  O3S SGN d 401     -15.494  -5.070  51.039  0.00  0.00    -0.296 OA
ATOM     11  O3  SGN d 401     -15.822  -1.130  47.615  0.00  0.00    -0.391 OA
ATOM     12  O5  SGN d 401     -13.004  -3.793  46.151  0.00  0.00    -0.350 OA
ATOM     13  O6S SGN d 401      -9.198  -1.683  44.733  0.00  0.00    -0.572 OA
ATOM     14  O6  SGN d 401     -11.509  -1.717  45.347  0.00  0.00    -0.254 OA
ATOM     15  C6  SGN d 401     -12.314  -2.391  44.418  0.00  0.00     0.067 C 
ATOM     16  S2  SGN d 401     -10.302  -0.796  45.055  0.00  0.00     0.251 S 
ATOM     17  O5S SGN d 401     -10.111  -0.061  46.276  0.00  0.00    -0.572 OA
ATOM     18  C4  SGN d 401     -14.288  -1.679  45.882  0.00  0.00     0.095 C 
ATOM     19  O1  SGN d 401     -14.953  -5.021  46.282  0.00  0.00    -0.369 OA
ATOM     20  N   SGN d 401     -15.515  -3.756  48.910  0.00  0.00    -0.210 NA
ATOM     21  H   SGN d 401     -14.268  -3.313  44.576  0.00  0.00     0.090 H 
ATOM     22  H   SGN d 401     -16.072  -2.769  46.403  0.00  0.00     0.089 H 
ATOM     23  H   SGN d 401     -13.831  -2.660  48.416  0.00  0.00     0.076 H 
ATOM     24  H   SGN d 401     -13.432  -2.693  50.289  0.00  0.00     0.231 HD
ATOM     25  H   SGN d 401     -13.473  -5.001  47.706  0.00  0.00     0.131 H 
ATOM     26  H   SGN d 401     -15.512  -1.848  50.807  0.00  0.00     0.231 HD
ATOM     27  H   SGN d 401     -14.981  -5.760  50.589  0.00  0.00     0.231 HD
ATOM     28  H   SGN d 401     -15.101  -0.654  48.058  0.00  0.00     0.210 HD
ATOM     29  H   SGN d 401     -12.611  -1.730  43.630  0.00  0.00     0.080 H 
ATOM     30  H   SGN d 401     -11.796  -3.208  43.959  0.00  0.00     0.080 H 
ATOM     31  H   SGN d 401     -13.582  -1.042  46.373  0.00  0.00     0.091 H 
ATOM     32  H   SGN d 401     -15.388  -4.407  45.670  0.00  0.00     0.212 HD
ATOM     33  H   SGN d 401     -16.382  -3.222  48.839  0.00  0.00     0.140 HD
ATOM     34  C4  IDS d 404     -12.099   9.725  46.899  0.00  0.00     0.103 C 
ATOM     35  C5  IDS d 404     -13.160   9.570  45.813  0.00  0.00     0.152 C 
ATOM     36  O4  IDS d 404     -12.258  10.994  47.468  0.00  0.00    -0.348 OA
ATOM     37  O5  IDS d 404     -14.455   9.434  46.352  0.00  0.00    -0.340 OA
ATOM     38  C2  IDS d 404     -13.638   8.237  48.360  0.00  0.00     0.134 C 
ATOM     39  O62 IDS d 404     -12.616  10.645  43.754  0.00  0.00    -0.646 OA
ATOM     40  C3  IDS d 404     -12.198   8.635  48.001  0.00  0.00     0.094 C 
ATOM     41  O2  IDS d 404     -14.100   9.099  49.408  0.00  0.00    -0.244 OA
ATOM     42  O1S IDS d 404     -14.535   7.952  51.420  0.00  0.00    -0.572 OA
ATOM     43  O2S IDS d 404     -15.709   9.973  50.961  0.00  0.00    -0.572 OA
ATOM     44  S   IDS d 404     -15.195   8.738  50.458  0.00  0.00     0.252 S 
ATOM     45  O3  IDS d 404     -11.548   7.474  47.541  0.00  0.00    -0.390 OA
ATOM     46  C6  IDS d 404     -13.137  10.738  44.852  0.00  0.00     0.206 C 
ATOM     47  O3S IDS d 404     -16.165   7.958  49.783  0.00  0.00    -0.572 OA
ATOM     48  C1  IDS d 404     -14.634   8.269  47.167  0.00  0.00     0.161 C 
ATOM     49  O61 IDS d 404     -13.618  11.810  45.188  0.00  0.00    -0.646 OA
ATOM     50  H   IDS d 404     -11.135   9.611  46.451  0.00  0.00     0.092 H 
ATOM     51  H   IDS d 404     -12.918   8.673  45.281  0.00  0.00     0.104 H 
ATOM     52  H   IDS d 404     -13.608   7.215  48.674  0.00  0.00     0.097 H 
ATOM     53  H   IDS d 404     -11.747   9.052  48.877  0.00  0.00     0.091 H 
ATOM     54  H   IDS d 404     -12.000   7.143  46.749  0.00  0.00     0.210 HD
ATOM     55  H   IDS d 404     -15.629   8.332  47.553  0.00  0.00     0.133 H 
ATOM     56  C1  SGN d 405     -11.096  11.766  47.538  0.00  0.00     0.150 C 
ATOM     57  O6S SGN d 405      -8.021  13.344  45.464  0.00  0.00    -0.572 OA
ATOM     58  N   SGN d 405     -11.951  12.230  49.784  0.00  0.00    -0.210 NA
ATOM     59  S1  SGN d 405     -11.090  11.916  51.107  0.00  0.00     0.156 S 
ATOM     60  S2  SGN d 405      -8.251  14.323  44.405  0.00  0.00     0.251 S 
ATOM     61  O2S SGN d 405     -10.104  12.967  51.189  0.00  0.00    -0.296 OA
ATOM     62  C3  SGN d 405     -12.009  14.054  48.140  0.00  0.00     0.083 C 
ATOM     63  O5  SGN d 405     -10.683  12.320  46.268  0.00  0.00    -0.349 OA
ATOM     64  O3  SGN d 405     -11.997  15.046  49.150  0.00  0.00    -0.391 OA
ATOM     65  O6  SGN d 405      -9.788  14.753  44.485  0.00  0.00    -0.254 OA
ATOM     66  O5S SGN d 405      -7.491  15.537  44.576  0.00  0.00    -0.572 OA
ATOM     67  C5  SGN d 405     -11.414  13.500  45.836  0.00  0.00     0.090 C 
ATOM     68  O4S SGN d 405      -8.053  13.760  43.117  0.00  0.00    -0.572 OA
ATOM     69  O1S SGN d 405     -10.504  10.618  50.893  0.00  0.00    -0.296 OA
ATOM     70  C2  SGN d 405     -11.262  12.822  48.642  0.00  0.00     0.081 C 
ATOM     71  C6  SGN d 405     -10.935  13.913  44.418  0.00  0.00     0.067 C 
ATOM     72  O4  SGN d 405     -11.873  15.798  46.467  0.00  0.00    -0.390 OA
ATOM     73  O3S SGN d 405     -11.980  11.890  52.220  0.00  0.00    -0.296 OA
ATOM     74  C4  SGN d 405     -11.267  14.582  46.899  0.00  0.00     0.089 C 
ATOM     75  H   SGN d 405     -10.282  11.122  47.800  0.00  0.00     0.131 H 
ATOM     76  H   SGN d 405     -12.357  11.347  49.470  0.00  0.00     0.140 HD
ATOM     77  H   SGN d 405      -9.530  12.933  50.407  0.00  0.00     0.231 HD
ATOM     78  H   SGN d 405     -13.021  13.810  47.897  0.00  0.00     0.089 H 
ATOM     79  H   SGN d 405     -11.080  15.270  49.373  0.00  0.00     0.210 HD
ATOM     80  H   SGN d 405     -12.463  13.310  45.742  0.00  0.00     0.090 H 
ATOM     81  H   SGN d 405      -9.902  10.656  50.133  0.00  0.00     0.231 HD
ATOM     82  H   SGN d 405     -10.288  13.146  48.944  0.00  0.00     0.076 H 
ATOM     83  H   SGN d 405     -10.690  13.033  43.862  0.00  0.00     0.080 H 
ATOM     84  H   SGN d 405     -11.723  14.455  43.939  0.00  0.00     0.080 H 
ATOM     85  H   SGN d 405     -11.768  16.473  47.156  0.00  0.00     0.210 HD
ATOM     86  H   SGN d 405     -12.616  11.167  52.109  0.00  0.00     0.231 HD
ATOM     87  H   SGN d 405     -10.236  14.788  47.098  0.00  0.00     0.091 H 
ATOM     88  O5S SGN d 403     -20.619   7.570  47.299  0.00  0.00    -0.572 OA
ATOM     89  C3  SGN d 403     -14.983   6.206  44.296  0.00  0.00     0.083 C 
ATOM     90  O5  SGN d 403     -17.317   5.009  45.360  0.00  0.00    -0.349 OA
ATOM     91  S1  SGN d 403     -16.462   5.628  40.825  0.00  0.00     0.156 S 
ATOM     92  O3  SGN d 403     -14.337   7.265  43.657  0.00  0.00    -0.391 OA
ATOM     93  O4S SGN d 403     -18.667   9.017  47.227  0.00  0.00    -0.572 OA
ATOM     94  N   SGN d 403     -15.617   5.207  42.134  0.00  0.00    -0.210 NA
ATOM     95  O4  SGN d 403     -14.516   7.082  46.426  0.00  0.00    -0.348 OA
ATOM     96  O6S SGN d 403     -19.146   7.696  49.144  0.00  0.00    -0.572 OA
ATOM     97  C4  SGN d 403     -15.581   6.727  45.593  0.00  0.00     0.095 C 
ATOM     98  C5  SGN d 403     -16.389   5.586  46.256  0.00  0.00     0.091 C 
ATOM     99  O6  SGN d 403     -18.436   6.631  47.035  0.00  0.00    -0.254 OA
ATOM    100  O1S SGN d 403     -17.843   5.716  41.228  0.00  0.00    -0.296 OA
ATOM    101  C1  SGN d 403     -16.788   4.547  44.126  0.00  0.00     0.150 C 
ATOM    102  O3S SGN d 403     -16.278   4.581  39.880  0.00  0.00    -0.296 OA
ATOM    103  O2S SGN d 403     -15.918   6.909  40.417  0.00  0.00    -0.296 OA
ATOM    104  C2  SGN d 403     -16.093   5.680  43.418  0.00  0.00     0.081 C 
ATOM    105  C6  SGN d 403     -17.235   6.012  47.479  0.00  0.00     0.067 C 
ATOM    106  S2  SGN d 403     -19.267   7.790  47.732  0.00  0.00     0.251 S 
ATOM    107  H   SGN d 403     -14.287   5.417  44.491  0.00  0.00     0.089 H 
ATOM    108  H   SGN d 403     -14.974   7.975  43.484  0.00  0.00     0.210 HD
ATOM    109  H   SGN d 403     -14.668   5.560  42.011  0.00  0.00     0.140 HD
ATOM    110  H   SGN d 403     -16.223   7.565  45.419  0.00  0.00     0.091 H 
ATOM    111  H   SGN d 403     -15.622   4.904  46.561  0.00  0.00     0.090 H 
ATOM    112  H   SGN d 403     -17.947   6.434  41.872  0.00  0.00     0.231 HD
ATOM    113  H   SGN d 403     -17.618   4.190  43.553  0.00  0.00     0.131 H 
ATOM    114  H   SGN d 403     -16.668   3.762  40.224  0.00  0.00     0.231 HD
ATOM    115  H   SGN d 403     -16.083   7.567  41.110  0.00  0.00     0.231 HD
ATOM    116  H   SGN d 403     -16.764   6.493  43.233  0.00  0.00     0.076 H 
ATOM    117  H   SGN d 403     -16.677   6.704  48.074  0.00  0.00     0.080 H 
ATOM    118  H   SGN d 403     -17.474   5.149  48.064  0.00  0.00     0.080 H 
ATOM    119  O62 IDS d 402     -16.343   2.504  47.929  0.00  0.00    -0.646 OA
ATOM    120  C1  IDS d 402     -14.383   0.202  44.396  0.00  0.00     0.161 C 
ATOM    121  O3S IDS d 402     -12.972   0.029  41.340  0.00  0.00    -0.572 OA
ATOM    122  O3  IDS d 402     -17.396   0.294  43.709  0.00  0.00    -0.390 OA
ATOM    123  O5  IDS d 402     -14.348   1.237  45.347  0.00  0.00    -0.340 OA
ATOM    124  O4  IDS d 402     -15.898   3.476  44.267  0.00  0.00    -0.348 OA
ATOM    125  O61 IDS d 402     -14.497   3.276  47.222  0.00  0.00    -0.646 OA
ATOM    126  O1S IDS d 402     -14.036   1.801  40.132  0.00  0.00    -0.572 OA
ATOM    127  O2S IDS d 402     -12.252   2.281  41.619  0.00  0.00    -0.572 OA
ATOM    128  C3  IDS d 402     -16.486   1.328  43.441  0.00  0.00     0.094 C 
ATOM    129  C5  IDS d 402     -15.633   1.643  45.803  0.00  0.00     0.152 C 
ATOM    130  S   IDS d 402     -13.333   1.426  41.329  0.00  0.00     0.252 S 
ATOM    131  C4  IDS d 402     -16.460   2.256  44.650  0.00  0.00     0.103 C 
ATOM    132  C2  IDS d 402     -15.117   0.690  43.149  0.00  0.00     0.134 C 
ATOM    133  C6  IDS d 402     -15.481   2.524  47.064  0.00  0.00     0.206 C 
ATOM    134  O2  IDS d 402     -14.333   1.654  42.503  0.00  0.00    -0.244 OA
ATOM    135  H   IDS d 402     -13.374  -0.057  44.150  0.00  0.00     0.133 H 
ATOM    136  H   IDS d 402     -17.430  -0.312  42.952  0.00  0.00     0.210 HD
ATOM    137  H   IDS d 402     -16.764   1.910  42.588  0.00  0.00     0.091 H 
ATOM    138  H   IDS d 402     -16.211   0.798  46.115  0.00  0.00     0.104 H 
ATOM    139  H   IDS d 402     -17.462   2.399  44.999  0.00  0.00     0.092 H 
ATOM    140  H   IDS d 402     -15.284  -0.178  42.545  0.00  0.00     0.097 H 
ENDROOT
TORSDOF 45
ENDMDL
MODEL 2
REMARK VINA RESULT:     -10.2      2.597      4.788
REMARK  0 active torsions:
REMARK  status: ('A' for Active; 'I' for Inactive)
REMARK       I    between atoms: C5_1  and  C6_64 
REMARK       I    between atoms: C4_2  and  O4_32 
REMARK       I    between atoms: C1_3  and  O4_32 
REMARK       I    between atoms: S1_6  and  N_87 
REMARK       I    between atoms: S1_6  and  O1S_23 
REMARK       I    between atoms: S1_6  and  O2S_31 
REMARK       I    between atoms: S1_6  and  O3S_47 
REMARK       I    between atoms: N_7  and  C2_53 
REMARK       I    between atoms: N_7  and  S1_10 
REMARK       I    between atoms: C3_9  and  O3_14 
REMARK       I    between atoms: S1_10  and  O1S_52 
REMARK       I    between atoms: S1_10  and  O2S_17 
REMARK       I    between atoms: S1_10  and  O3S_80 
REMARK       I    between atoms: C5_12  and  C6_73 
REMARK       I    between atoms: S1_13  and  N_25 
REMARK       I    between atoms: S1_13  and  O1S_58 
REMARK       I    between atoms: S1_13  and  O2S_66 
REMARK       I    between atoms: S1_13  and  O3S_62 
REMARK       I    between atoms: S2_15  and  O6_41 
REMARK       I    between atoms: C3_16  and  O3_48 
REMARK       I    between atoms: C2_18  and  N_87 
REMARK       I    between atoms: C1_19  and  O4_39 
REMARK       I    between atoms: C3_20  and  O3_27 
REMARK       I    between atoms: C1_24  and  O1_84 
REMARK       I    between atoms: N_25  and  C2_78 
REMARK       I    between atoms: O4_28  and  C4_30 
REMARK       I    between atoms: O4_28  and  C1_86 
REMARK       I    between atoms: C2_34  and  O2_59 
REMARK       I    between atoms: O3_35  and  C3_60 
REMARK       I    between atoms: C5_37  and  C6_81 
REMARK       I    between atoms: O4_39  and  C4_79 
REMARK       I    between atoms: O4_40  and  C4_77 
REMARK       I    between atoms: O4_40  and  C1_61 
REMARK       I    between atoms: O6_41  and  C6_57 
REMARK       I    between atoms: O6_45  and  C6_81 
REMARK       I    between atoms: O6_45  and  S2_83 
REMARK       I    between atoms: C3_46  and  O3_72 
REMARK       I    between atoms: C5_50  and  C6_57 
REMARK       I    between atoms: O2_59  and  S_69 
REMARK       I    between atoms: O6_63  and  C6_64 
REMARK       I    between atoms: O6_63  and  S2_70 
REMARK       I    between atoms: C5_67  and  C6_88 
REMARK       I    between atoms: S_71  and  O2_89 
REMARK       I    between atoms: O4_75  and  C4_82 
REMARK       I    between atoms: C2_85  and  O2_89 
ROOT
ATOM      1  C5  SGN d 401     -15.454  -5.681  48.523  0.00  0.00     0.091 C 
ATOM      2  S1  SGN d 401     -20.663  -4.780  50.483  0.00  0.00     0.156 S 
ATOM      3  C3  SGN d 401     -17.618  -4.509  47.961  0.00  0.00     0.083 C 
ATOM      4  C2  SGN d 401     -18.185  -5.113  49.264  0.00  0.00     0.081 C 
ATOM      5  O1S SGN d 401     -19.813  -4.586  51.642  0.00  0.00    -0.296 OA
ATOM      6  C1  SGN d 401     -17.475  -6.457  49.499  0.00  0.00     0.147 C 
ATOM      7  O2S SGN d 401     -21.278  -3.550  50.062  0.00  0.00    -0.296 OA
ATOM      8  O4  SGN d 401     -15.593  -3.965  46.824  0.00  0.00    -0.348 OA
ATOM      9  O4S SGN d 401     -12.038  -3.359  49.560  0.00  0.00    -0.572 OA
ATOM     10  O3S SGN d 401     -21.624  -5.843  50.684  0.00  0.00    -0.296 OA
ATOM     11  O3  SGN d 401     -18.180  -3.229  47.741  0.00  0.00    -0.391 OA
ATOM     12  O5  SGN d 401     -16.102  -6.260  49.656  0.00  0.00    -0.350 OA
ATOM     13  O6S SGN d 401     -12.187  -4.777  51.504  0.00  0.00    -0.572 OA
ATOM     14  O6  SGN d 401     -14.043  -4.579  50.009  0.00  0.00    -0.254 OA
ATOM     15  C6  SGN d 401     -14.006  -5.509  48.960  0.00  0.00     0.067 C 
ATOM     16  S2  SGN d 401     -12.853  -3.819  50.638  0.00  0.00     0.251 S 
ATOM     17  O5S SGN d 401     -13.463  -2.729  51.351  0.00  0.00    -0.572 OA
ATOM     18  C4  SGN d 401     -16.102  -4.333  48.083  0.00  0.00     0.095 C 
ATOM     19  O1  SGN d 401     -17.698  -7.353  48.397  0.00  0.00    -0.369 OA
ATOM     20  N   SGN d 401     -19.678  -5.294  49.211  0.00  0.00    -0.210 NA
ATOM     21  H   SGN d 401     -15.543  -6.303  47.657  0.00  0.00     0.090 H 
ATOM     22  H   SGN d 401     -17.855  -5.170  47.154  0.00  0.00     0.089 H 
ATOM     23  H   SGN d 401     -18.002  -4.440  50.075  0.00  0.00     0.076 H 
ATOM     24  H   SGN d 401     -19.185  -3.867  51.467  0.00  0.00     0.231 HD
ATOM     25  H   SGN d 401     -17.880  -6.889  50.391  0.00  0.00     0.131 H 
ATOM     26  H   SGN d 401     -20.596  -2.872  49.941  0.00  0.00     0.231 HD
ATOM     27  H   SGN d 401     -21.162  -6.648  50.966  0.00  0.00     0.231 HD
ATOM     28  H   SGN d 401     -17.955  -2.644  48.481  0.00  0.00     0.210 HD
ATOM     29  H   SGN d 401     -13.412  -5.137  48.151  0.00  0.00     0.080 H 
ATOM     30  H   SGN d 401     -13.568  -6.437  49.265  0.00  0.00     0.080 H 
ATOM     31  H   SGN d 401     -15.878  -3.580  48.809  0.00  0.00     0.091 H 
ATOM     32  H   SGN d 401     -17.332  -6.966  47.587  0.00  0.00     0.212 HD
ATOM     33  H   SGN d 401     -20.000  -4.801  48.377  0.00  0.00     0.140 HD
ATOM     34  C4  IDS d 404     -12.499   6.751  48.299  0.00  0.00     0.103 C 
ATOM     35  C5  IDS d 404     -12.356   6.264  46.861  0.00  0.00     0.152 C 
ATOM     36  O4  IDS d 404     -12.683   8.138  48.261  0.00  0.00    -0.348 OA
ATOM     37  O5  IDS d 404     -13.576   6.328  46.156  0.00  0.00    -0.340 OA
ATOM     38  C2  IDS d 404     -14.922   5.840  48.177  0.00  0.00     0.134 C 
ATOM     39  O62 IDS d 404     -10.189   6.603  45.923  0.00  0.00    -0.646 OA
ATOM     40  C3  IDS d 404     -13.681   6.081  49.051  0.00  0.00     0.094 C 
ATOM     41  O2  IDS d 404     -15.758   7.003  48.243  0.00  0.00    -0.244 OA
ATOM     42  O1S IDS d 404     -17.845   6.579  49.255  0.00  0.00    -0.572 OA
ATOM     43  O2S IDS d 404     -17.659   8.355  47.679  0.00  0.00    -0.572 OA
ATOM     44  S   IDS d 404     -17.303   7.018  48.033  0.00  0.00     0.252 S 
ATOM     45  O3  IDS d 404     -13.257   4.825  49.524  0.00  0.00    -0.390 OA
ATOM     46  C6  IDS d 404     -11.305   7.055  46.115  0.00  0.00     0.206 C 
ATOM     47  O3S IDS d 404     -17.584   6.073  47.016  0.00  0.00    -0.572 OA
ATOM     48  C1  IDS d 404     -14.610   5.495  46.693  0.00  0.00     0.161 C 
ATOM     49  O61 IDS d 404     -11.558   8.185  45.722  0.00  0.00    -0.646 OA
ATOM     50  H   IDS d 404     -11.613   6.484  48.838  0.00  0.00     0.092 H 
ATOM     51  H   IDS d 404     -12.051   5.240  46.917  0.00  0.00     0.104 H 
ATOM     52  H   IDS d 404     -15.415   4.976  48.569  0.00  0.00     0.097 H 
ATOM     53  H   IDS d 404     -13.960   6.754  49.834  0.00  0.00     0.091 H 
ATOM     54  H   IDS d 404     -13.018   4.259  48.772  0.00  0.00     0.210 HD
ATOM     55  H   IDS d 404     -15.481   5.693  46.105  0.00  0.00     0.133 H 
ATOM     56  C1  SGN d 405     -11.832   8.876  49.089  0.00  0.00     0.150 C 
ATOM     57  O6S SGN d 405      -8.002   9.652  50.076  0.00  0.00    -0.572 OA
ATOM     58  N   SGN d 405     -13.915  10.057  49.598  0.00  0.00    -0.210 NA
ATOM     59  S1  SGN d 405     -14.481  10.180  51.099  0.00  0.00     0.156 S 
ATOM     60  S2  SGN d 405      -7.079  10.235  49.107  0.00  0.00     0.251 S 
ATOM     61  O2S SGN d 405     -13.671  11.187  51.740  0.00  0.00    -0.296 OA
ATOM     62  C3  SGN d 405     -12.220  11.247  48.277  0.00  0.00     0.083 C 
ATOM     63  O5  SGN d 405     -10.478   8.980  48.593  0.00  0.00    -0.349 OA
ATOM     64  O3  SGN d 405     -12.708  12.513  48.678  0.00  0.00    -0.391 OA
ATOM     65  O6  SGN d 405      -7.945  10.687  47.842  0.00  0.00    -0.254 OA
ATOM     66  O5S SGN d 405      -6.427  11.429  49.587  0.00  0.00    -0.572 OA
ATOM     67  C5  SGN d 405     -10.274   9.964  47.542  0.00  0.00     0.090 C 
ATOM     68  O4S SGN d 405      -6.139   9.281  48.635  0.00  0.00    -0.572 OA
ATOM     69  O1S SGN d 405     -14.317   8.876  51.687  0.00  0.00    -0.296 OA
ATOM     70  C2  SGN d 405     -12.482  10.235  49.389  0.00  0.00     0.081 C 
ATOM     71  C6  SGN d 405      -8.806   9.887  47.041  0.00  0.00     0.067 C 
ATOM     72  O4  SGN d 405     -10.408  12.349  47.109  0.00  0.00    -0.390 OA
ATOM     73  O3S SGN d 405     -15.861  10.530  51.026  0.00  0.00    -0.296 OA
ATOM     74  C4  SGN d 405     -10.697  11.332  48.065  0.00  0.00     0.089 C 
ATOM     75  H   SGN d 405     -11.715   8.341  50.009  0.00  0.00     0.131 H 
ATOM     76  H   SGN d 405     -14.158   9.126  49.258  0.00  0.00     0.140 HD
ATOM     77  H   SGN d 405     -12.746  10.894  51.760  0.00  0.00     0.231 HD
ATOM     78  H   SGN d 405     -12.709  10.949  47.373  0.00  0.00     0.089 H 
ATOM     79  H   SGN d 405     -12.268  12.785  49.497  0.00  0.00     0.210 HD
ATOM     80  H   SGN d 405     -10.882   9.768  46.684  0.00  0.00     0.090 H 
ATOM     81  H   SGN d 405     -13.372   8.656  51.728  0.00  0.00     0.231 HD
ATOM     82  H   SGN d 405     -12.039  10.628  50.280  0.00  0.00     0.076 H 
ATOM     83  H   SGN d 405      -8.476   8.870  47.084  0.00  0.00     0.080 H 
ATOM     84  H   SGN d 405      -8.772  10.253  46.037  0.00  0.00     0.080 H 
ATOM     85  H   SGN d 405     -10.684  13.210  47.459  0.00  0.00     0.210 HD
ATOM     86  H   SGN d 405     -16.352   9.818  50.587  0.00  0.00     0.231 HD
ATOM     87  H   SGN d 405     -10.175  11.578  48.966  0.00  0.00     0.091 H 
ATOM     88  O5S SGN d 403     -18.483   4.954  42.107  0.00  0.00    -0.572 OA
ATOM     89  C3  SGN d 403     -13.207   2.613  45.160  0.00  0.00     0.083 C 
ATOM     90  O5  SGN d 403     -15.729   1.859  44.120  0.00  0.00    -0.349 OA
ATOM     91  S1  SGN d 403     -11.629   0.956  42.105  0.00  0.00     0.156 S 
ATOM     92  O3  SGN d 403     -12.053   3.398  45.117  0.00  0.00    -0.391 OA
ATOM     93  O4S SGN d 403     -16.871   6.273  43.360  0.00  0.00    -0.572 OA
ATOM     94  N   SGN d 403     -12.223   0.973  43.606  0.00  0.00    -0.210 NA
ATOM     95  O4  SGN d 403     -14.299   4.129  46.586  0.00  0.00    -0.348 OA
ATOM     96  O6S SGN d 403     -18.959   5.655  44.314  0.00  0.00    -0.572 OA
ATOM     97  C4  SGN d 403     -14.403   3.536  45.324  0.00  0.00     0.095 C 
ATOM     98  C5  SGN d 403     -15.694   2.684  45.266  0.00  0.00     0.091 C 
ATOM     99  O6  SGN d 403     -17.228   3.952  43.878  0.00  0.00    -0.254 OA
ATOM    100  O1S SGN d 403     -12.737   1.187  41.213  0.00  0.00    -0.296 OA
ATOM    101  C1  SGN d 403     -14.604   1.013  43.926  0.00  0.00     0.150 C 
ATOM    102  O3S SGN d 403     -11.087  -0.345  41.908  0.00  0.00    -0.296 OA
ATOM    103  O2S SGN d 403     -10.651   2.026  42.071  0.00  0.00    -0.296 OA
ATOM    104  C2  SGN d 403     -13.350   1.844  43.868  0.00  0.00     0.081 C 
ATOM    105  C6  SGN d 403     -17.009   3.496  45.207  0.00  0.00     0.067 C 
ATOM    106  S2  SGN d 403     -17.940   5.286  43.395  0.00  0.00     0.251 S 
ATOM    107  H   SGN d 403     -13.148   1.922  45.975  0.00  0.00     0.089 H 
ATOM    108  H   SGN d 403     -12.114   4.021  44.376  0.00  0.00     0.210 HD
ATOM    109  H   SGN d 403     -11.467   1.254  44.230  0.00  0.00     0.140 HD
ATOM    110  H   SGN d 403     -14.432   4.280  44.556  0.00  0.00     0.091 H 
ATOM    111  H   SGN d 403     -15.647   2.129  46.180  0.00  0.00     0.090 H 
ATOM    112  H   SGN d 403     -13.093   2.077  41.363  0.00  0.00     0.231 HD
ATOM    113  H   SGN d 403     -14.766   0.499  43.001  0.00  0.00     0.131 H 
ATOM    114  H   SGN d 403     -11.800  -1.002  41.944  0.00  0.00     0.231 HD
ATOM    115  H   SGN d 403     -11.097   2.876  42.212  0.00  0.00     0.231 HD
ATOM    116  H   SGN d 403     -13.394   2.561  43.076  0.00  0.00     0.076 H 
ATOM    117  H   SGN d 403     -16.938   4.337  45.865  0.00  0.00     0.080 H 
ATOM    118  H   SGN d 403     -17.825   2.874  45.509  0.00  0.00     0.080 H 
ATOM    119  O62 IDS d 402     -17.755   0.315  46.828  0.00  0.00    -0.646 OA
ATOM    120  C1  IDS d 402     -14.533  -3.037  46.811  0.00  0.00     0.161 C 
ATOM    121  O3S IDS d 402     -11.429  -4.215  46.231  0.00  0.00    -0.572 OA
ATOM    122  O3  IDS d 402     -15.795  -3.136  43.990  0.00  0.00    -0.390 OA
ATOM    123  O5  IDS d 402     -14.951  -1.750  47.189  0.00  0.00    -0.340 OA
ATOM    124  O4  IDS d 402     -14.465   0.035  44.917  0.00  0.00    -0.348 OA
ATOM    125  O61 IDS d 402     -15.908   0.791  47.760  0.00  0.00    -0.646 OA
ATOM    126  O1S IDS d 402     -10.679  -2.920  44.362  0.00  0.00    -0.572 OA
ATOM    127  O2S IDS d 402     -10.603  -2.004  46.549  0.00  0.00    -0.572 OA
ATOM    128  C3  IDS d 402     -14.771  -2.257  44.374  0.00  0.00     0.094 C 
ATOM    129  C5  IDS d 402     -15.957  -1.201  46.345  0.00  0.00     0.152 C 
ATOM    130  S   IDS d 402     -11.262  -2.893  45.677  0.00  0.00     0.252 S 
ATOM    131  C4  IDS d 402     -15.418  -0.987  44.911  0.00  0.00     0.103 C 
ATOM    132  C2  IDS d 402     -13.901  -2.973  45.422  0.00  0.00     0.134 C 
ATOM    133  C6  IDS d 402     -16.581   0.041  47.021  0.00  0.00     0.206 C 
ATOM    134  O2  IDS d 402     -12.685  -2.282  45.503  0.00  0.00    -0.244 OA
ATOM    135  H   IDS d 402     -13.812  -3.375  47.527  0.00  0.00     0.133 H 
ATOM    136  H   IDS d 402     -15.406  -3.955  43.644  0.00  0.00     0.210 HD
ATOM    137  H   IDS d 402     -14.137  -1.981  43.557  0.00  0.00     0.091 H 
ATOM    138  H   IDS d 402     -16.765  -1.890  46.216  0.00  0.00     0.104 H 
ATOM    139  H   IDS d 402     -16.243  -0.724  44.282  0.00  0.00     0.092 H 
ATOM    140  H   IDS d 402     -13.778  -3.988  45.106  0.00  0.00     0.097 H 
ENDROOT
TORSDOF 45
ENDMDL
MODEL 3
REMARK VINA RESULT:      -9.3      3.785      5.950
REMARK  0 active torsions:
REMARK  status: ('A' for Active; 'I' for Inactive)
REMARK       I    between atoms: C5_1  and  C6_64 
REMARK       I    between atoms: C4_2  and  O4_32 
REMARK       I    between atoms: C1_3  and  O4_32 
REMARK       I    between atoms: S1_6  and  N_87 
REMARK       I    between atoms: S1_6  and  O1S_23 
REMARK       I    between atoms: S1_6  and  O2S_31 
REMARK       I    between atoms: S1_6  and  O3S_47 
REMARK       I    between atoms: N_7  and  C2_53 
REMARK       I    between atoms: N_7  and  S1_10 
REMARK       I    between atoms: C3_9  and  O3_14 
REMARK       I    between atoms: S1_10  and  O1S_52 
REMARK       I    between atoms: S1_10  and  O2S_17 
REMARK       I    between atoms: S1_10  and  O3S_80 
REMARK       I    between atoms: C5_12  and  C6_73 
REMARK       I    between atoms: S1_13  and  N_25 
REMARK       I    between atoms: S1_13  and  O1S_58 
REMARK       I    between atoms: S1_13  and  O2S_66 
REMARK       I    between atoms: S1_13  and  O3S_62 
REMARK       I    between atoms: S2_15  and  O6_41 
REMARK       I    between atoms: C3_16  and  O3_48 
REMARK       I    between atoms: C2_18  and  N_87 
REMARK       I    between atoms: C1_19  and  O4_39 
REMARK       I    between atoms: C3_20  and  O3_27 
REMARK       I    between atoms: C1_24  and  O1_84 
REMARK       I    between atoms: N_25  and  C2_78 
REMARK       I    between atoms: O4_28  and  C4_30 
REMARK       I    between atoms: O4_28  and  C1_86 
REMARK       I    between atoms: C2_34  and  O2_59 
REMARK       I    between atoms: O3_35  and  C3_60 
REMARK       I    between atoms: C5_37  and  C6_81 
REMARK       I    between atoms: O4_39  and  C4_79 
REMARK       I    between atoms: O4_40  and  C4_77 
REMARK       I    between atoms: O4_40  and  C1_61 
REMARK       I    between atoms: O6_41  and  C6_57 
REMARK       I    between atoms: O6_45  and  C6_81 
REMARK       I    between atoms: O6_45  and  S2_83 
REMARK       I    between atoms: C3_46  and  O3_72 
REMARK       I    between atoms: C5_50  and  C6_57 
REMARK       I    between atoms: O2_59  and  S_69 
REMARK       I    between atoms: O6_63  and  C6_64 
REMARK       I    between atoms: O6_63  and  S2_70 
REMARK       I    between atoms: C5_67  and  C6_88 
REMARK       I    between atoms: S_71  and  O2_89 
REMARK       I    between atoms: O4_75  and  C4_82 
REMARK       I    between atoms: C2_85  and  O2_89 
ROOT
ATOM      1  C5  SGN d 401      -8.155  -4.194  47.472  0.00  0.00     0.091 C 
ATOM      2  S1  SGN d 401     -13.503  -5.707  48.420  0.00  0.00     0.156 S 
ATOM      3  C3  SGN d 401     -10.495  -3.913  46.566  0.00  0.00     0.083 C 
ATOM      4  C2  SGN d 401     -10.954  -4.862  47.693  0.00  0.00     0.081 C 
ATOM      5  O1S SGN d 401     -13.001  -5.349  49.733  0.00  0.00    -0.296 OA
ATOM      6  C1  SGN d 401      -9.797  -5.832  47.984  0.00  0.00     0.147 C 
ATOM      7  O2S SGN d 401     -14.500  -4.778  47.960  0.00  0.00    -0.296 OA
ATOM      8  O4  SGN d 401      -8.729  -2.463  45.882  0.00  0.00    -0.348 OA
ATOM      9  O4S SGN d 401      -6.216  -0.870  49.294  0.00  0.00    -0.572 OA
ATOM     10  O3S SGN d 401     -13.955  -7.081  48.365  0.00  0.00    -0.296 OA
ATOM     11  O3  SGN d 401     -11.496  -2.945  46.315  0.00  0.00    -0.391 OA
ATOM     12  O5  SGN d 401      -8.671  -5.130  48.418  0.00  0.00    -0.350 OA
ATOM     13  O6S SGN d 401      -6.062  -2.478  51.084  0.00  0.00    -0.572 OA
ATOM     14  O6  SGN d 401      -7.577  -2.833  49.268  0.00  0.00    -0.254 OA
ATOM     15  C6  SGN d 401      -6.996  -3.522  48.194  0.00  0.00     0.067 C 
ATOM     16  S2  SGN d 401      -6.923  -1.756  50.162  0.00  0.00     0.251 S 
ATOM     17  O5S SGN d 401      -8.032  -1.104  50.805  0.00  0.00    -0.572 OA
ATOM     18  C4  SGN d 401      -9.227  -3.168  46.993  0.00  0.00     0.095 C 
ATOM     19  O1  SGN d 401      -9.454  -6.586  46.808  0.00  0.00    -0.369 OA
ATOM     20  N   SGN d 401     -12.210  -5.612  47.338  0.00  0.00    -0.210 NA
ATOM     21  H   SGN d 401      -7.843  -4.677  46.569  0.00  0.00     0.090 H 
ATOM     22  H   SGN d 401     -10.308  -4.499  45.689  0.00  0.00     0.089 H 
ATOM     23  H   SGN d 401     -11.195  -4.288  48.563  0.00  0.00     0.076 H 
ATOM     24  H   SGN d 401     -12.709  -4.424  49.727  0.00  0.00     0.231 HD
ATOM     25  H   SGN d 401     -10.119  -6.505  48.751  0.00  0.00     0.131 H 
ATOM     26  H   SGN d 401     -14.150  -3.875  48.015  0.00  0.00     0.231 HD
ATOM     27  H   SGN d 401     -13.250  -7.666  48.685  0.00  0.00     0.231 HD
ATOM     28  H   SGN d 401     -11.651  -2.424  47.119  0.00  0.00     0.210 HD
ATOM     29  H   SGN d 401      -6.492  -2.839  47.540  0.00  0.00     0.080 H 
ATOM     30  H   SGN d 401      -6.266  -4.231  48.523  0.00  0.00     0.080 H 
ATOM     31  H   SGN d 401      -9.451  -2.493  47.792  0.00  0.00     0.091 H 
ATOM     32  H   SGN d 401      -9.161  -5.981  46.110  0.00  0.00     0.212 HD
ATOM     33  H   SGN d 401     -12.574  -5.180  46.488  0.00  0.00     0.140 HD
ATOM     34  C4  IDS d 404     -10.629   8.296  48.568  0.00  0.00     0.103 C 
ATOM     35  C5  IDS d 404     -10.076   8.105  47.159  0.00  0.00     0.152 C 
ATOM     36  O4  IDS d 404     -11.364   9.488  48.577  0.00  0.00    -0.348 OA
ATOM     37  O5  IDS d 404     -11.087   7.773  46.234  0.00  0.00    -0.340 OA
ATOM     38  C2  IDS d 404     -12.405   6.524  47.918  0.00  0.00     0.134 C 
ATOM     39  O62 IDS d 404      -8.128   9.399  46.687  0.00  0.00    -0.646 OA
ATOM     40  C3  IDS d 404     -11.527   7.118  49.032  0.00  0.00     0.094 C 
ATOM     41  O2  IDS d 404     -13.647   7.239  47.888  0.00  0.00    -0.244 OA
ATOM     42  O1S IDS d 404     -15.498   5.890  48.444  0.00  0.00    -0.572 OA
ATOM     43  O2S IDS d 404     -15.825   7.788  47.043  0.00  0.00    -0.572 OA
ATOM     44  S   IDS d 404     -15.006   6.668  47.380  0.00  0.00     0.252 S 
ATOM     45  O3  IDS d 404     -10.699   6.082  49.504  0.00  0.00    -0.390 OA
ATOM     46  C6  IDS d 404      -9.346   9.341  46.683  0.00  0.00     0.206 C 
ATOM     47  O3S IDS d 404     -14.708   5.835  46.274  0.00  0.00    -0.572 OA
ATOM     48  C1  IDS d 404     -11.752   6.534  46.508  0.00  0.00     0.161 C 
ATOM     49  O61 IDS d 404      -9.981  10.318  46.315  0.00  0.00    -0.646 OA
ATOM     50  H   IDS d 404      -9.808   8.334  49.253  0.00  0.00     0.092 H 
ATOM     51  H   IDS d 404      -9.387   7.288  47.214  0.00  0.00     0.104 H 
ATOM     52  H   IDS d 404     -12.548   5.491  48.155  0.00  0.00     0.097 H 
ATOM     53  H   IDS d 404     -12.178   7.513  49.783  0.00  0.00     0.091 H 
ATOM     54  H   IDS d 404     -10.134   5.765  48.782  0.00  0.00     0.210 HD
ATOM     55  H   IDS d 404     -12.524   6.448  45.772  0.00  0.00     0.133 H 
ATOM     56  C1  SGN d 405     -11.035  10.384  49.597  0.00  0.00     0.150 C 
ATOM     57  O6S SGN d 405      -8.075  12.476  51.362  0.00  0.00    -0.572 OA
ATOM     58  N   SGN d 405     -13.471  10.561  49.756  0.00  0.00    -0.210 NA
ATOM     59  S1  SGN d 405     -14.262  10.247  51.122  0.00  0.00     0.156 S 
ATOM     60  S2  SGN d 405      -7.339  13.502  50.629  0.00  0.00     0.251 S 
ATOM     61  O2S SGN d 405     -14.052  11.396  51.968  0.00  0.00    -0.296 OA
ATOM     62  C3  SGN d 405     -12.240  12.492  48.867  0.00  0.00     0.083 C 
ATOM     63  O5  SGN d 405      -9.787  11.083  49.384  0.00  0.00    -0.349 OA
ATOM     64  O3  SGN d 405     -13.266  13.394  49.238  0.00  0.00    -0.391 OA
ATOM     65  O6  SGN d 405      -8.108  13.740  49.247  0.00  0.00    -0.254 OA
ATOM     66  O5S SGN d 405      -7.325  14.781  51.298  0.00  0.00    -0.572 OA
ATOM     67  C5  SGN d 405      -9.850  12.199  48.454  0.00  0.00     0.090 C 
ATOM     68  O4S SGN d 405      -6.028  13.073  50.296  0.00  0.00    -0.572 OA
ATOM     69  O1S SGN d 405     -13.664   9.049  51.653  0.00  0.00    -0.296 OA
ATOM     70  C2  SGN d 405     -12.227  11.321  49.844  0.00  0.00     0.081 C 
ATOM     71  C6  SGN d 405      -8.424  12.779  48.248  0.00  0.00     0.067 C 
ATOM     72  O4  SGN d 405     -10.892  14.369  48.145  0.00  0.00    -0.390 OA
ATOM     73  O3S SGN d 405     -15.633  10.026  50.800  0.00  0.00    -0.296 OA
ATOM     74  C4  SGN d 405     -10.877  13.203  48.964  0.00  0.00     0.089 C 
ATOM     75  H   SGN d 405     -10.850   9.822  50.489  0.00  0.00     0.131 H 
ATOM     76  H   SGN d 405     -13.250   9.665  49.321  0.00  0.00     0.140 HD
ATOM     77  H   SGN d 405     -13.105  11.494  52.152  0.00  0.00     0.231 HD
ATOM     78  H   SGN d 405     -12.415  12.150  47.868  0.00  0.00     0.089 H 
ATOM     79  H   SGN d 405     -13.110  13.706  50.143  0.00  0.00     0.210 HD
ATOM     80  H   SGN d 405     -10.181  11.895  47.483  0.00  0.00     0.090 H 
ATOM     81  H   SGN d 405     -12.733   9.218  51.866  0.00  0.00     0.231 HD
ATOM     82  H   SGN d 405     -12.131  11.733  50.827  0.00  0.00     0.076 H 
ATOM     83  H   SGN d 405      -7.713  11.981  48.294  0.00  0.00     0.080 H 
ATOM     84  H   SGN d 405      -8.390  13.260  47.293  0.00  0.00     0.080 H 
ATOM     85  H   SGN d 405     -11.551  14.994  48.485  0.00  0.00     0.210 HD
ATOM     86  H   SGN d 405     -15.710   9.244  50.232  0.00  0.00     0.231 HD
ATOM     87  H   SGN d 405     -10.650  13.512  49.962  0.00  0.00     0.091 H 
ATOM     88  O5S SGN d 403     -14.290   5.123  41.226  0.00  0.00    -0.572 OA
ATOM     89  C3  SGN d 403      -9.061   4.681  45.111  0.00  0.00     0.083 C 
ATOM     90  O5  SGN d 403     -10.849   3.135  43.554  0.00  0.00    -0.349 OA
ATOM     91  S1  SGN d 403      -6.486   4.213  42.334  0.00  0.00     0.156 S 
ATOM     92  O3  SGN d 403      -8.345   5.857  45.342  0.00  0.00    -0.391 OA
ATOM     93  O4S SGN d 403     -13.586   6.792  42.847  0.00  0.00    -0.572 OA
ATOM     94  N   SGN d 403      -7.258   3.791  43.686  0.00  0.00    -0.210 NA
ATOM     95  O4  SGN d 403     -10.890   5.432  46.382  0.00  0.00    -0.348 OA
ATOM     96  O6S SGN d 403     -15.349   5.274  43.334  0.00  0.00    -0.572 OA
ATOM     97  C4  SGN d 403     -10.542   5.022  45.092  0.00  0.00     0.095 C 
ATOM     98  C5  SGN d 403     -11.336   3.744  44.732  0.00  0.00     0.091 C 
ATOM     99  O6  SGN d 403     -13.023   4.473  43.146  0.00  0.00    -0.254 OA
ATOM    100  O1S SGN d 403      -7.437   4.104  41.257  0.00  0.00    -0.296 OA
ATOM    101  C1  SGN d 403      -9.459   2.840  43.535  0.00  0.00     0.150 C 
ATOM    102  O3S SGN d 403      -5.429   3.274  42.170  0.00  0.00    -0.296 OA
ATOM    103  O2S SGN d 403      -6.048   5.578  42.556  0.00  0.00    -0.296 OA
ATOM    104  C2  SGN d 403      -8.670   4.099  43.774  0.00  0.00     0.081 C 
ATOM    105  C6  SGN d 403     -12.843   3.967  44.464  0.00  0.00     0.067 C 
ATOM    106  S2  SGN d 403     -14.141   5.466  42.613  0.00  0.00     0.251 S 
ATOM    107  H   SGN d 403      -8.848   3.967  45.880  0.00  0.00     0.089 H 
ATOM    108  H   SGN d 403      -8.544   6.498  44.642  0.00  0.00     0.210 HD
ATOM    109  H   SGN d 403      -6.793   4.263  44.463  0.00  0.00     0.140 HD
ATOM    110  H   SGN d 403     -10.757   5.790  44.378  0.00  0.00     0.091 H 
ATOM    111  H   SGN d 403     -11.206   3.136  45.602  0.00  0.00     0.090 H 
ATOM    112  H   SGN d 403      -8.149   4.751  41.386  0.00  0.00     0.231 HD
ATOM    113  H   SGN d 403      -9.248   2.433  42.567  0.00  0.00     0.131 H 
ATOM    114  H   SGN d 403      -5.802   2.390  42.026  0.00  0.00     0.231 HD
ATOM    115  H   SGN d 403      -6.822   6.153  42.656  0.00  0.00     0.231 HD
ATOM    116  H   SGN d 403      -8.885   4.840  43.032  0.00  0.00     0.076 H 
ATOM    117  H   SGN d 403     -13.230   4.670  45.171  0.00  0.00     0.080 H 
ATOM    118  H   SGN d 403     -13.364   3.038  44.562  0.00  0.00     0.080 H 
ATOM    119  O62 IDS d 402     -12.443   0.565  45.715  0.00  0.00    -0.646 OA
ATOM    120  C1  IDS d 402      -8.161  -1.198  46.133  0.00  0.00     0.161 C 
ATOM    121  O3S IDS d 402      -4.800  -0.957  46.105  0.00  0.00    -0.572 OA
ATOM    122  O3  IDS d 402      -8.815  -1.409  43.118  0.00  0.00    -0.390 OA
ATOM    123  O5  IDS d 402      -9.129  -0.246  46.496  0.00  0.00    -0.340 OA
ATOM    124  O4  IDS d 402      -9.082   1.873  44.475  0.00  0.00    -0.348 OA
ATOM    125  O61 IDS d 402     -11.129   1.604  47.018  0.00  0.00    -0.646 OA
ATOM    126  O1S IDS d 402      -4.375   0.768  44.500  0.00  0.00    -0.572 OA
ATOM    127  O2S IDS d 402      -5.025   1.335  46.709  0.00  0.00    -0.572 OA
ATOM    128  C3  IDS d 402      -8.321  -0.256  43.747  0.00  0.00     0.094 C 
ATOM    129  C5  IDS d 402     -10.128  -0.033  45.506  0.00  0.00     0.152 C 
ATOM    130  S   IDS d 402      -5.113   0.384  45.673  0.00  0.00     0.252 S 
ATOM    131  C4  IDS d 402      -9.511   0.568  44.221  0.00  0.00     0.103 C 
ATOM    132  C2  IDS d 402      -7.406  -0.702  44.901  0.00  0.00     0.134 C 
ATOM    133  C6  IDS d 402     -11.307   0.756  46.118  0.00  0.00     0.206 C 
ATOM    134  O2  IDS d 402      -6.615   0.397  45.260  0.00  0.00    -0.244 OA
ATOM    135  H   IDS d 402      -7.486  -1.315  46.955  0.00  0.00     0.133 H 
ATOM    136  H   IDS d 402      -8.074  -1.951  42.807  0.00  0.00     0.210 HD
ATOM    137  H   IDS d 402      -7.741   0.356  43.089  0.00  0.00     0.091 H 
ATOM    138  H   IDS d 402     -10.547  -0.962  45.180  0.00  0.00     0.104 H 
ATOM    139  H   IDS d 402     -10.262   0.564  43.459  0.00  0.00     0.092 H 
ATOM    140  H   IDS d 402      -6.826  -1.532  44.555  0.00  0.00     0.097 H 
ENDROOT
TORSDOF 45
ENDMDL
MODEL 4
REMARK VINA RESULT:      -9.2      3.912      6.019
REMARK  0 active torsions:
REMARK  status: ('A' for Active; 'I' for Inactive)
REMARK       I    between atoms: C5_1  and  C6_64 
REMARK       I    between atoms: C4_2  and  O4_32 
REMARK       I    between atoms: C1_3  and  O4_32 
REMARK       I    between atoms: S1_6  and  N_87 
REMARK       I    between atoms: S1_6  and  O1S_23 
REMARK       I    between atoms: S1_6  and  O2S_31 
REMARK       I    between atoms: S1_6  and  O3S_47 
REMARK       I    between atoms: N_7  and  C2_53 
REMARK       I    between atoms: N_7  and  S1_10 
REMARK       I    between atoms: C3_9  and  O3_14 
REMARK       I    between atoms: S1_10  and  O1S_52 
REMARK       I    between atoms: S1_10  and  O2S_17 
REMARK       I    between atoms: S1_10  and  O3S_80 
REMARK       I    between atoms: C5_12  and  C6_73 
REMARK       I    between atoms: S1_13  and  N_25 
REMARK       I    between atoms: S1_13  and  O1S_58 
REMARK       I    between atoms: S1_13  and  O2S_66 
REMARK       I    between atoms: S1_13  and  O3S_62 
REMARK       I    between atoms: S2_15  and  O6_41 
REMARK       I    between atoms: C3_16  and  O3_48 
REMARK       I    between atoms: C2_18  and  N_87 
REMARK       I    between atoms: C1_19  and  O4_39 
REMARK       I    between atoms: C3_20  and  O3_27 
REMARK       I    between atoms: C1_24  and  O1_84 
REMARK       I    between atoms: N_25  and  C2_78 
REMARK       I    between atoms: O4_28  and  C4_30 
REMARK       I    between atoms: O4_28  and  C1_86 
REMARK       I    between atoms: C2_34  and  O2_59 
REMARK       I    between atoms: O3_35  and  C3_60 
REMARK       I    between atoms: C5_37  and  C6_81 
REMARK       I    between atoms: O4_39  and  C4_79 
REMARK       I    between atoms: O4_40  and  C4_77 
REMARK       I    between atoms: O4_40  and  C1_61 
REMARK       I    between atoms: O6_41  and  C6_57 
REMARK       I    between atoms: O6_45  and  C6_81 
REMARK       I    between atoms: O6_45  and  S2_83 
REMARK       I    between atoms: C3_46  and  O3_72 
REMARK       I    between atoms: C5_50  and  C6_57 
REMARK       I    between atoms: O2_59  and  S_69 
REMARK       I    between atoms: O6_63  and  C6_64 
REMARK       I    between atoms: O6_63  and  S2_70 
REMARK       I    between atoms: C5_67  and  C6_88 
REMARK       I    between atoms: S_71  and  O2_89 
REMARK       I    between atoms: O4_75  and  C4_82 
REMARK       I    between atoms: C2_85  and  O2_89 
ROOT
ATOM      1  C5  SGN d 401      -8.746  -3.912  47.353  0.00  0.00     0.091 C 
ATOM      2  S1  SGN d 401     -14.239  -4.756  48.306  0.00  0.00     0.156 S 
ATOM      3  C3  SGN d 401     -11.036  -3.295  46.487  0.00  0.00     0.083 C 
ATOM      4  C2  SGN d 401     -11.607  -4.221  47.583  0.00  0.00     0.081 C 
ATOM      5  O1S SGN d 401     -13.686  -4.518  49.626  0.00  0.00    -0.296 OA
ATOM      6  C1  SGN d 401     -10.583  -5.343  47.822  0.00  0.00     0.147 C 
ATOM      7  O2S SGN d 401     -15.110  -3.688  47.894  0.00  0.00    -0.296 OA
ATOM      8  O4  SGN d 401      -9.101  -2.060  45.838  0.00  0.00    -0.348 OA
ATOM      9  O4S SGN d 401      -6.380  -0.941  49.278  0.00  0.00    -0.572 OA
ATOM     10  O3S SGN d 401     -14.866  -6.057  48.205  0.00  0.00    -0.296 OA
ATOM     11  O3  SGN d 401     -11.905  -2.196  46.285  0.00  0.00    -0.391 OA
ATOM     12  O5  SGN d 401      -9.373  -4.809  48.269  0.00  0.00    -0.350 OA
ATOM     13  O6S SGN d 401      -6.424  -2.624  51.003  0.00  0.00    -0.572 OA
ATOM     14  O6  SGN d 401      -7.985  -2.709  49.194  0.00  0.00    -0.254 OA
ATOM     15  C6  SGN d 401      -7.505  -3.424  48.087  0.00  0.00     0.067 C 
ATOM     16  S2  SGN d 401      -7.190  -1.761  50.120  0.00  0.00     0.251 S 
ATOM     17  O5S SGN d 401      -8.201  -0.997  50.800  0.00  0.00    -0.572 OA
ATOM     18  C4  SGN d 401      -9.679  -2.738  46.927  0.00  0.00     0.095 C 
ATOM     19  O1  SGN d 401     -10.349  -6.088  46.615  0.00  0.00    -0.369 OA
ATOM     20  N   SGN d 401     -12.952  -4.786  47.213  0.00  0.00    -0.210 NA
ATOM     21  H   SGN d 401      -8.506  -4.396  46.430  0.00  0.00     0.090 H 
ATOM     22  H   SGN d 401     -10.933  -3.865  45.587  0.00  0.00     0.089 H 
ATOM     23  H   SGN d 401     -11.766  -3.654  48.476  0.00  0.00     0.076 H 
ATOM     24  H   SGN d 401     -13.277  -3.639  49.652  0.00  0.00     0.231 HD
ATOM     25  H   SGN d 401     -10.985  -5.998  48.567  0.00  0.00     0.131 H 
ATOM     26  H   SGN d 401     -14.646  -2.841  47.980  0.00  0.00     0.231 HD
ATOM     27  H   SGN d 401     -14.241  -6.741  48.493  0.00  0.00     0.231 HD
ATOM     28  H   SGN d 401     -11.986  -1.692  47.110  0.00  0.00     0.210 HD
ATOM     29  H   SGN d 401      -6.922  -2.788  47.454  0.00  0.00     0.080 H 
ATOM     30  H   SGN d 401      -6.871  -4.235  48.380  0.00  0.00     0.080 H 
ATOM     31  H   SGN d 401      -9.809  -2.072  47.754  0.00  0.00     0.091 H 
ATOM     32  H   SGN d 401      -9.985  -5.498  45.937  0.00  0.00     0.212 HD
ATOM     33  H   SGN d 401     -13.263  -4.278  46.385  0.00  0.00     0.140 HD
ATOM     34  C4  IDS d 404      -9.570   8.741  48.954  0.00  0.00     0.103 C 
ATOM     35  C5  IDS d 404      -9.057   8.535  47.533  0.00  0.00     0.152 C 
ATOM     36  O4  IDS d 404     -10.144  10.016  49.017  0.00  0.00    -0.348 OA
ATOM     37  O5  IDS d 404     -10.109   8.373  46.608  0.00  0.00    -0.340 OA
ATOM     38  C2  IDS d 404     -11.566   7.240  48.259  0.00  0.00     0.134 C 
ATOM     39  O62 IDS d 404      -6.961   9.583  47.087  0.00  0.00    -0.646 OA
ATOM     40  C3  IDS d 404     -10.611   7.671  49.384  0.00  0.00     0.094 C 
ATOM     41  O2  IDS d 404     -12.705   8.110  48.270  0.00  0.00    -0.244 OA
ATOM     42  O1S IDS d 404     -14.712   6.992  48.796  0.00  0.00    -0.572 OA
ATOM     43  O2S IDS d 404     -14.799   8.970  47.472  0.00  0.00    -0.572 OA
ATOM     44  S   IDS d 404     -14.130   7.741  47.757  0.00  0.00     0.252 S 
ATOM     45  O3  IDS d 404      -9.921   6.519  49.806  0.00  0.00    -0.390 OA
ATOM     46  C6  IDS d 404      -8.176   9.683  47.095  0.00  0.00     0.206 C 
ATOM     47  O3S IDS d 404     -13.950   6.920  46.616  0.00  0.00    -0.572 OA
ATOM     48  C1  IDS d 404     -10.927   7.221  46.842  0.00  0.00     0.161 C 
ATOM     49  O61 IDS d 404      -8.681  10.749  46.773  0.00  0.00    -0.646 OA
ATOM     50  H   IDS d 404      -8.747   8.644  49.630  0.00  0.00     0.092 H 
ATOM     51  H   IDS d 404      -8.479   7.634  47.548  0.00  0.00     0.104 H 
ATOM     52  H   IDS d 404     -11.841   6.226  48.457  0.00  0.00     0.097 H 
ATOM     53  H   IDS d 404     -11.200   8.117  50.157  0.00  0.00     0.091 H 
ATOM     54  H   IDS d 404      -9.407   6.160  49.066  0.00  0.00     0.210 HD
ATOM     55  H   IDS d 404     -11.708   7.264  46.113  0.00  0.00     0.133 H 
ATOM     56  C1  SGN d 405      -9.695  10.821  50.067  0.00  0.00     0.150 C 
ATOM     57  O6S SGN d 405      -6.477  12.442  51.875  0.00  0.00    -0.572 OA
ATOM     58  N   SGN d 405     -12.087  11.306  50.262  0.00  0.00    -0.210 NA
ATOM     59  S1  SGN d 405     -12.902  11.043  51.624  0.00  0.00     0.156 S 
ATOM     60  S2  SGN d 405      -5.619  13.392  51.173  0.00  0.00     0.251 S 
ATOM     61  O2S SGN d 405     -12.540  12.122  52.511  0.00  0.00    -0.296 OA
ATOM     62  C3  SGN d 405     -10.622  13.095  49.432  0.00  0.00     0.083 C 
ATOM     63  O5  SGN d 405      -8.369  11.360  49.866  0.00  0.00    -0.349 OA
ATOM     64  O3  SGN d 405     -11.519  14.107  49.849  0.00  0.00    -0.391 OA
ATOM     65  O6  SGN d 405      -6.360  13.781  49.811  0.00  0.00    -0.254 OA
ATOM     66  O5S SGN d 405      -5.434  14.630  51.890  0.00  0.00    -0.572 OA
ATOM     67  C5  SGN d 405      -8.292  12.511  48.980  0.00  0.00     0.090 C 
ATOM     68  O4S SGN d 405      -4.377  12.810  50.808  0.00  0.00    -0.572 OA
ATOM     69  O1S SGN d 405     -12.462   9.758  52.101  0.00  0.00    -0.296 OA
ATOM     70  C2  SGN d 405     -10.754  11.894  50.364  0.00  0.00     0.081 C 
ATOM     71  C6  SGN d 405      -6.805  12.909  48.779  0.00  0.00     0.067 C 
ATOM     72  O4  SGN d 405      -9.046  14.808  48.766  0.00  0.00    -0.390 OA
ATOM     73  O3S SGN d 405     -14.292  11.015  51.310  0.00  0.00    -0.296 OA
ATOM     74  C4  SGN d 405      -9.177  13.618  49.540  0.00  0.00     0.089 C 
ATOM     75  H   SGN d 405      -9.579  10.205  50.935  0.00  0.00     0.131 H 
ATOM     76  H   SGN d 405     -11.986  10.407  49.790  0.00  0.00     0.140 HD
ATOM     77  H   SGN d 405     -11.586  12.089  52.687  0.00  0.00     0.231 HD
ATOM     78  H   SGN d 405     -10.846  12.818  48.423  0.00  0.00     0.089 H 
ATOM     79  H   SGN d 405     -11.318  14.360  50.764  0.00  0.00     0.210 HD
ATOM     80  H   SGN d 405      -8.667  12.291  48.002  0.00  0.00     0.090 H 
ATOM     81  H   SGN d 405     -11.515   9.797  52.309  0.00  0.00     0.231 HD
ATOM     82  H   SGN d 405     -10.599  12.251  51.360  0.00  0.00     0.076 H 
ATOM     83  H   SGN d 405      -6.203  12.024  48.786  0.00  0.00     0.080 H 
ATOM     84  H   SGN d 405      -6.715  13.419  47.843  0.00  0.00     0.080 H 
ATOM     85  H   SGN d 405      -9.616  15.499  49.137  0.00  0.00     0.210 HD
ATOM     86  H   SGN d 405     -14.475  10.272  50.713  0.00  0.00     0.231 HD
ATOM     87  H   SGN d 405      -8.905  13.856  50.547  0.00  0.00     0.091 H 
ATOM     88  O5S SGN d 403     -13.663   6.359  41.540  0.00  0.00    -0.572 OA
ATOM     89  C3  SGN d 403      -8.508   5.091  45.344  0.00  0.00     0.083 C 
ATOM     90  O5  SGN d 403     -10.492   3.853  43.750  0.00  0.00    -0.349 OA
ATOM     91  S1  SGN d 403      -6.035   4.404  42.520  0.00  0.00     0.156 S 
ATOM     92  O3  SGN d 403      -7.645   6.155  45.611  0.00  0.00    -0.391 OA
ATOM     93  O4S SGN d 403     -12.737   7.858  43.215  0.00  0.00    -0.572 OA
ATOM     94  N   SGN d 403      -6.846   4.033  43.865  0.00  0.00    -0.210 NA
ATOM     95  O4  SGN d 403     -10.216   6.023  46.664  0.00  0.00    -0.348 OA
ATOM     96  O6S SGN d 403     -14.679   6.563  43.665  0.00  0.00    -0.572 OA
ATOM     97  C4  SGN d 403      -9.933   5.622  45.355  0.00  0.00     0.095 C 
ATOM     98  C5  SGN d 403     -10.889   4.472  44.956  0.00  0.00     0.091 C 
ATOM     99  O6  SGN d 403     -12.478   5.476  43.420  0.00  0.00    -0.254 OA
ATOM    100  O1S SGN d 403      -7.000   4.461  41.451  0.00  0.00    -0.296 OA
ATOM    101  C1  SGN d 403      -9.153   3.381  43.703  0.00  0.00     0.150 C 
ATOM    102  O3S SGN d 403      -5.111   3.343  42.308  0.00  0.00    -0.296 OA
ATOM    103  O2S SGN d 403      -5.422   5.691  42.789  0.00  0.00    -0.296 OA
ATOM    104  C2  SGN d 403      -8.206   4.517  43.981  0.00  0.00     0.081 C 
ATOM    105  C6  SGN d 403     -12.356   4.899  44.714  0.00  0.00     0.067 C 
ATOM    106  S2  SGN d 403     -13.460   6.625  42.938  0.00  0.00     0.251 S 
ATOM    107  H   SGN d 403      -8.385   4.326  46.082  0.00  0.00     0.089 H 
ATOM    108  H   SGN d 403      -7.763   6.843  44.938  0.00  0.00     0.210 HD
ATOM    109  H   SGN d 403      -6.319   4.409  44.653  0.00  0.00     0.140 HD
ATOM    110  H   SGN d 403     -10.052   6.438  44.674  0.00  0.00     0.091 H 
ATOM    111  H   SGN d 403     -10.833   3.819  45.801  0.00  0.00     0.090 H 
ATOM    112  H   SGN d 403      -7.620   5.189  41.614  0.00  0.00     0.231 HD
ATOM    113  H   SGN d 403      -9.003   2.989  42.719  0.00  0.00     0.131 H 
ATOM    114  H   SGN d 403      -5.596   2.521  42.136  0.00  0.00     0.231 HD
ATOM    115  H   SGN d 403      -6.115   6.357  42.921  0.00  0.00     0.231 HD
ATOM    116  H   SGN d 403      -8.328   5.308  43.270  0.00  0.00     0.076 H 
ATOM    117  H   SGN d 403     -12.644   5.618  45.452  0.00  0.00     0.080 H 
ATOM    118  H   SGN d 403     -12.992   4.042  44.783  0.00  0.00     0.080 H 
ATOM    119  O62 IDS d 402     -12.393   1.427  45.831  0.00  0.00    -0.646 OA
ATOM    120  C1  IDS d 402      -8.373  -0.890  46.130  0.00  0.00     0.161 C 
ATOM    121  O3S IDS d 402      -5.009  -1.085  46.071  0.00  0.00    -0.572 OA
ATOM    122  O3  IDS d 402      -9.069  -0.896  43.118  0.00  0.00    -0.390 OA
ATOM    123  O5  IDS d 402      -9.206   0.164  46.541  0.00  0.00    -0.340 OA
ATOM    124  O4  IDS d 402      -8.898   2.337  44.601  0.00  0.00    -0.348 OA
ATOM    125  O61 IDS d 402     -10.946   2.236  47.157  0.00  0.00    -0.646 OA
ATOM    126  O1S IDS d 402      -4.375   0.632  44.528  0.00  0.00    -0.572 OA
ATOM    127  O2S IDS d 402      -4.931   1.191  46.765  0.00  0.00    -0.572 OA
ATOM    128  C3  IDS d 402      -8.425   0.157  43.784  0.00  0.00     0.094 C 
ATOM    129  C5  IDS d 402     -10.176   0.543  45.571  0.00  0.00     0.152 C 
ATOM    130  S   IDS d 402      -5.148   0.300  45.695  0.00  0.00     0.252 S 
ATOM    131  C4  IDS d 402      -9.495   1.110  44.303  0.00  0.00     0.103 C 
ATOM    132  C2  IDS d 402      -7.568  -0.448  44.909  0.00  0.00     0.134 C 
ATOM    133  C6  IDS d 402     -11.238   1.454  46.227  0.00  0.00     0.206 C 
ATOM    134  O2  IDS d 402      -6.639   0.524  45.300  0.00  0.00    -0.244 OA
ATOM    135  H   IDS d 402      -7.713  -1.126  46.939  0.00  0.00     0.133 H 
ATOM    136  H   IDS d 402      -8.406  -1.517  42.777  0.00  0.00     0.210 HD
ATOM    137  H   IDS d 402      -7.775   0.715  43.142  0.00  0.00     0.091 H 
ATOM    138  H   IDS d 402     -10.714  -0.310  45.215  0.00  0.00     0.104 H 
ATOM    139  H   IDS d 402     -10.246   1.233  43.550  0.00  0.00     0.092 H 
ATOM    140  H   IDS d 402      -7.103  -1.332  44.525  0.00  0.00     0.097 H 
ENDROOT
TORSDOF 45
ENDMDL
MODEL 5
REMARK VINA RESULT:      -9.1      3.836      6.497
REMARK  0 active torsions:
REMARK  status: ('A' for Active; 'I' for Inactive)
REMARK       I    between atoms: C5_1  and  C6_64 
REMARK       I    between atoms: C4_2  and  O4_32 
REMARK       I    between atoms: C1_3  and  O4_32 
REMARK       I    between atoms: S1_6  and  N_87 
REMARK       I    between atoms: S1_6  and  O1S_23 
REMARK       I    between atoms: S1_6  and  O2S_31 
REMARK       I    between atoms: S1_6  and  O3S_47 
REMARK       I    between atoms: N_7  and  C2_53 
REMARK       I    between atoms: N_7  and  S1_10 
REMARK       I    between atoms: C3_9  and  O3_14 
REMARK       I    between atoms: S1_10  and  O1S_52 
REMARK       I    between atoms: S1_10  and  O2S_17 
REMARK       I    between atoms: S1_10  and  O3S_80 
REMARK       I    between atoms: C5_12  and  C6_73 
REMARK       I    between atoms: S1_13  and  N_25 
REMARK       I    between atoms: S1_13  and  O1S_58 
REMARK       I    between atoms: S1_13  and  O2S_66 
REMARK       I    between atoms: S1_13  and  O3S_62 
REMARK       I    between atoms: S2_15  and  O6_41 
REMARK       I    between atoms: C3_16  and  O3_48 
REMARK       I    between atoms: C2_18  and  N_87 
REMARK       I    between atoms: C1_19  and  O4_39 
REMARK       I    between atoms: C3_20  and  O3_27 
REMARK       I    between atoms: C1_24  and  O1_84 
REMARK       I    between atoms: N_25  and  C2_78 
REMARK       I    between atoms: O4_28  and  C4_30 
REMARK       I    between atoms: O4_28  and  C1_86 
REMARK       I    between atoms: C2_34  and  O2_59 
REMARK       I    between atoms: O3_35  and  C3_60 
REMARK       I    between atoms: C5_37  and  C6_81 
REMARK       I    between atoms: O4_39  and  C4_79 
REMARK       I    between atoms: O4_40  and  C4_77 
REMARK       I    between atoms: O4_40  and  C1_61 
REMARK       I    between atoms: O6_41  and  C6_57 
REMARK       I    between atoms: O6_45  and  C6_81 
REMARK       I    between atoms: O6_45  and  S2_83 
REMARK       I    between atoms: C3_46  and  O3_72 
REMARK       I    between atoms: C5_50  and  C6_57 
REMARK       I    between atoms: O2_59  and  S_69 
REMARK       I    between atoms: O6_63  and  C6_64 
REMARK       I    between atoms: O6_63  and  S2_70 
REMARK       I    between atoms: C5_67  and  C6_88 
REMARK       I    between atoms: S_71  and  O2_89 
REMARK       I    between atoms: O4_75  and  C4_82 
REMARK       I    between atoms: C2_85  and  O2_89 
ROOT
ATOM      1  C5  SGN d 401      -8.719  -5.613  47.330  0.00  0.00     0.091 C 
ATOM      2  S1  SGN d 401     -14.216  -6.781  47.782  0.00  0.00     0.156 S 
ATOM      3  C3  SGN d 401     -10.941  -5.201  46.206  0.00  0.00     0.083 C 
ATOM      4  C2  SGN d 401     -11.562  -6.104  47.293  0.00  0.00     0.081 C 
ATOM      5  O1S SGN d 401     -13.817  -6.437  49.134  0.00  0.00    -0.296 OA
ATOM      6  C1  SGN d 401     -10.500  -7.140  47.698  0.00  0.00     0.147 C 
ATOM      7  O2S SGN d 401     -15.105  -5.799  47.224  0.00  0.00    -0.296 OA
ATOM      8  O4  SGN d 401      -9.032  -3.871  45.681  0.00  0.00    -0.348 OA
ATOM      9  O4S SGN d 401      -6.755  -2.390  49.302  0.00  0.00    -0.572 OA
ATOM     10  O3S SGN d 401     -14.746  -8.125  47.696  0.00  0.00    -0.296 OA
ATOM     11  O3  SGN d 401     -11.852  -4.176  45.855  0.00  0.00    -0.391 OA
ATOM     12  O5  SGN d 401      -9.379  -6.502  48.231  0.00  0.00    -0.350 OA
ATOM     13  O6S SGN d 401      -6.869  -3.980  51.110  0.00  0.00    -0.572 OA
ATOM     14  O6  SGN d 401      -8.227  -4.266  49.163  0.00  0.00    -0.254 OA
ATOM     15  C6  SGN d 401      -7.592  -5.003  48.153  0.00  0.00     0.067 C 
ATOM     16  S2  SGN d 401      -7.594  -3.219  50.106  0.00  0.00     0.251 S 
ATOM     17  O5S SGN d 401      -8.715  -2.491  50.636  0.00  0.00    -0.572 OA
ATOM     18  C4  SGN d 401      -9.675  -4.529  46.745  0.00  0.00     0.095 C 
ATOM     19  O1  SGN d 401     -10.097  -7.929  46.566  0.00  0.00    -0.369 OA
ATOM     20  N   SGN d 401     -12.824  -6.780  46.826  0.00  0.00    -0.210 NA
ATOM     21  H   SGN d 401      -8.354  -6.126  46.465  0.00  0.00     0.090 H 
ATOM     22  H   SGN d 401     -10.711  -5.809  45.356  0.00  0.00     0.089 H 
ATOM     23  H   SGN d 401     -11.847  -5.505  48.131  0.00  0.00     0.076 H 
ATOM     24  H   SGN d 401     -13.469  -5.532  49.149  0.00  0.00     0.231 HD
ATOM     25  H   SGN d 401     -10.934  -7.781  48.437  0.00  0.00     0.131 H 
ATOM     26  H   SGN d 401     -14.707  -4.918  47.305  0.00  0.00     0.231 HD
ATOM     27  H   SGN d 401     -14.112  -8.748  48.085  0.00  0.00     0.231 HD
ATOM     28  H   SGN d 401     -12.049  -3.636  46.637  0.00  0.00     0.210 HD
ATOM     29  H   SGN d 401      -6.988  -4.362  47.545  0.00  0.00     0.080 H 
ATOM     30  H   SGN d 401      -6.942  -5.752  48.555  0.00  0.00     0.080 H 
ATOM     31  H   SGN d 401      -9.930  -3.831  47.514  0.00  0.00     0.091 H 
ATOM     32  H   SGN d 401      -9.702  -7.352  45.894  0.00  0.00     0.212 HD
ATOM     33  H   SGN d 401     -13.079  -6.338  45.942  0.00  0.00     0.140 HD
ATOM     34  C4  IDS d 404     -10.498   7.020  48.095  0.00  0.00     0.103 C 
ATOM     35  C5  IDS d 404      -9.829   6.776  46.745  0.00  0.00     0.152 C 
ATOM     36  O4  IDS d 404     -11.155   8.254  48.025  0.00  0.00    -0.348 OA
ATOM     37  O5  IDS d 404     -10.768   6.494  45.732  0.00  0.00    -0.340 OA
ATOM     38  C2  IDS d 404     -12.313   5.352  47.294  0.00  0.00     0.134 C 
ATOM     39  O62 IDS d 404      -7.769   7.941  46.449  0.00  0.00    -0.646 OA
ATOM     40  C3  IDS d 404     -11.508   5.905  48.481  0.00  0.00     0.094 C 
ATOM     41  O2  IDS d 404     -13.500   6.141  47.141  0.00  0.00    -0.244 OA
ATOM     42  O1S IDS d 404     -15.476   4.916  47.531  0.00  0.00    -0.572 OA
ATOM     43  O2S IDS d 404     -15.551   6.812  46.091  0.00  0.00    -0.572 OA
ATOM     44  S   IDS d 404     -14.838   5.648  46.512  0.00  0.00     0.252 S 
ATOM     45  O3  IDS d 404     -10.794   4.827  49.037  0.00  0.00    -0.390 OA
ATOM     46  C6  IDS d 404      -8.982   7.958  46.330  0.00  0.00     0.206 C 
ATOM     47  O3S IDS d 404     -14.491   4.784  45.445  0.00  0.00    -0.572 OA
ATOM     48  C1  IDS d 404     -11.532   5.303  45.951  0.00  0.00     0.161 C 
ATOM     49  O61 IDS d 404      -9.518   8.967  45.898  0.00  0.00    -0.646 OA
ATOM     50  H   IDS d 404      -9.744   7.016  48.854  0.00  0.00     0.092 H 
ATOM     51  H   IDS d 404      -9.201   5.919  46.871  0.00  0.00     0.104 H 
ATOM     52  H   IDS d 404     -12.543   4.333  47.523  0.00  0.00     0.097 H 
ATOM     53  H   IDS d 404     -12.200   6.350  49.164  0.00  0.00     0.091 H 
ATOM     54  H   IDS d 404     -10.185   4.465  48.373  0.00  0.00     0.210 HD
ATOM     55  H   IDS d 404     -12.235   5.254  45.147  0.00  0.00     0.133 H 
ATOM     56  C1  SGN d 405     -10.867   9.142  49.065  0.00  0.00     0.150 C 
ATOM     57  O6S SGN d 405      -7.961  11.072  51.084  0.00  0.00    -0.572 OA
ATOM     58  N   SGN d 405     -13.292   9.471  48.993  0.00  0.00    -0.210 NA
ATOM     59  S1  SGN d 405     -14.225   9.224  50.281  0.00  0.00     0.156 S 
ATOM     60  S2  SGN d 405      -7.097  12.041  50.417  0.00  0.00     0.251 S 
ATOM     61  O2S SGN d 405     -14.024  10.370  51.134  0.00  0.00    -0.296 OA
ATOM     62  C3  SGN d 405     -11.865  11.310  48.209  0.00  0.00     0.083 C 
ATOM     63  O5  SGN d 405      -9.564   9.760  48.965  0.00  0.00    -0.349 OA
ATOM     64  O3  SGN d 405     -12.862  12.279  48.475  0.00  0.00    -0.391 OA
ATOM     65  O6  SGN d 405      -7.716  12.306  48.967  0.00  0.00    -0.254 OA
ATOM     66  O5S SGN d 405      -7.065  13.325  51.074  0.00  0.00    -0.572 OA
ATOM     67  C5  SGN d 405      -9.469  10.865  48.025  0.00  0.00     0.090 C 
ATOM     68  O4S SGN d 405      -5.789  11.527  50.211  0.00  0.00    -0.572 OA
ATOM     69  O1S SGN d 405     -13.756   7.999  50.874  0.00  0.00    -0.296 OA
ATOM     70  C2  SGN d 405     -12.017  10.153  49.192  0.00  0.00     0.081 C 
ATOM     71  C6  SGN d 405      -7.998  11.353  47.949  0.00  0.00     0.067 C 
ATOM     72  O4  SGN d 405     -10.341  13.091  47.602  0.00  0.00    -0.390 OA
ATOM     73  O3S SGN d 405     -15.571   9.084  49.833  0.00  0.00    -0.296 OA
ATOM     74  C4  SGN d 405     -10.476  11.937  48.428  0.00  0.00     0.089 C 
ATOM     75  H   SGN d 405     -10.802   8.582  49.975  0.00  0.00     0.131 H 
ATOM     76  H   SGN d 405     -13.087   8.557  48.587  0.00  0.00     0.140 HD
ATOM     77  H   SGN d 405     -13.093  10.412  51.406  0.00  0.00     0.231 HD
ATOM     78  H   SGN d 405     -11.967  10.966  47.201  0.00  0.00     0.089 H 
ATOM     79  H   SGN d 405     -12.773  12.592  49.388  0.00  0.00     0.210 HD
ATOM     80  H   SGN d 405      -9.727  10.569  47.029  0.00  0.00     0.090 H 
ATOM     81  H   SGN d 405     -12.840   8.114  51.172  0.00  0.00     0.231 HD
ATOM     82  H   SGN d 405     -11.988  10.572  50.176  0.00  0.00     0.076 H 
ATOM     83  H   SGN d 405      -7.345  10.514  48.068  0.00  0.00     0.080 H 
ATOM     84  H   SGN d 405      -7.844  11.819  46.998  0.00  0.00     0.080 H 
ATOM     85  H   SGN d 405     -10.988  13.760  47.874  0.00  0.00     0.210 HD
ATOM     86  H   SGN d 405     -15.644   8.301  49.266  0.00  0.00     0.231 HD
ATOM     87  H   SGN d 405     -10.324  12.245  49.441  0.00  0.00     0.091 H 
ATOM     88  O5S SGN d 403     -13.649   3.979  40.465  0.00  0.00    -0.572 OA
ATOM     89  C3  SGN d 403      -8.843   3.269  44.828  0.00  0.00     0.083 C 
ATOM     90  O5  SGN d 403     -10.571   1.815  43.121  0.00  0.00    -0.349 OA
ATOM     91  S1  SGN d 403      -6.054   2.606  42.309  0.00  0.00     0.156 S 
ATOM     92  O3  SGN d 403      -8.081   4.402  45.116  0.00  0.00    -0.391 OA
ATOM     93  O4S SGN d 403     -12.996   5.624  42.132  0.00  0.00    -0.572 OA
ATOM     94  N   SGN d 403      -6.974   2.251  43.586  0.00  0.00    -0.210 NA
ATOM     95  O4  SGN d 403     -10.732   4.148  45.916  0.00  0.00    -0.348 OA
ATOM     96  O6S SGN d 403     -14.889   4.224  42.463  0.00  0.00    -0.572 OA
ATOM     97  C4  SGN d 403     -10.292   3.700  44.667  0.00  0.00     0.095 C 
ATOM     98  C5  SGN d 403     -11.127   2.468  44.243  0.00  0.00     0.091 C 
ATOM     99  O6  SGN d 403     -12.610   3.279  42.501  0.00  0.00    -0.254 OA
ATOM    100  O1S SGN d 403      -6.906   2.541  41.148  0.00  0.00    -0.296 OA
ATOM    101  C1  SGN d 403      -9.207   1.435  43.235  0.00  0.00     0.150 C 
ATOM    102  O3S SGN d 403      -5.048   1.602  42.252  0.00  0.00    -0.296 OA
ATOM    103  O2S SGN d 403      -5.555   3.944  42.560  0.00  0.00    -0.296 OA
ATOM    104  C2  SGN d 403      -8.367   2.646  43.538  0.00  0.00     0.081 C 
ATOM    105  C6  SGN d 403     -12.586   2.781  43.833  0.00  0.00     0.067 C 
ATOM    106  S2  SGN d 403     -13.608   4.331  41.857  0.00  0.00     0.251 S 
ATOM    107  H   SGN d 403      -8.748   2.553  45.619  0.00  0.00     0.089 H 
ATOM    108  H   SGN d 403      -8.172   5.044  44.396  0.00  0.00     0.210 HD
ATOM    109  H   SGN d 403      -6.556   2.703  44.399  0.00  0.00     0.140 HD
ATOM    110  H   SGN d 403     -10.391   4.470  43.930  0.00  0.00     0.091 H 
ATOM    111  H   SGN d 403     -11.118   1.865  45.127  0.00  0.00     0.090 H 
ATOM    112  H   SGN d 403      -7.584   3.232  41.205  0.00  0.00     0.231 HD
ATOM    113  H   SGN d 403      -8.932   1.003  42.295  0.00  0.00     0.131 H 
ATOM    114  H   SGN d 403      -5.460   0.740  42.081  0.00  0.00     0.231 HD
ATOM    115  H   SGN d 403      -6.297   4.568  42.584  0.00  0.00     0.231 HD
ATOM    116  H   SGN d 403      -8.464   3.389  42.773  0.00  0.00     0.076 H 
ATOM    117  H   SGN d 403     -12.993   3.515  44.495  0.00  0.00     0.080 H 
ATOM    118  H   SGN d 403     -13.170   1.886  43.889  0.00  0.00     0.080 H 
ATOM    119  O62 IDS d 402     -12.518  -0.623  45.142  0.00  0.00    -0.646 OA
ATOM    120  C1  IDS d 402      -8.412  -2.640  45.975  0.00  0.00     0.161 C 
ATOM    121  O3S IDS d 402      -5.054  -2.607  46.261  0.00  0.00    -0.572 OA
ATOM    122  O3  IDS d 402      -8.794  -2.851  42.913  0.00  0.00    -0.390 OA
ATOM    123  O5  IDS d 402      -9.348  -1.626  46.238  0.00  0.00    -0.340 OA
ATOM    124  O4  IDS d 402      -8.980   0.459  44.214  0.00  0.00    -0.348 OA
ATOM    125  O61 IDS d 402     -11.269   0.351  46.555  0.00  0.00    -0.646 OA
ATOM    126  O1S IDS d 402      -4.375  -0.933  44.690  0.00  0.00    -0.572 OA
ATOM    127  O2S IDS d 402      -5.192  -0.297  46.824  0.00  0.00    -0.572 OA
ATOM    128  C3  IDS d 402      -8.289  -1.723  43.577  0.00  0.00     0.094 C 
ATOM    129  C5  IDS d 402     -10.235  -1.365  45.156  0.00  0.00     0.152 C 
ATOM    130  S   IDS d 402      -5.241  -1.256  45.791  0.00  0.00     0.252 S 
ATOM    131  C4  IDS d 402      -9.465  -0.820  43.931  0.00  0.00     0.103 C 
ATOM    132  C2  IDS d 402      -7.516  -2.208  44.815  0.00  0.00     0.134 C 
ATOM    133  C6  IDS d 402     -11.415  -0.497  45.649  0.00  0.00     0.206 C 
ATOM    134  O2  IDS d 402      -6.695  -1.155  45.239  0.00  0.00    -0.244 OA
ATOM    135  H   IDS d 402      -7.825  -2.788  46.857  0.00  0.00     0.133 H 
ATOM    136  H   IDS d 402      -8.062  -3.442  42.677  0.00  0.00     0.210 HD
ATOM    137  H   IDS d 402      -7.613  -1.156  42.971  0.00  0.00     0.091 H 
ATOM    138  H   IDS d 402     -10.679  -2.271  44.799  0.00  0.00     0.104 H 
ATOM    139  H   IDS d 402     -10.140  -0.788  43.101  0.00  0.00     0.092 H 
ATOM    140  H   IDS d 402      -6.959  -3.077  44.532  0.00  0.00     0.097 H 
ENDROOT
TORSDOF 45
ENDMDL
MODEL 6
REMARK VINA RESULT:      -7.5      3.970      6.239
REMARK  0 active torsions:
REMARK  status: ('A' for Active; 'I' for Inactive)
REMARK       I    between atoms: C5_1  and  C6_64 
REMARK       I    between atoms: C4_2  and  O4_32 
REMARK       I    between atoms: C1_3  and  O4_32 
REMARK       I    between atoms: S1_6  and  N_87 
REMARK       I    between atoms: S1_6  and  O1S_23 
REMARK       I    between atoms: S1_6  and  O2S_31 
REMARK       I    between atoms: S1_6  and  O3S_47 
REMARK       I    between atoms: N_7  and  C2_53 
REMARK       I    between atoms: N_7  and  S1_10 
REMARK       I    between atoms: C3_9  and  O3_14 
REMARK       I    between atoms: S1_10  and  O1S_52 
REMARK       I    between atoms: S1_10  and  O2S_17 
REMARK       I    between atoms: S1_10  and  O3S_80 
REMARK       I    between atoms: C5_12  and  C6_73 
REMARK       I    between atoms: S1_13  and  N_25 
REMARK       I    between atoms: S1_13  and  O1S_58 
REMARK       I    between atoms: S1_13  and  O2S_66 
REMARK       I    between atoms: S1_13  and  O3S_62 
REMARK       I    between atoms: S2_15  and  O6_41 
REMARK       I    between atoms: C3_16  and  O3_48 
REMARK       I    between atoms: C2_18  and  N_87 
REMARK       I    between atoms: C1_19  and  O4_39 
REMARK       I    between atoms: C3_20  and  O3_27 
REMARK       I    between atoms: C1_24  and  O1_84 
REMARK       I    between atoms: N_25  and  C2_78 
REMARK       I    between atoms: O4_28  and  C4_30 
REMARK       I    between atoms: O4_28  and  C1_86 
REMARK       I    between atoms: C2_34  and  O2_59 
REMARK       I    between atoms: O3_35  and  C3_60 
REMARK       I    between atoms: C5_37  and  C6_81 
REMARK       I    between atoms: O4_39  and  C4_79 
REMARK       I    between atoms: O4_40  and  C4_77 
REMARK       I    between atoms: O4_40  and  C1_61 
REMARK       I    between atoms: O6_41  and  C6_57 
REMARK       I    between atoms: O6_45  and  C6_81 
REMARK       I    between atoms: O6_45  and  S2_83 
REMARK       I    between atoms: C3_46  and  O3_72 
REMARK       I    between atoms: C5_50  and  C6_57 
REMARK       I    between atoms: O2_59  and  S_69 
REMARK       I    between atoms: O6_63  and  C6_64 
REMARK       I    between atoms: O6_63  and  S2_70 
REMARK       I    between atoms: C5_67  and  C6_88 
REMARK       I    between atoms: S_71  and  O2_89 
REMARK       I    between atoms: O4_75  and  C4_82 
REMARK       I    between atoms: C2_85  and  O2_89 
ROOT
ATOM      1  C5  SGN d 401      -8.933  -4.736  48.175  0.00  0.00     0.091 C 
ATOM      2  S1  SGN d 401     -14.467  -5.363  49.051  0.00  0.00     0.156 S 
ATOM      3  C3  SGN d 401     -11.182  -4.219  47.152  0.00  0.00     0.083 C 
ATOM      4  C2  SGN d 401     -11.804  -4.971  48.348  0.00  0.00     0.081 C 
ATOM      5  O1S SGN d 401     -13.951  -4.948  50.342  0.00  0.00    -0.296 OA
ATOM      6  C1  SGN d 401     -10.809  -6.061  48.779  0.00  0.00     0.147 C 
ATOM      7  O2S SGN d 401     -15.305  -4.354  48.462  0.00  0.00    -0.296 OA
ATOM      8  O4  SGN d 401      -9.206  -3.114  46.401  0.00  0.00    -0.348 OA
ATOM      9  O4S SGN d 401      -6.576  -1.553  49.738  0.00  0.00    -0.572 OA
ATOM     10  O3S SGN d 401     -15.113  -6.657  49.113  0.00  0.00    -0.296 OA
ATOM     11  O3  SGN d 401     -12.024  -3.149  46.767  0.00  0.00    -0.391 OA
ATOM     12  O5  SGN d 401      -9.604  -5.486  49.187  0.00  0.00    -0.350 OA
ATOM     13  O6S SGN d 401      -6.705  -2.973  51.682  0.00  0.00    -0.572 OA
ATOM     14  O6  SGN d 401      -8.208  -3.294  49.851  0.00  0.00    -0.254 OA
ATOM     15  C6  SGN d 401      -7.707  -4.165  48.874  0.00  0.00     0.067 C 
ATOM     16  S2  SGN d 401      -7.427  -2.234  50.660  0.00  0.00     0.251 S 
ATOM     17  O5S SGN d 401      -8.445  -1.368  51.190  0.00  0.00    -0.572 OA
ATOM     18  C4  SGN d 401      -9.830  -3.623  47.554  0.00  0.00     0.095 C 
ATOM     19  O1  SGN d 401     -10.550  -6.974  47.698  0.00  0.00    -0.369 OA
ATOM     20  N   SGN d 401     -13.147  -5.566  48.017  0.00  0.00    -0.210 NA
ATOM     21  H   SGN d 401      -8.671  -5.350  47.338  0.00  0.00     0.090 H 
ATOM     22  H   SGN d 401     -11.061  -4.913  46.346  0.00  0.00     0.089 H 
ATOM     23  H   SGN d 401     -11.981  -4.282  49.146  0.00  0.00     0.076 H 
ATOM     24  H   SGN d 401     -13.528  -4.079  50.256  0.00  0.00     0.231 HD
ATOM     25  H   SGN d 401     -11.245  -6.599  49.595  0.00  0.00     0.131 H 
ATOM     26  H   SGN d 401     -14.829  -3.510  48.442  0.00  0.00     0.231 HD
ATOM     27  H   SGN d 401     -14.510  -7.301  49.517  0.00  0.00     0.231 HD
ATOM     28  H   SGN d 401     -12.122  -2.531  47.509  0.00  0.00     0.210 HD
ATOM     29  H   SGN d 401      -7.092  -3.633  48.177  0.00  0.00     0.080 H 
ATOM     30  H   SGN d 401      -7.097  -4.935  49.300  0.00  0.00     0.080 H 
ATOM     31  H   SGN d 401      -9.974  -2.844  48.274  0.00  0.00     0.091 H 
ATOM     32  H   SGN d 401     -10.154  -6.492  46.956  0.00  0.00     0.212 HD
ATOM     33  H   SGN d 401     -13.422  -5.177  47.115  0.00  0.00     0.140 HD
ATOM     34  C4  IDS d 404      -9.580   8.025  47.937  0.00  0.00     0.103 C 
ATOM     35  C5  IDS d 404      -9.026   7.613  46.577  0.00  0.00     0.152 C 
ATOM     36  O4  IDS d 404     -10.133   9.304  47.799  0.00  0.00    -0.348 OA
ATOM     37  O5  IDS d 404     -10.050   7.335  45.649  0.00  0.00    -0.340 OA
ATOM     38  C2  IDS d 404     -11.579   6.468  47.393  0.00  0.00     0.134 C 
ATOM     39  O62 IDS d 404      -6.898   8.559  46.059  0.00  0.00    -0.646 OA
ATOM     40  C3  IDS d 404     -10.653   7.041  48.478  0.00  0.00     0.094 C 
ATOM     41  O2  IDS d 404     -12.702   7.346  47.243  0.00  0.00    -0.244 OA
ATOM     42  O1S IDS d 404     -14.745   6.340  47.853  0.00  0.00    -0.572 OA
ATOM     43  O2S IDS d 404     -14.754   8.110  46.260  0.00  0.00    -0.572 OA
ATOM     44  S   IDS d 404     -14.116   6.925  46.739  0.00  0.00     0.252 S 
ATOM     45  O3  IDS d 404      -9.998   5.952  49.082  0.00  0.00    -0.390 OA
ATOM     46  C6  IDS d 404      -8.111   8.675  46.011  0.00  0.00     0.206 C 
ATOM     47  O3S IDS d 404     -13.916   5.949  45.733  0.00  0.00    -0.572 OA
ATOM     48  C1  IDS d 404     -10.896   6.239  46.016  0.00  0.00     0.161 C 
ATOM     49  O61 IDS d 404      -8.587   9.690  45.524  0.00  0.00    -0.646 OA
ATOM     50  H   IDS d 404      -8.780   8.015  48.647  0.00  0.00     0.092 H 
ATOM     51  H   IDS d 404      -8.465   6.716  46.740  0.00  0.00     0.104 H 
ATOM     52  H   IDS d 404     -11.879   5.495  47.724  0.00  0.00     0.097 H 
ATOM     53  H   IDS d 404     -11.258   7.601  49.159  0.00  0.00     0.091 H 
ATOM     54  H   IDS d 404      -9.467   5.484  48.418  0.00  0.00     0.210 HD
ATOM     55  H   IDS d 404     -11.653   6.188  45.262  0.00  0.00     0.133 H 
ATOM     56  C1  SGN d 405      -9.703  10.244  48.739  0.00  0.00     0.150 C 
ATOM     57  O6S SGN d 405      -6.516  12.063  50.406  0.00  0.00    -0.572 OA
ATOM     58  N   SGN d 405     -12.091  10.783  48.781  0.00  0.00    -0.210 NA
ATOM     59  S1  SGN d 405     -12.953  10.728  50.138  0.00  0.00     0.156 S 
ATOM     60  S2  SGN d 405      -5.619  12.892  49.607  0.00  0.00     0.251 S 
ATOM     61  O2S SGN d 405     -12.600  11.917  50.875  0.00  0.00    -0.296 OA
ATOM     62  C3  SGN d 405     -10.568  12.416  47.756  0.00  0.00     0.083 C 
ATOM     63  O5  SGN d 405      -8.362  10.732  48.508  0.00  0.00    -0.349 OA
ATOM     64  O3  SGN d 405     -11.460  13.489  47.995  0.00  0.00    -0.391 OA
ATOM     65  O6  SGN d 405      -6.309  13.093  48.179  0.00  0.00    -0.254 OA
ATOM     66  O5S SGN d 405      -5.435  14.218  50.147  0.00  0.00    -0.572 OA
ATOM     67  C5  SGN d 405      -8.236  11.744  47.471  0.00  0.00     0.090 C 
ATOM     68  O4S SGN d 405      -4.376  12.248  49.370  0.00  0.00    -0.572 OA
ATOM     69  O1S SGN d 405     -12.552   9.518  50.807  0.00  0.00    -0.296 OA
ATOM     70  C2  SGN d 405     -10.752  11.362  48.844  0.00  0.00     0.081 C 
ATOM     71  C6  SGN d 405      -6.737  12.089  47.266  0.00  0.00     0.067 C 
ATOM     72  O4  SGN d 405      -8.942  13.996  46.908  0.00  0.00    -0.390 OA
ATOM     73  O3S SGN d 405     -14.333  10.674  49.784  0.00  0.00    -0.296 OA
ATOM     74  C4  SGN d 405      -9.119  12.931  47.838  0.00  0.00     0.089 C 
ATOM     75  H   SGN d 405      -9.625   9.757  49.688  0.00  0.00     0.131 H 
ATOM     76  H   SGN d 405     -11.991   9.825  48.445  0.00  0.00     0.140 HD
ATOM     77  H   SGN d 405     -11.653  11.897  51.086  0.00  0.00     0.231 HD
ATOM     78  H   SGN d 405     -10.765  12.002  46.790  0.00  0.00     0.089 H 
ATOM     79  H   SGN d 405     -11.284  13.867  48.871  0.00  0.00     0.210 HD
ATOM     80  H   SGN d 405      -8.583  11.391  46.522  0.00  0.00     0.090 H 
ATOM     81  H   SGN d 405     -11.611   9.574  51.040  0.00  0.00     0.231 HD
ATOM     82  H   SGN d 405     -10.622  11.856  49.784  0.00  0.00     0.076 H 
ATOM     83  H   SGN d 405      -6.151  11.207  47.419  0.00  0.00     0.080 H 
ATOM     84  H   SGN d 405      -6.608  12.460  46.271  0.00  0.00     0.080 H 
ATOM     85  H   SGN d 405      -9.511  14.741  47.158  0.00  0.00     0.210 HD
ATOM     86  H   SGN d 405     -14.510   9.856  49.293  0.00  0.00     0.231 HD
ATOM     87  H   SGN d 405      -8.875  13.306  48.809  0.00  0.00     0.091 H 
ATOM     88  O5S SGN d 403     -13.477   4.667  40.801  0.00  0.00    -0.572 OA
ATOM     89  C3  SGN d 403      -8.470   3.886  44.919  0.00  0.00     0.083 C 
ATOM     90  O5  SGN d 403     -10.424   2.459  43.450  0.00  0.00    -0.349 OA
ATOM     91  S1  SGN d 403      -5.921   2.771  42.306  0.00  0.00     0.156 S 
ATOM     92  O3  SGN d 403      -7.596   4.965  45.061  0.00  0.00    -0.391 OA
ATOM     93  O4S SGN d 403     -12.578   6.377  42.277  0.00  0.00    -0.572 OA
ATOM     94  N   SGN d 403      -6.781   2.605  43.662  0.00  0.00    -0.210 NA
ATOM     95  O4  SGN d 403     -10.201   5.018  46.034  0.00  0.00    -0.348 OA
ATOM     96  O6S SGN d 403     -14.556   5.185  42.839  0.00  0.00    -0.572 OA
ATOM     97  C4  SGN d 403      -9.884   4.431  44.806  0.00  0.00     0.095 C 
ATOM     98  C5  SGN d 403     -10.847   3.249  44.541  0.00  0.00     0.091 C 
ATOM     99  O6  SGN d 403     -12.368   4.045  42.825  0.00  0.00    -0.254 OA
ATOM    100  O1S SGN d 403      -6.850   2.688  41.208  0.00  0.00    -0.296 OA
ATOM    101  C1  SGN d 403      -9.093   1.968  43.516  0.00  0.00     0.150 C 
ATOM    102  O3S SGN d 403      -5.009   1.678  42.279  0.00  0.00    -0.296 OA
ATOM    103  O2S SGN d 403      -5.294   4.074  42.410  0.00  0.00    -0.296 OA
ATOM    104  C2  SGN d 403      -8.135   3.120  43.662  0.00  0.00     0.081 C 
ATOM    105  C6  SGN d 403     -12.298   3.657  44.192  0.00  0.00     0.067 C 
ATOM    106  S2  SGN d 403     -13.314   5.127  42.152  0.00  0.00     0.251 S 
ATOM    107  H   SGN d 403      -8.383   3.232  45.761  0.00  0.00     0.089 H 
ATOM    108  H   SGN d 403      -7.681   5.552  44.294  0.00  0.00     0.210 HD
ATOM    109  H   SGN d 403      -6.272   3.083  44.406  0.00  0.00     0.140 HD
ATOM    110  H   SGN d 403      -9.967   5.144  44.012  0.00  0.00     0.091 H 
ATOM    111  H   SGN d 403     -10.830   2.722  45.472  0.00  0.00     0.090 H 
ATOM    112  H   SGN d 403      -7.462   3.440  41.245  0.00  0.00     0.231 HD
ATOM    113  H   SGN d 403      -8.918   1.437  42.602  0.00  0.00     0.131 H 
ATOM    114  H   SGN d 403      -5.503   0.846  42.208  0.00  0.00     0.231 HD
ATOM    115  H   SGN d 403      -5.978   4.762  42.423  0.00  0.00     0.231 HD
ATOM    116  H   SGN d 403      -8.219   3.802  42.842  0.00  0.00     0.076 H 
ATOM    117  H   SGN d 403     -12.596   4.477  44.810  0.00  0.00     0.080 H 
ATOM    118  H   SGN d 403     -12.951   2.827  44.360  0.00  0.00     0.080 H 
ATOM    119  O62 IDS d 402     -12.432   0.380  45.787  0.00  0.00    -0.646 OA
ATOM    120  C1  IDS d 402      -8.466  -1.924  46.549  0.00  0.00     0.161 C 
ATOM    121  O3S IDS d 402      -5.106  -2.170  46.633  0.00  0.00    -0.572 OA
ATOM    122  O3  IDS d 402      -9.067  -2.349  43.546  0.00  0.00    -0.390 OA
ATOM    123  O5  IDS d 402      -9.293  -0.811  46.778  0.00  0.00    -0.340 OA
ATOM    124  O4  IDS d 402      -8.885   1.059  44.561  0.00  0.00    -0.348 OA
ATOM    125  O61 IDS d 402     -11.014   1.350  47.034  0.00  0.00    -0.646 OA
ATOM    126  O1S IDS d 402      -4.393  -0.699  44.884  0.00  0.00    -0.572 OA
ATOM    127  O2S IDS d 402      -5.010   0.181  46.999  0.00  0.00    -0.572 OA
ATOM    128  C3  IDS d 402      -8.425  -1.221  44.077  0.00  0.00     0.094 C 
ATOM    129  C5  IDS d 402     -10.225  -0.561  45.731  0.00  0.00     0.152 C 
ATOM    130  S   IDS d 402      -5.208  -0.851  46.059  0.00  0.00     0.252 S 
ATOM    131  C4  IDS d 402      -9.494  -0.190  44.420  0.00  0.00     0.103 C 
ATOM    132  C2  IDS d 402      -7.615  -1.671  45.306  0.00  0.00     0.134 C 
ATOM    133  C6  IDS d 402     -11.291   0.447  46.215  0.00  0.00     0.206 C 
ATOM    134  O2  IDS d 402      -6.682  -0.665  45.587  0.00  0.00    -0.244 OA
ATOM    135  H   IDS d 402      -7.836  -2.051  47.405  0.00  0.00     0.133 H 
ATOM    136  H   IDS d 402      -8.404  -3.021  43.320  0.00  0.00     0.210 HD
ATOM    137  H   IDS d 402      -7.746  -0.769  43.386  0.00  0.00     0.091 H 
ATOM    138  H   IDS d 402     -10.766  -1.450  45.482  0.00  0.00     0.104 H 
ATOM    139  H   IDS d 402     -10.218  -0.165  43.632  0.00  0.00     0.092 H 
ATOM    140  H   IDS d 402      -7.154  -2.607  45.067  0.00  0.00     0.097 H 
ENDROOT
TORSDOF 45
ENDMDL
MODEL 7
REMARK VINA RESULT:      -6.8      2.645      4.554
REMARK  0 active torsions:
REMARK  status: ('A' for Active; 'I' for Inactive)
REMARK       I    between atoms: C5_1  and  C6_64 
REMARK       I    between atoms: C4_2  and  O4_32 
REMARK       I    between atoms: C1_3  and  O4_32 
REMARK       I    between atoms: S1_6  and  N_87 
REMARK       I    between atoms: S1_6  and  O1S_23 
REMARK       I    between atoms: S1_6  and  O2S_31 
REMARK       I    between atoms: S1_6  and  O3S_47 
REMARK       I    between atoms: N_7  and  C2_53 
REMARK       I    between atoms: N_7  and  S1_10 
REMARK       I    between atoms: C3_9  and  O3_14 
REMARK       I    between atoms: S1_10  and  O1S_52 
REMARK       I    between atoms: S1_10  and  O2S_17 
REMARK       I    between atoms: S1_10  and  O3S_80 
REMARK       I    between atoms: C5_12  and  C6_73 
REMARK       I    between atoms: S1_13  and  N_25 
REMARK       I    between atoms: S1_13  and  O1S_58 
REMARK       I    between atoms: S1_13  and  O2S_66 
REMARK       I    between atoms: S1_13  and  O3S_62 
REMARK       I    between atoms: S2_15  and  O6_41 
REMARK       I    between atoms: C3_16  and  O3_48 
REMARK       I    between atoms: C2_18  and  N_87 
REMARK       I    between atoms: C1_19  and  O4_39 
REMARK       I    between atoms: C3_20  and  O3_27 
REMARK       I    between atoms: C1_24  and  O1_84 
REMARK       I    between atoms: N_25  and  C2_78 
REMARK       I    between atoms: O4_28  and  C4_30 
REMARK       I    between atoms: O4_28  and  C1_86 
REMARK       I    between atoms: C2_34  and  O2_59 
REMARK       I    between atoms: O3_35  and  C3_60 
REMARK       I    between atoms: C5_37  and  C6_81 
REMARK       I    between atoms: O4_39  and  C4_79 
REMARK       I    between atoms: O4_40  and  C4_77 
REMARK       I    between atoms: O4_40  and  C1_61 
REMARK       I    between atoms: O6_41  and  C6_57 
REMARK       I    between atoms: O6_45  and  C6_81 
REMARK       I    between atoms: O6_45  and  S2_83 
REMARK       I    between atoms: C3_46  and  O3_72 
REMARK       I    between atoms: C5_50  and  C6_57 
REMARK       I    between atoms: O2_59  and  S_69 
REMARK       I    between atoms: O6_63  and  C6_64 
REMARK       I    between atoms: O6_63  and  S2_70 
REMARK       I    between atoms: C5_67  and  C6_88 
REMARK       I    between atoms: S_71  and  O2_89 
REMARK       I    between atoms: O4_75  and  C4_82 
REMARK       I    between atoms: C2_85  and  O2_89 
ROOT
ATOM      1  C5  SGN d 401     -17.319   0.272  43.436  0.00  0.00     0.091 C 
ATOM      2  S1  SGN d 401     -15.651  -2.370  48.129  0.00  0.00     0.156 S 
ATOM      3  C3  SGN d 401     -17.227   0.537  45.945  0.00  0.00     0.083 C 
ATOM      4  C2  SGN d 401     -16.613  -0.879  45.987  0.00  0.00     0.081 C 
ATOM      5  O1S SGN d 401     -14.548  -2.562  47.207  0.00  0.00    -0.296 OA
ATOM      6  C1  SGN d 401     -17.186  -1.669  44.798  0.00  0.00     0.147 C 
ATOM      7  O2S SGN d 401     -15.286  -1.514  49.225  0.00  0.00    -0.296 OA
ATOM      8  O4  SGN d 401     -17.629   2.410  44.525  0.00  0.00    -0.348 OA
ATOM      9  O4S SGN d 401     -14.808   2.696  40.996  0.00  0.00    -0.572 OA
ATOM     10  O3S SGN d 401     -16.217  -3.627  48.569  0.00  0.00    -0.296 OA
ATOM     11  O3  SGN d 401     -16.670   1.333  46.973  0.00  0.00    -0.391 OA
ATOM     12  O5  SGN d 401     -16.830  -1.059  43.594  0.00  0.00    -0.350 OA
ATOM     13  O6S SGN d 401     -14.148   0.507  40.233  0.00  0.00    -0.572 OA
ATOM     14  O6  SGN d 401     -15.359   0.757  42.278  0.00  0.00    -0.254 OA
ATOM     15  C6  SGN d 401     -16.750   0.732  42.101  0.00  0.00     0.067 C 
ATOM     16  S2  SGN d 401     -14.303   1.411  41.359  0.00  0.00     0.251 S 
ATOM     17  O5S SGN d 401     -13.127   1.511  42.182  0.00  0.00    -0.572 OA
ATOM     18  C4  SGN d 401     -16.900   1.210  44.609  0.00  0.00     0.095 C 
ATOM     19  O1  SGN d 401     -18.619  -1.746  44.879  0.00  0.00    -0.369 OA
ATOM     20  N   SGN d 401     -16.887  -1.586  47.287  0.00  0.00    -0.210 NA
ATOM     21  H   SGN d 401     -18.388   0.305  43.452  0.00  0.00     0.090 H 
ATOM     22  H   SGN d 401     -18.287   0.446  46.070  0.00  0.00     0.089 H 
ATOM     23  H   SGN d 401     -15.549  -0.805  45.916  0.00  0.00     0.076 H 
ATOM     24  H   SGN d 401     -14.197  -1.698  46.937  0.00  0.00     0.231 HD
ATOM     25  H   SGN d 401     -16.778  -2.657  44.836  0.00  0.00     0.131 H 
ATOM     26  H   SGN d 401     -14.913  -0.688  48.880  0.00  0.00     0.231 HD
ATOM     27  H   SGN d 401     -16.446  -4.167  47.796  0.00  0.00     0.231 HD
ATOM     28  H   SGN d 401     -15.711   1.404  46.844  0.00  0.00     0.210 HD
ATOM     29  H   SGN d 401     -17.114   1.707  41.854  0.00  0.00     0.080 H 
ATOM     30  H   SGN d 401     -17.038   0.082  41.300  0.00  0.00     0.080 H 
ATOM     31  H   SGN d 401     -15.851   1.407  44.547  0.00  0.00     0.091 H 
ATOM     32  H   SGN d 401     -18.994  -0.853  44.845  0.00  0.00     0.212 HD
ATOM     33  H   SGN d 401     -17.272  -0.886  47.922  0.00  0.00     0.140 HD
ATOM     34  C4  IDS d 404      -9.694  10.337  45.408  0.00  0.00     0.103 C 
ATOM     35  C5  IDS d 404     -11.114  10.893  45.373  0.00  0.00     0.152 C 
ATOM     36  O4  IDS d 404      -8.895  11.258  46.098  0.00  0.00    -0.348 OA
ATOM     37  O5  IDS d 404     -11.732  10.849  46.640  0.00  0.00    -0.340 OA
ATOM     38  C2  IDS d 404     -10.543   8.778  47.295  0.00  0.00     0.134 C 
ATOM     39  O62 IDS d 404     -11.471  12.565  43.709  0.00  0.00    -0.646 OA
ATOM     40  C3  IDS d 404      -9.605   8.945  46.090  0.00  0.00     0.094 C 
ATOM     41  O2  IDS d 404      -9.853   9.213  48.473  0.00  0.00    -0.244 OA
ATOM     42  O1S IDS d 404      -9.482   7.471  50.019  0.00  0.00    -0.572 OA
ATOM     43  O2S IDS d 404      -9.631   9.713  50.811  0.00  0.00    -0.572 OA
ATOM     44  S   IDS d 404     -10.136   8.714  49.923  0.00  0.00     0.252 S 
ATOM     45  O3  IDS d 404      -9.960   7.961  45.148  0.00  0.00    -0.390 OA
ATOM     46  C6  IDS d 404     -11.136  12.313  44.854  0.00  0.00     0.206 C 
ATOM     47  O3S IDS d 404     -11.537   8.528  50.022  0.00  0.00    -0.572 OA
ATOM     48  C1  IDS d 404     -11.899   9.528  47.167  0.00  0.00     0.161 C 
ATOM     49  O61 IDS d 404     -10.780  13.231  45.578  0.00  0.00    -0.646 OA
ATOM     50  H   IDS d 404      -9.358  10.199  44.401  0.00  0.00     0.092 H 
ATOM     51  H   IDS d 404     -11.667  10.266  44.705  0.00  0.00     0.104 H 
ATOM     52  H   IDS d 404     -10.799   7.741  47.347  0.00  0.00     0.097 H 
ATOM     53  H   IDS d 404      -8.600   8.847  46.444  0.00  0.00     0.091 H 
ATOM     54  H   IDS d 404     -10.878   8.101  44.864  0.00  0.00     0.210 HD
ATOM     55  H   IDS d 404     -12.315   9.654  48.145  0.00  0.00     0.133 H 
ATOM     56  C1  SGN d 405      -7.724  11.641  45.440  0.00  0.00     0.150 C 
ATOM     57  O6S SGN d 405      -6.158  13.179  42.059  0.00  0.00    -0.572 OA
ATOM     58  N   SGN d 405      -6.775  11.321  47.673  0.00  0.00    -0.210 NA
ATOM     59  S1  SGN d 405      -5.560  10.301  47.946  0.00  0.00     0.156 S 
ATOM     60  S2  SGN d 405      -6.493  14.531  41.621  0.00  0.00     0.251 S 
ATOM     61  O2S SGN d 405      -4.375  10.965  47.461  0.00  0.00    -0.296 OA
ATOM     62  C3  SGN d 405      -6.955  13.620  46.827  0.00  0.00     0.083 C 
ATOM     63  O5  SGN d 405      -7.941  12.558  44.343  0.00  0.00    -0.349 OA
ATOM     64  O3  SGN d 405      -5.909  14.075  47.664  0.00  0.00    -0.391 OA
ATOM     65  O6  SGN d 405      -7.288  15.232  42.818  0.00  0.00    -0.254 OA
ATOM     66  O5S SGN d 405      -5.334  15.356  41.380  0.00  0.00    -0.572 OA
ATOM     67  C5  SGN d 405      -8.155  13.945  44.724  0.00  0.00     0.090 C 
ATOM     68  O4S SGN d 405      -7.368  14.521  40.503  0.00  0.00    -0.572 OA
ATOM     69  O1S SGN d 405      -5.876   9.110  47.200  0.00  0.00    -0.296 OA
ATOM     70  C2  SGN d 405      -6.713  12.155  46.477  0.00  0.00     0.081 C 
ATOM     71  C6  SGN d 405      -8.477  14.784  43.457  0.00  0.00     0.067 C 
ATOM     72  O4  SGN d 405      -7.059  15.816  45.814  0.00  0.00    -0.390 OA
ATOM     73  O3S SGN d 405      -5.519  10.024  49.343  0.00  0.00    -0.296 OA
ATOM     74  C4  SGN d 405      -6.945  14.427  45.516  0.00  0.00     0.089 C 
ATOM     75  H   SGN d 405      -7.312  10.778  44.958  0.00  0.00     0.131 H 
ATOM     76  H   SGN d 405      -7.629  10.766  47.613  0.00  0.00     0.140 HD
ATOM     77  H   SGN d 405      -4.462  11.126  46.507  0.00  0.00     0.231 HD
ATOM     78  H   SGN d 405      -7.890  13.739  47.334  0.00  0.00     0.089 H 
ATOM     79  H   SGN d 405      -5.060  13.969  47.208  0.00  0.00     0.210 HD
ATOM     80  H   SGN d 405      -9.002  14.059  45.368  0.00  0.00     0.090 H 
ATOM     81  H   SGN d 405      -5.899   9.318  46.253  0.00  0.00     0.231 HD
ATOM     82  H   SGN d 405      -5.734  12.092  46.050  0.00  0.00     0.076 H 
ATOM     83  H   SGN d 405      -9.035  14.180  42.772  0.00  0.00     0.080 H 
ATOM     84  H   SGN d 405      -9.045  15.640  43.754  0.00  0.00     0.080 H 
ATOM     85  H   SGN d 405      -6.281  16.103  46.317  0.00  0.00     0.210 HD
ATOM     86  H   SGN d 405      -6.338   9.579  49.610  0.00  0.00     0.231 HD
ATOM     87  H   SGN d 405      -6.042  14.288  44.960  0.00  0.00     0.091 H 
ATOM     88  O5S SGN d 403     -16.167  10.237  51.363  0.00  0.00    -0.572 OA
ATOM     89  C3  SGN d 403     -14.747   8.974  45.116  0.00  0.00     0.083 C 
ATOM     90  O5  SGN d 403     -16.233   8.019  47.327  0.00  0.00    -0.349 OA
ATOM     91  S1  SGN d 403     -18.037  10.237  43.652  0.00  0.00     0.156 S 
ATOM     92  O3  SGN d 403     -14.209  10.022  44.368  0.00  0.00    -0.391 OA
ATOM     93  O4S SGN d 403     -14.243  11.092  50.148  0.00  0.00    -0.572 OA
ATOM     94  N   SGN d 403     -16.891   9.132  43.911  0.00  0.00    -0.210 NA
ATOM     95  O4  SGN d 403     -12.789   8.760  46.398  0.00  0.00    -0.348 OA
ATOM     96  O6S SGN d 403     -14.037   9.248  51.634  0.00  0.00    -0.572 OA
ATOM     97  C4  SGN d 403     -14.154   9.036  46.514  0.00  0.00     0.095 C 
ATOM     98  C5  SGN d 403     -14.824   7.943  47.382  0.00  0.00     0.091 C 
ATOM     99  O6  SGN d 403     -15.275   9.015  49.512  0.00  0.00    -0.254 OA
ATOM    100  O1S SGN d 403     -18.692  10.467  44.916  0.00  0.00    -0.296 OA
ATOM    101  C1  SGN d 403     -16.809   7.999  46.029  0.00  0.00     0.150 C 
ATOM    102  O3S SGN d 403     -18.940   9.662  42.714  0.00  0.00    -0.296 OA
ATOM    103  O2S SGN d 403     -17.333  11.409  43.168  0.00  0.00    -0.296 OA
ATOM    104  C2  SGN d 403     -16.246   9.129  45.208  0.00  0.00     0.081 C 
ATOM    105  C6  SGN d 403     -14.485   8.010  48.889  0.00  0.00     0.067 C 
ATOM    106  S2  SGN d 403     -14.904   9.941  50.747  0.00  0.00     0.251 S 
ATOM    107  H   SGN d 403     -14.519   8.038  44.651  0.00  0.00     0.089 H 
ATOM    108  H   SGN d 403     -14.420  10.866  44.796  0.00  0.00     0.210 HD
ATOM    109  H   SGN d 403     -16.165   9.275  43.209  0.00  0.00     0.140 HD
ATOM    110  H   SGN d 403     -14.311   9.995  46.964  0.00  0.00     0.091 H 
ATOM    111  H   SGN d 403     -14.436   7.040  46.959  0.00  0.00     0.090 H 
ATOM    112  H   SGN d 403     -18.061  10.858  45.540  0.00  0.00     0.231 HD
ATOM    113  H   SGN d 403     -17.865   8.111  46.162  0.00  0.00     0.131 H 
ATOM    114  H   SGN d 403     -19.369   8.888  43.112  0.00  0.00     0.231 HD
ATOM    115  H   SGN d 403     -16.741  11.741  43.861  0.00  0.00     0.231 HD
ATOM    116  H   SGN d 403     -16.440  10.076  45.666  0.00  0.00     0.076 H 
ATOM    117  H   SGN d 403     -13.448   8.245  49.011  0.00  0.00     0.080 H 
ATOM    118  H   SGN d 403     -14.692   7.063  49.342  0.00  0.00     0.080 H 
ATOM    119  O62 IDS d 402     -15.200   4.527  48.077  0.00  0.00    -0.646 OA
ATOM    120  C1  IDS d 402     -16.987   3.503  43.908  0.00  0.00     0.161 C 
ATOM    121  O3S IDS d 402     -17.907   4.286  40.762  0.00  0.00    -0.572 OA
ATOM    122  O3  IDS d 402     -19.379   4.562  45.558  0.00  0.00    -0.390 OA
ATOM    123  O5  IDS d 402     -15.941   4.015  44.694  0.00  0.00    -0.340 OA
ATOM    124  O4  IDS d 402     -16.609   6.791  45.349  0.00  0.00    -0.348 OA
ATOM    125  O61 IDS d 402     -14.023   5.073  46.397  0.00  0.00    -0.646 OA
ATOM    126  O1S IDS d 402     -18.534   6.591  40.918  0.00  0.00    -0.572 OA
ATOM    127  O2S IDS d 402     -16.244   5.990  40.771  0.00  0.00    -0.572 OA
ATOM    128  C3  IDS d 402     -18.457   5.374  44.880  0.00  0.00     0.094 C 
ATOM    129  C5  IDS d 402     -16.356   4.481  45.973  0.00  0.00     0.152 C 
ATOM    130  S   IDS d 402     -17.528   5.605  41.207  0.00  0.00     0.252 S 
ATOM    131  C4  IDS d 402     -17.314   5.687  45.837  0.00  0.00     0.103 C 
ATOM    132  C2  IDS d 402     -17.994   4.617  43.624  0.00  0.00     0.134 C 
ATOM    133  C6  IDS d 402     -15.118   4.703  46.871  0.00  0.00     0.206 C 
ATOM    134  O2  IDS d 402     -17.410   5.552  42.760  0.00  0.00    -0.244 OA
ATOM    135  H   IDS d 402     -16.569   3.144  42.991  0.00  0.00     0.133 H 
ATOM    136  H   IDS d 402     -20.118   4.348  44.968  0.00  0.00     0.210 HD
ATOM    137  H   IDS d 402     -18.882   6.303  44.564  0.00  0.00     0.091 H 
ATOM    138  H   IDS d 402     -16.943   3.741  46.476  0.00  0.00     0.104 H 
ATOM    139  H   IDS d 402     -17.718   5.901  46.804  0.00  0.00     0.092 H 
ATOM    140  H   IDS d 402     -18.851   4.139  43.196  0.00  0.00     0.097 H 
ENDROOT
TORSDOF 45
ENDMDL
MODEL 8
REMARK VINA RESULT:      -6.8      2.286      2.952
REMARK  0 active torsions:
REMARK  status: ('A' for Active; 'I' for Inactive)
REMARK       I    between atoms: C5_1  and  C6_64 
REMARK       I    between atoms: C4_2  and  O4_32 
REMARK       I    between atoms: C1_3  and  O4_32 
REMARK       I    between atoms: S1_6  and  N_87 
REMARK       I    between atoms: S1_6  and  O1S_23 
REMARK       I    between atoms: S1_6  and  O2S_31 
REMARK       I    between atoms: S1_6  and  O3S_47 
REMARK       I    between atoms: N_7  and  C2_53 
REMARK       I    between atoms: N_7  and  S1_10 
REMARK       I    between atoms: C3_9  and  O3_14 
REMARK       I    between atoms: S1_10  and  O1S_52 
REMARK       I    between atoms: S1_10  and  O2S_17 
REMARK       I    between atoms: S1_10  and  O3S_80 
REMARK       I    between atoms: C5_12  and  C6_73 
REMARK       I    between atoms: S1_13  and  N_25 
REMARK       I    between atoms: S1_13  and  O1S_58 
REMARK       I    between atoms: S1_13  and  O2S_66 
REMARK       I    between atoms: S1_13  and  O3S_62 
REMARK       I    between atoms: S2_15  and  O6_41 
REMARK       I    between atoms: C3_16  and  O3_48 
REMARK       I    between atoms: C2_18  and  N_87 
REMARK       I    between atoms: C1_19  and  O4_39 
REMARK       I    between atoms: C3_20  and  O3_27 
REMARK       I    between atoms: C1_24  and  O1_84 
REMARK       I    between atoms: N_25  and  C2_78 
REMARK       I    between atoms: O4_28  and  C4_30 
REMARK       I    between atoms: O4_28  and  C1_86 
REMARK       I    between atoms: C2_34  and  O2_59 
REMARK       I    between atoms: O3_35  and  C3_60 
REMARK       I    between atoms: C5_37  and  C6_81 
REMARK       I    between atoms: O4_39  and  C4_79 
REMARK       I    between atoms: O4_40  and  C4_77 
REMARK       I    between atoms: O4_40  and  C1_61 
REMARK       I    between atoms: O6_41  and  C6_57 
REMARK       I    between atoms: O6_45  and  C6_81 
REMARK       I    between atoms: O6_45  and  S2_83 
REMARK       I    between atoms: C3_46  and  O3_72 
REMARK       I    between atoms: C5_50  and  C6_57 
REMARK       I    between atoms: O2_59  and  S_69 
REMARK       I    between atoms: O6_63  and  C6_64 
REMARK       I    between atoms: O6_63  and  S2_70 
REMARK       I    between atoms: C5_67  and  C6_88 
REMARK       I    between atoms: S_71  and  O2_89 
REMARK       I    between atoms: O4_75  and  C4_82 
REMARK       I    between atoms: C2_85  and  O2_89 
ROOT
ATOM      1  C5  SGN d 401     -14.308  -4.627  47.406  0.00  0.00     0.091 C 
ATOM      2  S1  SGN d 401     -17.829  -3.924  51.753  0.00  0.00     0.156 S 
ATOM      3  C3  SGN d 401     -16.369  -3.352  48.114  0.00  0.00     0.083 C 
ATOM      4  C2  SGN d 401     -16.285  -4.124  49.448  0.00  0.00     0.081 C 
ATOM      5  O1S SGN d 401     -16.512  -3.910  52.362  0.00  0.00    -0.296 OA
ATOM      6  C1  SGN d 401     -15.664  -5.499  49.150  0.00  0.00     0.147 C 
ATOM      7  O2S SGN d 401     -18.467  -2.637  51.832  0.00  0.00    -0.296 OA
ATOM      8  O4  SGN d 401     -15.107  -2.687  46.202  0.00  0.00    -0.348 OA
ATOM      9  O4S SGN d 401     -10.637  -2.531  46.897  0.00  0.00    -0.572 OA
ATOM     10  O3S SGN d 401     -18.659  -4.989  52.276  0.00  0.00    -0.296 OA
ATOM     11  O3  SGN d 401     -16.859  -2.045  48.345  0.00  0.00    -0.391 OA
ATOM     12  O5  SGN d 401     -14.375  -5.349  48.636  0.00  0.00    -0.350 OA
ATOM     13  O6S SGN d 401      -9.946  -4.206  48.488  0.00  0.00    -0.572 OA
ATOM     14  O6  SGN d 401     -12.269  -3.769  48.127  0.00  0.00    -0.254 OA
ATOM     15  C6  SGN d 401     -12.820  -4.542  47.095  0.00  0.00     0.067 C 
ATOM     16  S2  SGN d 401     -10.865  -3.124  48.175  0.00  0.00     0.251 S 
ATOM     17  O5S SGN d 401     -10.962  -2.136  49.215  0.00  0.00    -0.572 OA
ATOM     18  C4  SGN d 401     -14.974  -3.220  47.497  0.00  0.00     0.095 C 
ATOM     19  O1  SGN d 401     -16.465  -6.227  48.204  0.00  0.00    -0.369 OA
ATOM     20  N   SGN d 401     -17.628  -4.270  50.113  0.00  0.00    -0.210 NA
ATOM     21  H   SGN d 401     -14.856  -5.119  46.630  0.00  0.00     0.090 H 
ATOM     22  H   SGN d 401     -17.021  -3.889  47.456  0.00  0.00     0.089 H 
ATOM     23  H   SGN d 401     -15.679  -3.575  50.137  0.00  0.00     0.076 H 
ATOM     24  H   SGN d 401     -15.990  -3.183  51.985  0.00  0.00     0.231 HD
ATOM     25  H   SGN d 401     -15.624  -6.046  50.070  0.00  0.00     0.131 H 
ATOM     26  H   SGN d 401     -17.874  -1.961  51.471  0.00  0.00     0.231 HD
ATOM     27  H   SGN d 401     -18.187  -5.834  52.201  0.00  0.00     0.231 HD
ATOM     28  H   SGN d 401     -16.257  -1.574  48.943  0.00  0.00     0.210 HD
ATOM     29  H   SGN d 401     -12.662  -4.070  46.148  0.00  0.00     0.080 H 
ATOM     30  H   SGN d 401     -12.369  -5.511  47.038  0.00  0.00     0.080 H 
ATOM     31  H   SGN d 401     -14.365  -2.581  48.102  0.00  0.00     0.091 H 
ATOM     32  H   SGN d 401     -16.505  -5.737  47.368  0.00  0.00     0.212 HD
ATOM     33  H   SGN d 401     -18.270  -3.660  49.606  0.00  0.00     0.140 HD
ATOM     34  C4  IDS d 404     -10.805   7.662  47.193  0.00  0.00     0.103 C 
ATOM     35  C5  IDS d 404     -11.416   7.380  45.823  0.00  0.00     0.152 C 
ATOM     36  O4  IDS d 404     -10.869   9.044  47.410  0.00  0.00    -0.348 OA
ATOM     37  O5  IDS d 404     -12.814   7.563  45.819  0.00  0.00    -0.340 OA
ATOM     38  C2  IDS d 404     -13.053   6.818  48.168  0.00  0.00     0.134 C 
ATOM     39  O62 IDS d 404      -9.950   7.812  43.991  0.00  0.00    -0.646 OA
ATOM     40  C3  IDS d 404     -11.529   6.912  48.345  0.00  0.00     0.094 C 
ATOM     41  O2  IDS d 404     -13.653   7.973  48.768  0.00  0.00    -0.244 OA
ATOM     42  O1S IDS d 404     -15.019   7.446  50.616  0.00  0.00    -0.572 OA
ATOM     43  O2S IDS d 404     -15.470   9.423  49.366  0.00  0.00    -0.572 OA
ATOM     44  S   IDS d 404     -15.100   8.043  49.344  0.00  0.00     0.252 S 
ATOM     45  O3  IDS d 404     -11.035   5.595  48.402  0.00  0.00    -0.390 OA
ATOM     46  C6  IDS d 404     -10.793   8.251  44.755  0.00  0.00     0.206 C 
ATOM     47  O3S IDS d 404     -15.915   7.256  48.495  0.00  0.00    -0.572 OA
ATOM     48  C1  IDS d 404     -13.525   6.680  46.694  0.00  0.00     0.161 C 
ATOM     49  O61 IDS d 404     -11.109   9.428  44.669  0.00  0.00    -0.646 OA
ATOM     50  H   IDS d 404      -9.796   7.308  47.194  0.00  0.00     0.092 H 
ATOM     51  H   IDS d 404     -11.208   6.353  45.606  0.00  0.00     0.104 H 
ATOM     52  H   IDS d 404     -13.365   5.915  48.650  0.00  0.00     0.097 H 
ATOM     53  H   IDS d 404     -11.339   7.474  49.235  0.00  0.00     0.091 H 
ATOM     54  H   IDS d 404     -11.237   5.137  47.570  0.00  0.00     0.210 HD
ATOM     55  H   IDS d 404     -14.552   6.973  46.634  0.00  0.00     0.133 H 
ATOM     56  C1  SGN d 405      -9.666   9.643  47.793  0.00  0.00     0.150 C 
ATOM     57  O6S SGN d 405      -5.786  10.209  46.861  0.00  0.00    -0.572 OA
ATOM     58  N   SGN d 405     -11.138  10.775  49.388  0.00  0.00    -0.210 NA
ATOM     59  S1  SGN d 405     -10.897  10.695  50.977  0.00  0.00     0.156 S 
ATOM     60  S2  SGN d 405      -5.400  10.907  45.638  0.00  0.00     0.251 S 
ATOM     61  O2S SGN d 405      -9.797  11.588  51.250  0.00  0.00    -0.296 OA
ATOM     62  C3  SGN d 405     -10.199  12.111  47.553  0.00  0.00     0.083 C 
ATOM     63  O5  SGN d 405      -8.716   9.793  46.713  0.00  0.00    -0.349 OA
ATOM     64  O3  SGN d 405     -10.326  13.316  48.284  0.00  0.00    -0.391 OA
ATOM     65  O6  SGN d 405      -6.728  11.547  45.020  0.00  0.00    -0.254 OA
ATOM     66  O5S SGN d 405      -4.500  12.011  45.871  0.00  0.00    -0.572 OA
ATOM     67  C5  SGN d 405      -8.963  10.913  45.818  0.00  0.00     0.090 C 
ATOM     68  O4S SGN d 405      -4.887  10.014  44.661  0.00  0.00    -0.572 OA
ATOM     69  O1S SGN d 405     -10.578   9.318  51.255  0.00  0.00    -0.296 OA
ATOM     70  C2  SGN d 405      -9.974  10.957  48.526  0.00  0.00     0.081 C 
ATOM     71  C6  SGN d 405      -7.932  10.882  44.658  0.00  0.00     0.067 C 
ATOM     72  O4  SGN d 405      -9.091  13.336  45.783  0.00  0.00    -0.390 OA
ATOM     73  O3S SGN d 405     -12.106  11.075  51.629  0.00  0.00    -0.296 OA
ATOM     74  C4  SGN d 405      -8.966  12.200  46.634  0.00  0.00     0.089 C 
ATOM     75  H   SGN d 405      -9.164   8.983  48.469  0.00  0.00     0.131 H 
ATOM     76  H   SGN d 405     -11.591   9.905  49.106  0.00  0.00     0.140 HD
ATOM     77  H   SGN d 405      -9.005  11.280  50.781  0.00  0.00     0.231 HD
ATOM     78  H   SGN d 405     -11.086  11.952  46.976  0.00  0.00     0.089 H 
ATOM     79  H   SGN d 405      -9.523  13.463  48.808  0.00  0.00     0.210 HD
ATOM     80  H   SGN d 405      -9.924  10.849  45.351  0.00  0.00     0.090 H 
ATOM     81  H   SGN d 405      -9.754   9.080  50.803  0.00  0.00     0.231 HD
ATOM     82  H   SGN d 405      -9.126  11.213  49.125  0.00  0.00     0.076 H 
ATOM     83  H   SGN d 405      -7.708   9.864  44.417  0.00  0.00     0.080 H 
ATOM     84  H   SGN d 405      -8.356  11.385  43.815  0.00  0.00     0.080 H 
ATOM     85  H   SGN d 405      -9.091  14.144  46.320  0.00  0.00     0.210 HD
ATOM     86  H   SGN d 405     -12.806  10.440  51.409  0.00  0.00     0.231 HD
ATOM     87  H   SGN d 405      -8.055  12.307  47.185  0.00  0.00     0.091 H 
ATOM     88  O5S SGN d 403     -19.161   6.854  44.562  0.00  0.00    -0.572 OA
ATOM     89  C3  SGN d 403     -13.282   4.019  44.351  0.00  0.00     0.083 C 
ATOM     90  O5  SGN d 403     -16.046   3.462  44.600  0.00  0.00    -0.349 OA
ATOM     91  S1  SGN d 403     -13.518   2.783  40.748  0.00  0.00     0.156 S 
ATOM     92  O3  SGN d 403     -12.232   4.783  43.839  0.00  0.00    -0.391 OA
ATOM     93  O4S SGN d 403     -17.041   7.957  45.008  0.00  0.00    -0.572 OA
ATOM     94  N   SGN d 403     -13.311   2.599  42.338  0.00  0.00    -0.210 NA
ATOM     95  O4  SGN d 403     -13.420   5.338  46.292  0.00  0.00    -0.348 OA
ATOM     96  O6S SGN d 403     -18.452   7.246  46.783  0.00  0.00    -0.572 OA
ATOM     97  C4  SGN d 403     -14.169   4.930  45.184  0.00  0.00     0.095 C 
ATOM     98  C5  SGN d 403     -15.393   4.116  45.668  0.00  0.00     0.091 C 
ATOM     99  O6  SGN d 403     -17.295   5.592  45.364  0.00  0.00    -0.254 OA
ATOM    100  O1S SGN d 403     -14.896   3.156  40.546  0.00  0.00    -0.296 OA
ATOM    101  C1  SGN d 403     -15.229   2.633  43.784  0.00  0.00     0.150 C 
ATOM    102  O3S SGN d 403     -13.249   1.514  40.163  0.00  0.00    -0.296 OA
ATOM    103  O2S SGN d 403     -12.593   3.831  40.363  0.00  0.00    -0.296 OA
ATOM    104  C2  SGN d 403     -14.094   3.442  43.216  0.00  0.00     0.081 C 
ATOM    105  C6  SGN d 403     -16.500   4.950  46.354  0.00  0.00     0.067 C 
ATOM    106  S2  SGN d 403     -18.038   6.992  45.449  0.00  0.00     0.251 S 
ATOM    107  H   SGN d 403     -12.895   3.220  44.947  0.00  0.00     0.089 H 
ATOM    108  H   SGN d 403     -12.590   5.505  43.300  0.00  0.00     0.210 HD
ATOM    109  H   SGN d 403     -12.327   2.776  42.540  0.00  0.00     0.140 HD
ATOM    110  H   SGN d 403     -14.503   5.775  44.619  0.00  0.00     0.091 H 
ATOM    111  H   SGN d 403     -14.958   3.437  46.372  0.00  0.00     0.090 H 
ATOM    112  H   SGN d 403     -15.059   4.022  40.951  0.00  0.00     0.231 HD
ATOM    113  H   SGN d 403     -15.859   2.257  43.005  0.00  0.00     0.131 H 
ATOM    114  H   SGN d 403     -13.908   0.871  40.468  0.00  0.00     0.231 HD
ATOM    115  H   SGN d 403     -12.843   4.660  40.800  0.00  0.00     0.231 HD
ATOM    116  H   SGN d 403     -14.455   4.265  42.635  0.00  0.00     0.076 H 
ATOM    117  H   SGN d 403     -16.051   5.689  46.984  0.00  0.00     0.080 H 
ATOM    118  H   SGN d 403     -17.118   4.305  46.942  0.00  0.00     0.080 H 
ATOM    119  O62 IDS d 402     -16.633   1.585  47.755  0.00  0.00    -0.646 OA
ATOM    120  C1  IDS d 402     -14.111  -1.784  45.779  0.00  0.00     0.161 C 
ATOM    121  O3S IDS d 402     -11.783  -2.920  43.623  0.00  0.00    -0.572 OA
ATOM    122  O3  IDS d 402     -16.581  -1.464  43.947  0.00  0.00    -0.390 OA
ATOM    123  O5  IDS d 402     -14.187  -0.556  46.458  0.00  0.00    -0.340 OA
ATOM    124  O4  IDS d 402     -14.710   1.522  44.461  0.00  0.00    -0.348 OA
ATOM    125  O61 IDS d 402     -14.534   1.894  47.712  0.00  0.00    -0.646 OA
ATOM    126  O1S IDS d 402     -11.923  -1.387  41.789  0.00  0.00    -0.572 OA
ATOM    127  O2S IDS d 402     -10.726  -0.790  43.747  0.00  0.00    -0.572 OA
ATOM    128  C3  IDS d 402     -15.430  -0.665  43.878  0.00  0.00     0.094 C 
ATOM    129  C5  IDS d 402     -15.425   0.123  46.284  0.00  0.00     0.152 C 
ATOM    130  S   IDS d 402     -11.795  -1.536  43.214  0.00  0.00     0.252 S 
ATOM    131  C4  IDS d 402     -15.629   0.528  44.805  0.00  0.00     0.103 C 
ATOM    132  C2  IDS d 402     -14.226  -1.536  44.276  0.00  0.00     0.134 C 
ATOM    133  C6  IDS d 402     -15.539   1.267  47.316  0.00  0.00     0.206 C 
ATOM    134  O2  IDS d 402     -13.069  -0.884  43.830  0.00  0.00    -0.244 OA
ATOM    135  H   IDS d 402     -13.166  -2.232  46.006  0.00  0.00     0.133 H 
ATOM    136  H   IDS d 402     -16.478  -2.232  43.363  0.00  0.00     0.210 HD
ATOM    137  H   IDS d 402     -15.249  -0.287  42.894  0.00  0.00     0.091 H 
ATOM    138  H   IDS d 402     -16.250  -0.528  46.489  0.00  0.00     0.104 H 
ATOM    139  H   IDS d 402     -16.630   0.890  44.695  0.00  0.00     0.092 H 
ATOM    140  H   IDS d 402     -14.356  -2.498  43.826  0.00  0.00     0.097 H 
ENDROOT
TORSDOF 45
ENDMDL
MODEL 9
REMARK VINA RESULT:      -6.3      4.365      8.775
REMARK  0 active torsions:
REMARK  status: ('A' for Active; 'I' for Inactive)
REMARK       I    between atoms: C5_1  and  C6_64 
REMARK       I    between atoms: C4_2  and  O4_32 
REMARK       I    between atoms: C1_3  and  O4_32 
REMARK       I    between atoms: S1_6  and  N_87 
REMARK       I    between atoms: S1_6  and  O1S_23 
REMARK       I    between atoms: S1_6  and  O2S_31 
REMARK       I    between atoms: S1_6  and  O3S_47 
REMARK       I    between atoms: N_7  and  C2_53 
REMARK       I    between atoms: N_7  and  S1_10 
REMARK       I    between atoms: C3_9  and  O3_14 
REMARK       I    between atoms: S1_10  and  O1S_52 
REMARK       I    between atoms: S1_10  and  O2S_17 
REMARK       I    between atoms: S1_10  and  O3S_80 
REMARK       I    between atoms: C5_12  and  C6_73 
REMARK       I    between atoms: S1_13  and  N_25 
REMARK       I    between atoms: S1_13  and  O1S_58 
REMARK       I    between atoms: S1_13  and  O2S_66 
REMARK       I    between atoms: S1_13  and  O3S_62 
REMARK       I    between atoms: S2_15  and  O6_41 
REMARK       I    between atoms: C3_16  and  O3_48 
REMARK       I    between atoms: C2_18  and  N_87 
REMARK       I    between atoms: C1_19  and  O4_39 
REMARK       I    between atoms: C3_20  and  O3_27 
REMARK       I    between atoms: C1_24  and  O1_84 
REMARK       I    between atoms: N_25  and  C2_78 
REMARK       I    between atoms: O4_28  and  C4_30 
REMARK       I    between atoms: O4_28  and  C1_86 
REMARK       I    between atoms: C2_34  and  O2_59 
REMARK       I    between atoms: O3_35  and  C3_60 
REMARK       I    between atoms: C5_37  and  C6_81 
REMARK       I    between atoms: O4_39  and  C4_79 
REMARK       I    between atoms: O4_40  and  C4_77 
REMARK       I    between atoms: O4_40  and  C1_61 
REMARK       I    between atoms: O6_41  and  C6_57 
REMARK       I    between atoms: O6_45  and  C6_81 
REMARK       I    between atoms: O6_45  and  S2_83 
REMARK       I    between atoms: C3_46  and  O3_72 
REMARK       I    between atoms: C5_50  and  C6_57 
REMARK       I    between atoms: O2_59  and  S_69 
REMARK       I    between atoms: O6_63  and  C6_64 
REMARK       I    between atoms: O6_63  and  S2_70 
REMARK       I    between atoms: C5_67  and  C6_88 
REMARK       I    between atoms: S_71  and  O2_89 
REMARK       I    between atoms: O4_75  and  C4_82 
REMARK       I    between atoms: C2_85  and  O2_89 
ROOT
ATOM      1  C5  SGN d 401     -11.623  -5.964  47.815  0.00  0.00     0.091 C 
ATOM      2  S1  SGN d 401     -13.286  -6.331  42.440  0.00  0.00     0.156 S 
ATOM      3  C3  SGN d 401     -10.929  -5.343  45.468  0.00  0.00     0.083 C 
ATOM      4  C2  SGN d 401     -12.207  -6.064  44.990  0.00  0.00     0.081 C 
ATOM      5  O1S SGN d 401     -14.486  -5.939  43.154  0.00  0.00    -0.296 OA
ATOM      6  C1  SGN d 401     -12.499  -7.199  45.985  0.00  0.00     0.147 C 
ATOM      7  O2S SGN d 401     -12.815  -5.284  41.573  0.00  0.00    -0.296 OA
ATOM      8  O4  SGN d 401      -9.894  -4.332  47.365  0.00  0.00    -0.348 OA
ATOM      9  O4S SGN d 401     -12.810  -2.893  50.515  0.00  0.00    -0.572 OA
ATOM     10  O3S SGN d 401     -13.450  -7.593  41.750  0.00  0.00    -0.296 OA
ATOM     11  O3  SGN d 401     -10.660  -4.234  44.630  0.00  0.00    -0.391 OA
ATOM     12  O5  SGN d 401     -12.726  -6.681  47.261  0.00  0.00    -0.350 OA
ATOM     13  O6S SGN d 401     -14.762  -4.304  50.601  0.00  0.00    -0.572 OA
ATOM     14  O6  SGN d 401     -13.167  -4.556  48.837  0.00  0.00    -0.254 OA
ATOM     15  C6  SGN d 401     -12.135  -5.450  49.153  0.00  0.00     0.067 C 
ATOM     16  S2  SGN d 401     -13.849  -3.533  49.775  0.00  0.00     0.251 S 
ATOM     17  O5S SGN d 401     -14.512  -2.620  48.884  0.00  0.00    -0.572 OA
ATOM     18  C4  SGN d 401     -11.129  -4.810  46.890  0.00  0.00     0.095 C 
ATOM     19  O1  SGN d 401     -11.399  -8.123  46.044  0.00  0.00    -0.369 OA
ATOM     20  N   SGN d 401     -12.076  -6.596  43.588  0.00  0.00    -0.210 NA
ATOM     21  H   SGN d 401     -10.761  -6.589  47.925  0.00  0.00     0.090 H 
ATOM     22  H   SGN d 401     -10.118  -6.042  45.441  0.00  0.00     0.089 H 
ATOM     23  H   SGN d 401     -13.017  -5.367  44.961  0.00  0.00     0.076 H 
ATOM     24  H   SGN d 401     -14.335  -5.091  43.600  0.00  0.00     0.231 HD
ATOM     25  H   SGN d 401     -13.373  -7.715  45.646  0.00  0.00     0.131 H 
ATOM     26  H   SGN d 401     -12.722  -4.463  42.080  0.00  0.00     0.231 HD
ATOM     27  H   SGN d 401     -13.767  -8.264  42.375  0.00  0.00     0.231 HD
ATOM     28  H   SGN d 401     -11.404  -3.612  44.668  0.00  0.00     0.210 HD
ATOM     29  H   SGN d 401     -11.353  -4.948  49.685  0.00  0.00     0.080 H 
ATOM     30  H   SGN d 401     -12.475  -6.247  49.782  0.00  0.00     0.080 H 
ATOM     31  H   SGN d 401     -11.856  -4.025  46.887  0.00  0.00     0.091 H 
ATOM     32  H   SGN d 401     -10.604  -7.661  46.352  0.00  0.00     0.212 HD
ATOM     33  H   SGN d 401     -11.219  -6.195  43.205  0.00  0.00     0.140 HD
ATOM     34  C4  IDS d 404     -11.387   6.814  47.729  0.00  0.00     0.103 C 
ATOM     35  C5  IDS d 404      -9.964   6.375  48.063  0.00  0.00     0.152 C 
ATOM     36  O4  IDS d 404     -11.320   8.117  47.222  0.00  0.00    -0.348 OA
ATOM     37  O5  IDS d 404      -9.195   6.145  46.905  0.00  0.00    -0.340 OA
ATOM     38  C2  IDS d 404     -11.146   5.351  45.603  0.00  0.00     0.134 C 
ATOM     39  O62 IDS d 404      -9.140   7.220  50.136  0.00  0.00    -0.646 OA
ATOM     40  C3  IDS d 404     -12.083   5.881  46.700  0.00  0.00     0.094 C 
ATOM     41  O2  IDS d 404     -11.151   6.280  44.512  0.00  0.00    -0.244 OA
ATOM     42  O1S IDS d 404     -12.055   5.371  42.534  0.00  0.00    -0.572 OA
ATOM     43  O2S IDS d 404     -10.467   7.140  42.378  0.00  0.00    -0.572 OA
ATOM     44  S   IDS d 404     -10.858   5.926  43.022  0.00  0.00     0.252 S 
ATOM     45  O3  IDS d 404     -12.595   4.763  47.385  0.00  0.00    -0.390 OA
ATOM     46  C6  IDS d 404      -9.266   7.393  48.936  0.00  0.00     0.206 C 
ATOM     47  O3S IDS d 404      -9.841   4.941  43.032  0.00  0.00    -0.572 OA
ATOM     48  C1  IDS d 404      -9.687   5.090  46.071  0.00  0.00     0.161 C 
ATOM     49  O61 IDS d 404      -8.844   8.429  48.443  0.00  0.00    -0.646 OA
ATOM     50  H   IDS d 404     -11.976   6.767  48.621  0.00  0.00     0.092 H 
ATOM     51  H   IDS d 404     -10.052   5.453  48.600  0.00  0.00     0.104 H 
ATOM     52  H   IDS d 404     -11.523   4.394  45.310  0.00  0.00     0.097 H 
ATOM     53  H   IDS d 404     -12.840   6.469  46.226  0.00  0.00     0.091 H 
ATOM     54  H   IDS d 404     -11.865   4.271  47.793  0.00  0.00     0.210 HD
ATOM     55  H   IDS d 404      -9.049   5.073  45.212  0.00  0.00     0.133 H 
ATOM     56  C1  SGN d 405     -12.181   9.037  47.825  0.00  0.00     0.150 C 
ATOM     57  O6S SGN d 405     -13.363  10.706  51.299  0.00  0.00    -0.572 OA
ATOM     58  N   SGN d 405     -12.561   9.687  45.496  0.00  0.00    -0.210 NA
ATOM     59  S1  SGN d 405     -14.028   9.672  44.834  0.00  0.00     0.156 S 
ATOM     60  S2  SGN d 405     -12.437  11.492  52.109  0.00  0.00     0.251 S 
ATOM     61  O2S SGN d 405     -14.698  10.844  45.344  0.00  0.00    -0.296 OA
ATOM     62  C3  SGN d 405     -11.317  11.246  46.929  0.00  0.00     0.083 C 
ATOM     63  O5  SGN d 405     -11.758   9.461  49.141  0.00  0.00    -0.349 OA
ATOM     64  O3  SGN d 405     -11.673  12.360  46.131  0.00  0.00    -0.391 OA
ATOM     65  O6  SGN d 405     -11.121  11.724  51.232  0.00  0.00    -0.254 OA
ATOM     66  O5S SGN d 405     -12.936  12.807  52.430  0.00  0.00    -0.572 OA
ATOM     67  C5  SGN d 405     -10.706  10.465  49.163  0.00  0.00     0.090 C 
ATOM     68  O4S SGN d 405     -12.030  10.789  53.274  0.00  0.00    -0.572 OA
ATOM     69  O1S SGN d 405     -14.642   8.445  45.271  0.00  0.00    -0.296 OA
ATOM     70  C2  SGN d 405     -12.428  10.202  46.855  0.00  0.00     0.081 C 
ATOM     71  C6  SGN d 405     -10.286  10.740  50.632  0.00  0.00     0.067 C 
ATOM     72  O4  SGN d 405     -10.233  12.748  48.488  0.00  0.00    -0.390 OA
ATOM     73  O3S SGN d 405     -13.875   9.682  43.417  0.00  0.00    -0.296 OA
ATOM     74  C4  SGN d 405     -11.187  11.693  48.397  0.00  0.00     0.089 C 
ATOM     75  H   SGN d 405     -13.114   8.547  48.015  0.00  0.00     0.131 H 
ATOM     76  H   SGN d 405     -12.221   8.725  45.501  0.00  0.00     0.140 HD
ATOM     77  H   SGN d 405     -14.772  10.780  46.310  0.00  0.00     0.231 HD
ATOM     78  H   SGN d 405     -10.392  10.841  46.577  0.00  0.00     0.089 H 
ATOM     79  H   SGN d 405     -12.512  12.730  46.448  0.00  0.00     0.210 HD
ATOM     80  H   SGN d 405      -9.819  10.129  48.667  0.00  0.00     0.090 H 
ATOM     81  H   SGN d 405     -14.737   8.457  46.237  0.00  0.00     0.231 HD
ATOM     82  H   SGN d 405     -13.336  10.690  47.141  0.00  0.00     0.076 H 
ATOM     83  H   SGN d 405     -10.361   9.832  51.192  0.00  0.00     0.080 H 
ATOM     84  H   SGN d 405      -9.280  11.103  50.634  0.00  0.00     0.080 H 
ATOM     85  H   SGN d 405     -10.557  13.519  47.996  0.00  0.00     0.210 HD
ATOM     86  H   SGN d 405     -13.421   8.874  43.134  0.00  0.00     0.231 HD
ATOM     87  H   SGN d 405     -12.111  12.056  48.795  0.00  0.00     0.091 H 
ATOM     88  O5S SGN d 403      -4.906   3.637  42.700  0.00  0.00    -0.572 OA
ATOM     89  C3  SGN d 403      -8.271   2.625  48.204  0.00  0.00     0.083 C 
ATOM     90  O5  SGN d 403      -7.107   1.291  45.996  0.00  0.00    -0.349 OA
ATOM     91  S1  SGN d 403      -5.329   1.391  50.298  0.00  0.00     0.156 S 
ATOM     92  O3  SGN d 403      -8.279   3.663  49.137  0.00  0.00    -0.391 OA
ATOM     93  O4S SGN d 403      -6.226   5.304  43.879  0.00  0.00    -0.572 OA
ATOM     94  N   SGN d 403      -6.795   1.267  49.635  0.00  0.00    -0.210 NA
ATOM     95  O4  SGN d 403      -9.615   3.838  46.704  0.00  0.00    -0.348 OA
ATOM     96  O6S SGN d 403      -7.074   4.206  41.949  0.00  0.00    -0.572 OA
ATOM     97  C4  SGN d 403      -8.358   3.236  46.815  0.00  0.00     0.095 C 
ATOM     98  C5  SGN d 403      -8.242   2.100  45.770  0.00  0.00     0.091 C 
ATOM     99  O6  SGN d 403      -6.756   2.965  44.057  0.00  0.00    -0.254 OA
ATOM    100  O1S SGN d 403      -4.376   1.351  49.218  0.00  0.00    -0.296 OA
ATOM    101  C1  SGN d 403      -6.986   0.737  47.298  0.00  0.00     0.150 C 
ATOM    102  O3S SGN d 403      -5.179   0.257  51.145  0.00  0.00    -0.296 OA
ATOM    103  O2S SGN d 403      -5.333   2.664  50.993  0.00  0.00    -0.296 OA
ATOM    104  C2  SGN d 403      -6.984   1.843  48.320  0.00  0.00     0.081 C 
ATOM    105  C6  SGN d 403      -8.101   2.575  44.304  0.00  0.00     0.067 C 
ATOM    106  S2  SGN d 403      -6.217   4.089  43.075  0.00  0.00     0.251 S 
ATOM    107  H   SGN d 403      -9.097   1.968  48.380  0.00  0.00     0.089 H 
ATOM    108  H   SGN d 403      -7.528   4.253  48.971  0.00  0.00     0.210 HD
ATOM    109  H   SGN d 403      -7.455   1.720  50.266  0.00  0.00     0.140 HD
ATOM    110  H   SGN d 403      -7.578   3.951  46.652  0.00  0.00     0.091 H 
ATOM    111  H   SGN d 403      -9.165   1.573  45.896  0.00  0.00     0.090 H 
ATOM    112  H   SGN d 403      -4.494   2.130  48.653  0.00  0.00     0.231 HD
ATOM    113  H   SGN d 403      -6.061   0.199  47.316  0.00  0.00     0.131 H 
ATOM    114  H   SGN d 403      -5.186  -0.551  50.608  0.00  0.00     0.231 HD
ATOM    115  H   SGN d 403      -5.438   3.382  50.350  0.00  0.00     0.231 HD
ATOM    116  H   SGN d 403      -6.181   2.529  48.150  0.00  0.00     0.076 H 
ATOM    117  H   SGN d 403      -8.750   3.409  44.136  0.00  0.00     0.080 H 
ATOM    118  H   SGN d 403      -8.367   1.776  43.644  0.00  0.00     0.080 H 
ATOM    119  O62 IDS d 402      -9.723  -0.691  44.249  0.00  0.00    -0.646 OA
ATOM    120  C1  IDS d 402      -9.926  -3.177  48.173  0.00  0.00     0.161 C 
ATOM    121  O3S IDS d 402      -9.531  -3.580  51.495  0.00  0.00    -0.572 OA
ATOM    122  O3  IDS d 402      -7.043  -3.576  47.129  0.00  0.00    -0.390 OA
ATOM    123  O5  IDS d 402     -10.263  -2.027  47.439  0.00  0.00    -0.340 OA
ATOM    124  O4  IDS d 402      -7.997  -0.179  47.612  0.00  0.00    -0.348 OA
ATOM    125  O61 IDS d 402     -10.747   0.212  45.874  0.00  0.00    -0.646 OA
ATOM    126  O1S IDS d 402      -7.687  -2.145  52.018  0.00  0.00    -0.572 OA
ATOM    127  O2S IDS d 402      -9.862  -1.236  51.751  0.00  0.00    -0.572 OA
ATOM    128  C3  IDS d 402      -7.469  -2.478  47.892  0.00  0.00     0.094 C 
ATOM    129  C5  IDS d 402      -9.359  -1.734  46.380  0.00  0.00     0.152 C 
ATOM    130  S   IDS d 402      -8.968  -2.258  51.373  0.00  0.00     0.252 S 
ATOM    131  C4  IDS d 402      -7.953  -1.399  46.932  0.00  0.00     0.103 C 
ATOM    132  C2  IDS d 402      -8.572  -2.965  48.847  0.00  0.00     0.134 C 
ATOM    133  C6  IDS d 402      -9.983  -0.677  45.442  0.00  0.00     0.206 C 
ATOM    134  O2  IDS d 402      -8.709  -2.004  49.857  0.00  0.00    -0.244 OA
ATOM    135  H   IDS d 402     -10.684  -3.334  48.912  0.00  0.00     0.133 H 
ATOM    136  H   IDS d 402      -6.730  -4.279  47.721  0.00  0.00     0.210 HD
ATOM    137  H   IDS d 402      -6.684  -2.059  48.485  0.00  0.00     0.091 H 
ATOM    138  H   IDS d 402      -9.196  -2.597  45.768  0.00  0.00     0.104 H 
ATOM    139  H   IDS d 402      -7.277  -1.341  46.104  0.00  0.00     0.092 H 
ATOM    140  H   IDS d 402      -8.277  -3.922  49.226  0.00  0.00     0.097 H 
ENDROOT
TORSDOF 45
ENDMDL
MODEL 10
REMARK VINA RESULT:      -6.1      3.524      5.819
REMARK  0 active torsions:
REMARK  status: ('A' for Active; 'I' for Inactive)
REMARK       I    between atoms: C5_1  and  C6_64 
REMARK       I    between atoms: C4_2  and  O4_32 
REMARK       I    between atoms: C1_3  and  O4_32 
REMARK       I    between atoms: S1_6  and  N_87 
REMARK       I    between atoms: S1_6  and  O1S_23 
REMARK       I    between atoms: S1_6  and  O2S_31 
REMARK       I    between atoms: S1_6  and  O3S_47 
REMARK       I    between atoms: N_7  and  C2_53 
REMARK       I    between atoms: N_7  and  S1_10 
REMARK       I    between atoms: C3_9  and  O3_14 
REMARK       I    between atoms: S1_10  and  O1S_52 
REMARK       I    between atoms: S1_10  and  O2S_17 
REMARK       I    between atoms: S1_10  and  O3S_80 
REMARK       I    between atoms: C5_12  and  C6_73 
REMARK       I    between atoms: S1_13  and  N_25 
REMARK       I    between atoms: S1_13  and  O1S_58 
REMARK       I    between atoms: S1_13  and  O2S_66 
REMARK       I    between atoms: S1_13  and  O3S_62 
REMARK       I    between atoms: S2_15  and  O6_41 
REMARK       I    between atoms: C3_16  and  O3_48 
REMARK       I    between atoms: C2_18  and  N_87 
REMARK       I    between atoms: C1_19  and  O4_39 
REMARK       I    between atoms: C3_20  and  O3_27 
REMARK       I    between atoms: C1_24  and  O1_84 
REMARK       I    between atoms: N_25  and  C2_78 
REMARK       I    between atoms: O4_28  and  C4_30 
REMARK       I    between atoms: O4_28  and  C1_86 
REMARK       I    between atoms: C2_34  and  O2_59 
REMARK       I    between atoms: O3_35  and  C3_60 
REMARK       I    between atoms: C5_37  and  C6_81 
REMARK       I    between atoms: O4_39  and  C4_79 
REMARK       I    between atoms: O4_40  and  C4_77 
REMARK       I    between atoms: O4_40  and  C1_61 
REMARK       I    between atoms: O6_41  and  C6_57 
REMARK       I    between atoms: O6_45  and  C6_81 
REMARK       I    between atoms: O6_45  and  S2_83 
REMARK       I    between atoms: C3_46  and  O3_72 
REMARK       I    between atoms: C5_50  and  C6_57 
REMARK       I    between atoms: O2_59  and  S_69 
REMARK       I    between atoms: O6_63  and  C6_64 
REMARK       I    between atoms: O6_63  and  S2_70 
REMARK       I    between atoms: C5_67  and  C6_88 
REMARK       I    between atoms: S_71  and  O2_89 
REMARK       I    between atoms: O4_75  and  C4_82 
REMARK       I    between atoms: C2_85  and  O2_89 
ROOT
ATOM      1  C5  SGN d 401     -10.900  -4.150  46.509  0.00  0.00     0.091 C 
ATOM      2  S1  SGN d 401     -16.533  -4.106  46.740  0.00  0.00     0.156 S 
ATOM      3  C3  SGN d 401     -12.929  -3.098  45.437  0.00  0.00     0.083 C 
ATOM      4  C2  SGN d 401     -13.778  -3.981  46.376  0.00  0.00     0.081 C 
ATOM      5  O1S SGN d 401     -16.124  -4.051  48.131  0.00  0.00    -0.296 OA
ATOM      6  C1  SGN d 401     -12.988  -5.274  46.637  0.00  0.00     0.147 C 
ATOM      7  O2S SGN d 401     -17.160  -2.881  46.321  0.00  0.00    -0.296 OA
ATOM      8  O4  SGN d 401     -10.753  -2.171  45.125  0.00  0.00    -0.348 OA
ATOM      9  O4S SGN d 401      -8.355  -1.755  48.942  0.00  0.00    -0.572 OA
ATOM     10  O3S SGN d 401     -17.342  -5.271  46.456  0.00  0.00    -0.296 OA
ATOM     11  O3  SGN d 401     -13.576  -1.856  45.229  0.00  0.00    -0.391 OA
ATOM     12  O5  SGN d 401     -11.776  -4.984  47.267  0.00  0.00    -0.350 OA
ATOM     13  O6S SGN d 401      -8.891  -3.513  50.501  0.00  0.00    -0.572 OA
ATOM     14  O6  SGN d 401     -10.198  -3.215  48.521  0.00  0.00    -0.254 OA
ATOM     15  C6  SGN d 401      -9.701  -3.928  47.421  0.00  0.00     0.067 C 
ATOM     16  S2  SGN d 401      -9.388  -2.477  49.611  0.00  0.00     0.251 S 
ATOM     17  O5S SGN d 401     -10.342  -1.597  50.231  0.00  0.00    -0.572 OA
ATOM     18  C4  SGN d 401     -11.568  -2.809  46.078  0.00  0.00     0.095 C 
ATOM     19  O1  SGN d 401     -12.723  -5.969  45.407  0.00  0.00    -0.369 OA
ATOM     20  N   SGN d 401     -15.137  -4.284  45.806  0.00  0.00    -0.210 NA
ATOM     21  H   SGN d 401     -10.623  -4.607  45.582  0.00  0.00     0.090 H 
ATOM     22  H   SGN d 401     -12.804  -3.618  44.510  0.00  0.00     0.089 H 
ATOM     23  H   SGN d 401     -13.957  -3.454  47.290  0.00  0.00     0.076 H 
ATOM     24  H   SGN d 401     -15.585  -3.257  48.279  0.00  0.00     0.231 HD
ATOM     25  H   SGN d 401     -13.582  -5.898  47.272  0.00  0.00     0.131 H 
ATOM     26  H   SGN d 401     -16.581  -2.133  46.532  0.00  0.00     0.231 HD
ATOM     27  H   SGN d 401     -16.878  -6.069  46.757  0.00  0.00     0.231 HD
ATOM     28  H   SGN d 401     -13.680  -1.400  46.079  0.00  0.00     0.210 HD
ATOM     29  H   SGN d 401      -8.946  -3.361  46.917  0.00  0.00     0.080 H 
ATOM     30  H   SGN d 401      -9.249  -4.853  47.717  0.00  0.00     0.080 H 
ATOM     31  H   SGN d 401     -11.695  -2.185  46.937  0.00  0.00     0.091 H 
ATOM     32  H   SGN d 401     -12.184  -5.408  44.828  0.00  0.00     0.212 HD
ATOM     33  H   SGN d 401     -15.253  -3.679  44.993  0.00  0.00     0.140 HD
ATOM     34  C4  IDS d 404      -9.876   8.329  49.070  0.00  0.00     0.103 C 
ATOM     35  C5  IDS d 404      -9.223   8.131  47.706  0.00  0.00     0.152 C 
ATOM     36  O4  IDS d 404     -10.240   9.677  49.174  0.00  0.00    -0.348 OA
ATOM     37  O5  IDS d 404     -10.159   8.210  46.654  0.00  0.00    -0.340 OA
ATOM     38  C2  IDS d 404     -11.980   7.238  48.022  0.00  0.00     0.134 C 
ATOM     39  O62 IDS d 404      -6.946   8.833  47.598  0.00  0.00    -0.646 OA
ATOM     40  C3  IDS d 404     -11.122   7.427  49.283  0.00  0.00     0.094 C 
ATOM     41  O2  IDS d 404     -12.956   8.287  47.974  0.00  0.00    -0.244 OA
ATOM     42  O1S IDS d 404     -15.168   7.495  48.165  0.00  0.00    -0.572 OA
ATOM     43  O2S IDS d 404     -14.764   9.540  47.013  0.00  0.00    -0.572 OA
ATOM     44  S   IDS d 404     -14.343   8.199  47.268  0.00  0.00     0.252 S 
ATOM     45  O3  IDS d 404     -10.687   6.150  49.684  0.00  0.00    -0.390 OA
ATOM     46  C6  IDS d 404      -8.120   9.138  47.473  0.00  0.00     0.206 C 
ATOM     47  O3S IDS d 404     -14.153   7.435  46.091  0.00  0.00    -0.572 OA
ATOM     48  C1  IDS d 404     -11.175   7.202  46.692  0.00  0.00     0.161 C 
ATOM     49  O61 IDS d 404      -8.401  10.292  47.185  0.00  0.00    -0.646 OA
ATOM     50  H   IDS d 404      -9.173   8.051  49.827  0.00  0.00     0.092 H 
ATOM     51  H   IDS d 404      -8.804   7.146  47.712  0.00  0.00     0.104 H 
ATOM     52  H   IDS d 404     -12.438   6.275  48.100  0.00  0.00     0.097 H 
ATOM     53  H   IDS d 404     -11.726   7.917  50.017  0.00  0.00     0.091 H 
ATOM     54  H   IDS d 404     -10.146   5.756  48.980  0.00  0.00     0.210 HD
ATOM     55  H   IDS d 404     -11.838   7.424  45.884  0.00  0.00     0.133 H 
ATOM     56  C1  SGN d 405      -9.807  10.325  50.333  0.00  0.00     0.150 C 
ATOM     57  O6S SGN d 405      -6.631  11.255  52.635  0.00  0.00    -0.572 OA
ATOM     58  N   SGN d 405     -12.094  11.196  50.288  0.00  0.00    -0.210 NA
ATOM     59  S1  SGN d 405     -13.110  10.989  51.518  0.00  0.00     0.156 S 
ATOM     60  S2  SGN d 405      -5.548  12.088  52.121  0.00  0.00     0.251 S 
ATOM     61  O2S SGN d 405     -12.696  11.931  52.530  0.00  0.00    -0.296 OA
ATOM     62  C3  SGN d 405     -10.265  12.759  49.789  0.00  0.00     0.083 C 
ATOM     63  O5  SGN d 405      -8.396  10.642  50.334  0.00  0.00    -0.349 OA
ATOM     64  O3  SGN d 405     -11.034  13.880  50.184  0.00  0.00    -0.391 OA
ATOM     65  O6  SGN d 405      -6.033  12.684  50.719  0.00  0.00    -0.254 OA
ATOM     66  O5S SGN d 405      -5.260  13.228  52.957  0.00  0.00    -0.572 OA
ATOM     67  C5  SGN d 405      -8.021  11.818  49.564  0.00  0.00     0.090 C 
ATOM     68  O4S SGN d 405      -4.379  11.327  51.855  0.00  0.00    -0.572 OA
ATOM     69  O1S SGN d 405     -12.948   9.620  51.933  0.00  0.00    -0.296 OA
ATOM     70  C2  SGN d 405     -10.709  11.541  50.594  0.00  0.00     0.081 C 
ATOM     71  C6  SGN d 405      -6.476  11.968  49.573  0.00  0.00     0.067 C 
ATOM     72  O4  SGN d 405      -8.362  14.218  49.459  0.00  0.00    -0.390 OA
ATOM     73  O3S SGN d 405     -14.434  11.218  51.043  0.00  0.00    -0.296 OA
ATOM     74  C4  SGN d 405      -8.782  13.021  50.109  0.00  0.00     0.089 C 
ATOM     75  H   SGN d 405      -9.904   9.644  51.153  0.00  0.00     0.131 H 
ATOM     76  H   SGN d 405     -12.080  10.325  49.756  0.00  0.00     0.140 HD
ATOM     77  H   SGN d 405     -11.791  11.725  52.813  0.00  0.00     0.231 HD
ATOM     78  H   SGN d 405     -10.399  12.590  48.742  0.00  0.00     0.089 H 
ATOM     79  H   SGN d 405     -10.915  14.036  51.133  0.00  0.00     0.210 HD
ATOM     80  H   SGN d 405      -8.297  11.727  48.534  0.00  0.00     0.090 H 
ATOM     81  H   SGN d 405     -12.042   9.484  52.253  0.00  0.00     0.231 HD
ATOM     82  H   SGN d 405     -10.628  11.802  51.628  0.00  0.00     0.076 H 
ATOM     83  H   SGN d 405      -6.031  10.996  49.575  0.00  0.00     0.080 H 
ATOM     84  H   SGN d 405      -6.185  12.515  48.700  0.00  0.00     0.080 H 
ATOM     85  H   SGN d 405      -8.856  14.971  49.819  0.00  0.00     0.210 HD
ATOM     86  H   SGN d 405     -14.655  10.557  50.369  0.00  0.00     0.231 HD
ATOM     87  H   SGN d 405      -8.608  13.144  51.157  0.00  0.00     0.091 H 
ATOM     88  O5S SGN d 403     -13.306   7.160  41.055  0.00  0.00    -0.572 OA
ATOM     89  C3  SGN d 403      -8.958   4.792  45.312  0.00  0.00     0.083 C 
ATOM     90  O5  SGN d 403     -10.893   4.014  43.398  0.00  0.00    -0.349 OA
ATOM     91  S1  SGN d 403      -6.284   3.876  42.748  0.00  0.00     0.156 S 
ATOM     92  O3  SGN d 403      -7.977   5.674  45.767  0.00  0.00    -0.391 OA
ATOM     93  O4S SGN d 403     -12.375   8.369  42.947  0.00  0.00    -0.572 OA
ATOM     94  N   SGN d 403      -7.311   3.563  43.952  0.00  0.00    -0.210 NA
ATOM     95  O4  SGN d 403     -10.649   5.914  46.498  0.00  0.00    -0.348 OA
ATOM     96  O6S SGN d 403     -14.542   7.397  43.056  0.00  0.00    -0.572 OA
ATOM     97  C4  SGN d 403     -10.268   5.555  45.202  0.00  0.00     0.095 C 
ATOM     98  C5  SGN d 403     -11.337   4.613  44.598  0.00  0.00     0.091 C 
ATOM     99  O6  SGN d 403     -12.532   5.969  42.977  0.00  0.00    -0.254 OA
ATOM    100  O1S SGN d 403      -7.081   4.165  41.582  0.00  0.00    -0.296 OA
ATOM    101  C1  SGN d 403      -9.652   3.325  43.468  0.00  0.00     0.150 C 
ATOM    102  O3S SGN d 403      -5.523   2.689  42.556  0.00  0.00    -0.296 OA
ATOM    103  O2S SGN d 403      -5.512   5.020  43.194  0.00  0.00    -0.296 OA
ATOM    104  C2  SGN d 403      -8.579   4.264  43.950  0.00  0.00     0.081 C 
ATOM    105  C6  SGN d 403     -12.672   5.299  44.224  0.00  0.00     0.067 C 
ATOM    106  S2  SGN d 403     -13.246   7.298  42.483  0.00  0.00     0.251 S 
ATOM    107  H   SGN d 403      -9.056   3.971  45.992  0.00  0.00     0.089 H 
ATOM    108  H   SGN d 403      -7.894   6.414  45.146  0.00  0.00     0.210 HD
ATOM    109  H   SGN d 403      -6.837   3.792  44.826  0.00  0.00     0.140 HD
ATOM    110  H   SGN d 403     -10.165   6.422  44.583  0.00  0.00     0.091 H 
ATOM    111  H   SGN d 403     -11.497   3.907  45.385  0.00  0.00     0.090 H 
ATOM    112  H   SGN d 403      -7.592   4.976  41.733  0.00  0.00     0.231 HD
ATOM    113  H   SGN d 403      -9.441   2.977  42.478  0.00  0.00     0.131 H 
ATOM    114  H   SGN d 403      -6.108   1.974  42.259  0.00  0.00     0.231 HD
ATOM    115  H   SGN d 403      -6.099   5.785  43.301  0.00  0.00     0.231 HD
ATOM    116  H   SGN d 403      -8.478   5.107  43.299  0.00  0.00     0.076 H 
ATOM    117  H   SGN d 403     -12.934   6.007  44.982  0.00  0.00     0.080 H 
ATOM    118  H   SGN d 403     -13.442   4.559  44.145  0.00  0.00     0.080 H 
ATOM    119  O62 IDS d 402     -13.411   1.819  45.030  0.00  0.00    -0.646 OA
ATOM    120  C1  IDS d 402      -9.890  -1.163  45.599  0.00  0.00     0.161 C 
ATOM    121  O3S IDS d 402      -6.622  -1.924  45.916  0.00  0.00    -0.572 OA
ATOM    122  O3  IDS d 402     -10.183  -0.857  42.536  0.00  0.00    -0.390 OA
ATOM    123  O5  IDS d 402     -10.589  -0.011  45.997  0.00  0.00    -0.340 OA
ATOM    124  O4  IDS d 402      -9.687   2.198  44.298  0.00  0.00    -0.348 OA
ATOM    125  O61 IDS d 402     -12.037   2.283  46.579  0.00  0.00    -0.646 OA
ATOM    126  O1S IDS d 402      -5.526  -0.244  44.609  0.00  0.00    -0.572 OA
ATOM    127  O2S IDS d 402      -6.269   0.257  46.805  0.00  0.00    -0.572 OA
ATOM    128  C3  IDS d 402      -9.469   0.026  43.360  0.00  0.00     0.094 C 
ATOM    129  C5  IDS d 402     -11.351   0.589  44.957  0.00  0.00     0.152 C 
ATOM    130  S   IDS d 402      -6.486  -0.514  45.645  0.00  0.00     0.252 S 
ATOM    131  C4  IDS d 402     -10.430   1.112  43.829  0.00  0.00     0.103 C 
ATOM    132  C2  IDS d 402      -8.874  -0.787  44.522  0.00  0.00     0.134 C 
ATOM    133  C6  IDS d 402     -12.329   1.623  45.559  0.00  0.00     0.206 C 
ATOM    134  O2  IDS d 402      -7.858  -0.014  45.100  0.00  0.00    -0.244 OA
ATOM    135  H   IDS d 402      -9.386  -1.559  46.456  0.00  0.00     0.133 H 
ATOM    136  H   IDS d 402      -9.590  -1.559  42.224  0.00  0.00     0.210 HD
ATOM    137  H   IDS d 402      -8.661   0.505  42.848  0.00  0.00     0.091 H 
ATOM    138  H   IDS d 402     -11.969  -0.136  44.469  0.00  0.00     0.104 H 
ATOM    139  H   IDS d 402     -11.047   1.409  43.007  0.00  0.00     0.092 H 
ATOM    140  H   IDS d 402      -8.511  -1.711  44.121  0.00  0.00     0.097 H 
ENDROOT
TORSDOF 45
ENDMDL
MODEL 11
REMARK VINA RESULT:      -6.0      2.516     13.245
REMARK  0 active torsions:
REMARK  status: ('A' for Active; 'I' for Inactive)
REMARK       I    between atoms: C5_1  and  C6_64 
REMARK       I    between atoms: C4_2  and  O4_32 
REMARK       I    between atoms: C1_3  and  O4_32 
REMARK       I    between atoms: S1_6  and  N_87 
REMARK       I    between atoms: S1_6  and  O1S_23 
REMARK       I    between atoms: S1_6  and  O2S_31 
REMARK       I    between atoms: S1_6  and  O3S_47 
REMARK       I    between atoms: N_7  and  C2_53 
REMARK       I    between atoms: N_7  and  S1_10 
REMARK       I    between atoms: C3_9  and  O3_14 
REMARK       I    between atoms: S1_10  and  O1S_52 
REMARK       I    between atoms: S1_10  and  O2S_17 
REMARK       I    between atoms: S1_10  and  O3S_80 
REMARK       I    between atoms: C5_12  and  C6_73 
REMARK       I    between atoms: S1_13  and  N_25 
REMARK       I    between atoms: S1_13  and  O1S_58 
REMARK       I    between atoms: S1_13  and  O2S_66 
REMARK       I    between atoms: S1_13  and  O3S_62 
REMARK       I    between atoms: S2_15  and  O6_41 
REMARK       I    between atoms: C3_16  and  O3_48 
REMARK       I    between atoms: C2_18  and  N_87 
REMARK       I    between atoms: C1_19  and  O4_39 
REMARK       I    between atoms: C3_20  and  O3_27 
REMARK       I    between atoms: C1_24  and  O1_84 
REMARK       I    between atoms: N_25  and  C2_78 
REMARK       I    between atoms: O4_28  and  C4_30 
REMARK       I    between atoms: O4_28  and  C1_86 
REMARK       I    between atoms: C2_34  and  O2_59 
REMARK       I    between atoms: O3_35  and  C3_60 
REMARK       I    between atoms: C5_37  and  C6_81 
REMARK       I    between atoms: O4_39  and  C4_79 
REMARK       I    between atoms: O4_40  and  C4_77 
REMARK       I    between atoms: O4_40  and  C1_61 
REMARK       I    between atoms: O6_41  and  C6_57 
REMARK       I    between atoms: O6_45  and  C6_81 
REMARK       I    between atoms: O6_45  and  S2_83 
REMARK       I    between atoms: C3_46  and  O3_72 
REMARK       I    between atoms: C5_50  and  C6_57 
REMARK       I    between atoms: O2_59  and  S_69 
REMARK       I    between atoms: O6_63  and  C6_64 
REMARK       I    between atoms: O6_63  and  S2_70 
REMARK       I    between atoms: C5_67  and  C6_88 
REMARK       I    between atoms: S_71  and  O2_89 
REMARK       I    between atoms: O4_75  and  C4_82 
REMARK       I    between atoms: C2_85  and  O2_89 
ROOT
ATOM      1  C5  SGN d 401      -8.622  11.692  46.943  0.00  0.00     0.091 C 
ATOM      2  S1  SGN d 401      -6.423  11.542  41.753  0.00  0.00     0.156 S 
ATOM      3  C3  SGN d 401      -9.269  11.487  44.511  0.00  0.00     0.083 C 
ATOM      4  C2  SGN d 401      -7.768  11.646  44.186  0.00  0.00     0.081 C 
ATOM      5  O1S SGN d 401      -5.557  10.673  42.527  0.00  0.00    -0.296 OA
ATOM      6  C1  SGN d 401      -7.148  12.530  45.280  0.00  0.00     0.147 C 
ATOM      7  O2S SGN d 401      -7.184  10.806  40.779  0.00  0.00    -0.296 OA
ATOM      8  O4  SGN d 401     -10.805  10.916  46.244  0.00  0.00    -0.348 OA
ATOM      9  O4S SGN d 401      -9.038   8.311  49.498  0.00  0.00    -0.572 OA
ATOM     10  O3S SGN d 401      -5.700  12.653  41.171  0.00  0.00    -0.296 OA
ATOM     11  O3  SGN d 401      -9.873  10.612  43.576  0.00  0.00    -0.391 OA
ATOM     12  O5  SGN d 401      -7.275  11.920  46.529  0.00  0.00    -0.350 OA
ATOM     13  O6S SGN d 401      -6.704   8.807  49.836  0.00  0.00    -0.572 OA
ATOM     14  O6  SGN d 401      -7.880   9.745  47.977  0.00  0.00    -0.254 OA
ATOM     15  C6  SGN d 401      -8.495  10.969  48.276  0.00  0.00     0.067 C 
ATOM     16  S2  SGN d 401      -7.762   8.501  48.888  0.00  0.00     0.251 S 
ATOM     17  O5S SGN d 401      -7.433   7.429  47.988  0.00  0.00    -0.572 OA
ATOM     18  C4  SGN d 401      -9.441  10.870  45.901  0.00  0.00     0.095 C 
ATOM     19  O1  SGN d 401      -7.786  13.818  45.321  0.00  0.00    -0.369 OA
ATOM     20  N   SGN d 401      -7.535  12.234  42.820  0.00  0.00    -0.210 NA
ATOM     21  H   SGN d 401      -9.168  12.608  47.031  0.00  0.00     0.090 H 
ATOM     22  H   SGN d 401      -9.725  12.455  44.471  0.00  0.00     0.089 H 
ATOM     23  H   SGN d 401      -7.306  10.682  44.170  0.00  0.00     0.076 H 
ATOM     24  H   SGN d 401      -6.079   9.944  42.898  0.00  0.00     0.231 HD
ATOM     25  H   SGN d 401      -6.111  12.660  45.048  0.00  0.00     0.131 H 
ATOM     26  H   SGN d 401      -7.648  10.076  41.217  0.00  0.00     0.231 HD
ATOM     27  H   SGN d 401      -5.205  13.116  41.865  0.00  0.00     0.231 HD
ATOM     28  H   SGN d 401      -9.448   9.742  43.626  0.00  0.00     0.210 HD
ATOM     29  H   SGN d 401      -9.461  10.807  48.708  0.00  0.00     0.080 H 
ATOM     30  H   SGN d 401      -7.929  11.537  48.985  0.00  0.00     0.080 H 
ATOM     31  H   SGN d 401      -9.093   9.858  45.897  0.00  0.00     0.091 H 
ATOM     32  H   SGN d 401      -8.726  13.706  45.532  0.00  0.00     0.212 HD
ATOM     33  H   SGN d 401      -8.437  12.227  42.344  0.00  0.00     0.140 HD
ATOM     34  C4  IDS d 404     -13.937   0.115  45.915  0.00  0.00     0.103 C 
ATOM     35  C5  IDS d 404     -15.091   1.080  46.169  0.00  0.00     0.152 C 
ATOM     36  O4  IDS d 404     -14.469  -1.031  45.311  0.00  0.00    -0.348 OA
ATOM     37  O5  IDS d 404     -15.585   1.642  44.974  0.00  0.00    -0.340 OA
ATOM     38  C2  IDS d 404     -13.360   1.623  43.889  0.00  0.00     0.134 C 
ATOM     39  O62 IDS d 404     -16.387   0.568  48.106  0.00  0.00    -0.646 OA
ATOM     40  C3  IDS d 404     -12.828   0.721  45.013  0.00  0.00     0.094 C 
ATOM     41  O2  IDS d 404     -13.617   0.810  42.737  0.00  0.00    -0.244 OA
ATOM     42  O1S IDS d 404     -12.233   1.344  40.905  0.00  0.00    -0.572 OA
ATOM     43  O2S IDS d 404     -14.371   0.377  40.499  0.00  0.00    -0.572 OA
ATOM     44  S   IDS d 404     -13.594   1.305  41.258  0.00  0.00     0.252 S 
ATOM     45  O3  IDS d 404     -11.982   1.511  45.815  0.00  0.00    -0.390 OA
ATOM     46  C6  IDS d 404     -16.222   0.402  46.909  0.00  0.00     0.206 C 
ATOM     47  O3S IDS d 404     -14.128   2.616  41.260  0.00  0.00    -0.572 OA
ATOM     48  C1  IDS d 404     -14.631   2.436  44.259  0.00  0.00     0.161 C 
ATOM     49  O61 IDS d 404     -16.971  -0.357  46.311  0.00  0.00    -0.646 OA
ATOM     50  H   IDS d 404     -13.471  -0.112  46.851  0.00  0.00     0.092 H 
ATOM     51  H   IDS d 404     -14.697   1.868  46.776  0.00  0.00     0.104 H 
ATOM     52  H   IDS d 404     -12.604   2.355  43.695  0.00  0.00     0.097 H 
ATOM     53  H   IDS d 404     -12.326  -0.106  44.558  0.00  0.00     0.091 H 
ATOM     54  H   IDS d 404     -12.491   2.243  46.200  0.00  0.00     0.210 HD
ATOM     55  H   IDS d 404     -15.120   2.739  43.358  0.00  0.00     0.133 H 
ATOM     56  C1  SGN d 405     -14.112  -2.241  45.911  0.00  0.00     0.150 C 
ATOM     57  O6S SGN d 405     -14.050  -4.366  49.336  0.00  0.00    -0.572 OA
ATOM     58  N   SGN d 405     -13.793  -2.908  43.577  0.00  0.00    -0.210 NA
ATOM     59  S1  SGN d 405     -12.385  -3.465  43.034  0.00  0.00     0.156 S 
ATOM     60  S2  SGN d 405     -15.288  -4.738  50.014  0.00  0.00     0.251 S 
ATOM     61  O2S SGN d 405     -12.294  -4.825  43.508  0.00  0.00    -0.296 OA
ATOM     62  C3  SGN d 405     -15.693  -3.879  44.794  0.00  0.00     0.083 C 
ATOM     63  O5  SGN d 405     -14.799  -2.504  47.156  0.00  0.00    -0.349 OA
ATOM     64  O3  SGN d 405     -15.734  -5.013  43.948  0.00  0.00    -0.391 OA
ATOM     65  O6  SGN d 405     -16.493  -4.386  49.023  0.00  0.00    -0.254 OA
ATOM     66  O5S SGN d 405     -15.392  -6.153  50.276  0.00  0.00    -0.572 OA
ATOM     67  C5  SGN d 405     -16.161  -2.996  47.024  0.00  0.00     0.090 C 
ATOM     68  O4S SGN d 405     -15.495  -3.972  51.191  0.00  0.00    -0.572 OA
ATOM     69  O1S SGN d 405     -11.378  -2.607  43.605  0.00  0.00    -0.296 OA
ATOM     70  C2  SGN d 405     -14.257  -3.372  44.881  0.00  0.00     0.081 C 
ATOM     71  C6  SGN d 405     -16.800  -3.129  48.433  0.00  0.00     0.067 C 
ATOM     72  O4  SGN d 405     -17.437  -4.867  46.152  0.00  0.00    -0.390 OA
ATOM     73  O3S SGN d 405     -12.386  -3.363  41.612  0.00  0.00    -0.296 OA
ATOM     74  C4  SGN d 405     -16.137  -4.286  46.211  0.00  0.00     0.089 C 
ATOM     75  H   SGN d 405     -13.085  -2.178  46.208  0.00  0.00     0.131 H 
ATOM     76  H   SGN d 405     -13.718  -1.891  43.626  0.00  0.00     0.140 HD
ATOM     77  H   SGN d 405     -12.297  -4.830  44.479  0.00  0.00     0.231 HD
ATOM     78  H   SGN d 405     -16.338  -3.122  44.401  0.00  0.00     0.089 H 
ATOM     79  H   SGN d 405     -15.150  -5.701  44.301  0.00  0.00     0.210 HD
ATOM     80  H   SGN d 405     -16.785  -2.312  46.487  0.00  0.00     0.090 H 
ATOM     81  H   SGN d 405     -11.393  -2.691  44.572  0.00  0.00     0.231 HD
ATOM     82  H   SGN d 405     -13.652  -4.195  45.201  0.00  0.00     0.076 H 
ATOM     83  H   SGN d 405     -16.425  -2.348  49.061  0.00  0.00     0.080 H 
ATOM     84  H   SGN d 405     -17.862  -3.054  48.330  0.00  0.00     0.080 H 
ATOM     85  H   SGN d 405     -17.401  -5.685  45.632  0.00  0.00     0.210 HD
ATOM     86  H   SGN d 405     -12.448  -2.430  41.355  0.00  0.00     0.231 HD
ATOM     87  H   SGN d 405     -15.480  -5.006  46.652  0.00  0.00     0.091 H 
ATOM     88  O5S SGN d 403     -18.070   5.817  40.643  0.00  0.00    -0.572 OA
ATOM     89  C3  SGN d 403     -15.149   5.187  46.449  0.00  0.00     0.083 C 
ATOM     90  O5  SGN d 403     -15.455   6.955  44.260  0.00  0.00    -0.349 OA
ATOM     91  S1  SGN d 403     -17.545   7.433  48.394  0.00  0.00     0.156 S 
ATOM     92  O3  SGN d 403     -15.650   4.203  47.303  0.00  0.00    -0.391 OA
ATOM     93  O4S SGN d 403     -17.651   3.719  41.797  0.00  0.00    -0.572 OA
ATOM     94  N   SGN d 403     -16.094   6.976  47.856  0.00  0.00    -0.210 NA
ATOM     95  O4  SGN d 403     -14.260   3.587  44.974  0.00  0.00    -0.348 OA
ATOM     96  O6S SGN d 403     -16.247   4.446  40.022  0.00  0.00    -0.572 OA
ATOM     97  C4  SGN d 403     -15.175   4.643  45.030  0.00  0.00     0.095 C 
ATOM     98  C5  SGN d 403     -14.722   5.763  44.064  0.00  0.00     0.091 C 
ATOM     99  O6  SGN d 403     -16.251   5.635  42.184  0.00  0.00    -0.254 OA
ATOM    100  O1S SGN d 403     -18.290   7.893  47.249  0.00  0.00    -0.296 OA
ATOM    101  C1  SGN d 403     -15.475   7.464  45.586  0.00  0.00     0.150 C 
ATOM    102  O3S SGN d 403     -17.313   8.500  49.306  0.00  0.00    -0.296 OA
ATOM    103  O2S SGN d 403     -18.120   6.243  48.993  0.00  0.00    -0.296 OA
ATOM    104  C2  SGN d 403     -16.020   6.418  46.521  0.00  0.00     0.081 C 
ATOM    105  C6  SGN d 403     -14.894   5.438  42.562  0.00  0.00     0.067 C 
ATOM    106  S2  SGN d 403     -17.094   4.860  41.085  0.00  0.00     0.251 S 
ATOM    107  H   SGN d 403     -14.151   5.446  46.736  0.00  0.00     0.089 H 
ATOM    108  H   SGN d 403     -16.554   3.974  47.037  0.00  0.00     0.210 HD
ATOM    109  H   SGN d 403     -15.737   6.272  48.502  0.00  0.00     0.140 HD
ATOM    110  H   SGN d 403     -16.155   4.310  44.757  0.00  0.00     0.091 H 
ATOM    111  H   SGN d 403     -13.683   5.867  44.299  0.00  0.00     0.090 H 
ATOM    112  H   SGN d 403     -18.438   7.152  46.640  0.00  0.00     0.231 HD
ATOM    113  H   SGN d 403     -16.104   8.329  45.571  0.00  0.00     0.131 H 
ATOM    114  H   SGN d 403     -16.930   9.254  48.831  0.00  0.00     0.231 HD
ATOM    115  H   SGN d 403     -18.248   5.566  48.310  0.00  0.00     0.231 HD
ATOM    116  H   SGN d 403     -17.010   6.123  46.241  0.00  0.00     0.076 H 
ATOM    117  H   SGN d 403     -14.620   4.419  42.384  0.00  0.00     0.080 H 
ATOM    118  H   SGN d 403     -14.267   6.083  41.984  0.00  0.00     0.080 H 
ATOM    119  O62 IDS d 402     -12.105   7.768  42.869  0.00  0.00    -0.646 OA
ATOM    120  C1  IDS d 402     -11.318   9.820  46.966  0.00  0.00     0.161 C 
ATOM    121  O3S IDS d 402     -11.849  10.232  50.268  0.00  0.00    -0.572 OA
ATOM    122  O3  IDS d 402     -13.681  11.388  45.734  0.00  0.00    -0.390 OA
ATOM    123  O5  IDS d 402     -11.398   8.658  46.179  0.00  0.00    -0.340 OA
ATOM    124  O4  IDS d 402     -14.219   7.881  46.042  0.00  0.00    -0.348 OA
ATOM    125  O61 IDS d 402     -11.696   6.471  44.498  0.00  0.00    -0.646 OA
ATOM    126  O1S IDS d 402     -14.155   9.648  50.541  0.00  0.00    -0.572 OA
ATOM    127  O2S IDS d 402     -12.510   7.947  50.379  0.00  0.00    -0.572 OA
ATOM    128  C3  IDS d 402     -13.808  10.186  46.446  0.00  0.00     0.094 C 
ATOM    129  C5  IDS d 402     -12.233   8.794  45.035  0.00  0.00     0.152 C 
ATOM    130  S   IDS d 402     -12.879   9.256  50.007  0.00  0.00     0.252 S 
ATOM    131  C4  IDS d 402     -13.703   9.037  45.450  0.00  0.00     0.103 C 
ATOM    132  C2  IDS d 402     -12.704  10.151  47.517  0.00  0.00     0.134 C 
ATOM    133  C6  IDS d 402     -11.993   7.608  44.074  0.00  0.00     0.206 C 
ATOM    134  O2  IDS d 402     -13.064   9.182  48.462  0.00  0.00    -0.244 OA
ATOM    135  H   IDS d 402     -10.639   9.630  47.771  0.00  0.00     0.133 H 
ATOM    136  H   IDS d 402     -13.745  12.136  46.349  0.00  0.00     0.210 HD
ATOM    137  H   IDS d 402     -14.750  10.099  46.945  0.00  0.00     0.091 H 
ATOM    138  H   IDS d 402     -11.975   9.669  44.476  0.00  0.00     0.104 H 
ATOM    139  H   IDS d 402     -14.260   9.286  44.572  0.00  0.00     0.092 H 
ATOM    140  H   IDS d 402     -12.628  11.131  47.939  0.00  0.00     0.097 H 
ENDROOT
TORSDOF 45
ENDMDL
MODEL 12
REMARK VINA RESULT:      -5.8      3.198      6.233
REMARK  0 active torsions:
REMARK  status: ('A' for Active; 'I' for Inactive)
REMARK       I    between atoms: C5_1  and  C6_64 
REMARK       I    between atoms: C4_2  and  O4_32 
REMARK       I    between atoms: C1_3  and  O4_32 
REMARK       I    between atoms: S1_6  and  N_87 
REMARK       I    between atoms: S1_6  and  O1S_23 
REMARK       I    between atoms: S1_6  and  O2S_31 
REMARK       I    between atoms: S1_6  and  O3S_47 
REMARK       I    between atoms: N_7  and  C2_53 
REMARK       I    between atoms: N_7  and  S1_10 
REMARK       I    between atoms: C3_9  and  O3_14 
REMARK       I    between atoms: S1_10  and  O1S_52 
REMARK       I    between atoms: S1_10  and  O2S_17 
REMARK       I    between atoms: S1_10  and  O3S_80 
REMARK       I    between atoms: C5_12  and  C6_73 
REMARK       I    between atoms: S1_13  and  N_25 
REMARK       I    between atoms: S1_13  and  O1S_58 
REMARK       I    between atoms: S1_13  and  O2S_66 
REMARK       I    between atoms: S1_13  and  O3S_62 
REMARK       I    between atoms: S2_15  and  O6_41 
REMARK       I    between atoms: C3_16  and  O3_48 
REMARK       I    between atoms: C2_18  and  N_87 
REMARK       I    between atoms: C1_19  and  O4_39 
REMARK       I    between atoms: C3_20  and  O3_27 
REMARK       I    between atoms: C1_24  and  O1_84 
REMARK       I    between atoms: N_25  and  C2_78 
REMARK       I    between atoms: O4_28  and  C4_30 
REMARK       I    between atoms: O4_28  and  C1_86 
REMARK       I    between atoms: C2_34  and  O2_59 
REMARK       I    between atoms: O3_35  and  C3_60 
REMARK       I    between atoms: C5_37  and  C6_81 
REMARK       I    between atoms: O4_39  and  C4_79 
REMARK       I    between atoms: O4_40  and  C4_77 
REMARK       I    between atoms: O4_40  and  C1_61 
REMARK       I    between atoms: O6_41  and  C6_57 
REMARK       I    between atoms: O6_45  and  C6_81 
REMARK       I    between atoms: O6_45  and  S2_83 
REMARK       I    between atoms: C3_46  and  O3_72 
REMARK       I    between atoms: C5_50  and  C6_57 
REMARK       I    between atoms: O2_59  and  S_69 
REMARK       I    between atoms: O6_63  and  C6_64 
REMARK       I    between atoms: O6_63  and  S2_70 
REMARK       I    between atoms: C5_67  and  C6_88 
REMARK       I    between atoms: S_71  and  O2_89 
REMARK       I    between atoms: O4_75  and  C4_82 
REMARK       I    between atoms: C2_85  and  O2_89 
ROOT
ATOM      1  C5  SGN d 401     -15.118  -6.618  48.021  0.00  0.00     0.091 C 
ATOM      2  S1  SGN d 401     -20.555  -5.216  48.524  0.00  0.00     0.156 S 
ATOM      3  C3  SGN d 401     -16.956  -5.327  46.869  0.00  0.00     0.083 C 
ATOM      4  C2  SGN d 401     -17.887  -5.806  48.004  0.00  0.00     0.081 C 
ATOM      5  O1S SGN d 401     -20.016  -5.014  49.855  0.00  0.00    -0.296 OA
ATOM      6  C1  SGN d 401     -17.381  -7.181  48.470  0.00  0.00     0.147 C 
ATOM      7  O2S SGN d 401     -20.934  -3.973  47.908  0.00  0.00    -0.296 OA
ATOM      8  O4  SGN d 401     -14.669  -5.005  46.274  0.00  0.00    -0.348 OA
ATOM      9  O4S SGN d 401     -11.891  -4.494  49.812  0.00  0.00    -0.572 OA
ATOM     10  O3S SGN d 401     -21.625  -6.191  48.512  0.00  0.00    -0.296 OA
ATOM     11  O3  SGN d 401     -17.330  -4.025  46.458  0.00  0.00    -0.391 OA
ATOM     12  O5  SGN d 401     -16.081  -7.077  48.969  0.00  0.00    -0.350 OA
ATOM     13  O6S SGN d 401     -12.653  -5.774  51.707  0.00  0.00    -0.572 OA
ATOM     14  O6  SGN d 401     -14.042  -5.533  49.776  0.00  0.00    -0.254 OA
ATOM     15  C6  SGN d 401     -13.820  -6.526  48.811  0.00  0.00     0.067 C 
ATOM     16  S2  SGN d 401     -12.991  -4.825  50.660  0.00  0.00     0.251 S 
ATOM     17  O5S SGN d 401     -13.665  -3.651  51.145  0.00  0.00    -0.572 OA
ATOM     18  C4  SGN d 401     -15.512  -5.256  47.372  0.00  0.00     0.095 C 
ATOM     19  O1  SGN d 401     -17.392  -8.125  47.385  0.00  0.00    -0.369 OA
ATOM     20  N   SGN d 401     -19.328  -5.879  47.573  0.00  0.00    -0.210 NA
ATOM     21  H   SGN d 401     -15.036  -7.284  47.187  0.00  0.00     0.090 H 
ATOM     22  H   SGN d 401     -17.036  -6.017  46.055  0.00  0.00     0.089 H 
ATOM     23  H   SGN d 401     -17.860  -5.099  48.806  0.00  0.00     0.076 H 
ATOM     24  H   SGN d 401     -19.304  -4.355  49.819  0.00  0.00     0.231 HD
ATOM     25  H   SGN d 401     -18.036  -7.526  49.242  0.00  0.00     0.131 H 
ATOM     26  H   SGN d 401     -20.186  -3.356  47.940  0.00  0.00     0.231 HD
ATOM     27  H   SGN d 401     -21.322  -7.009  48.937  0.00  0.00     0.231 HD
ATOM     28  H   SGN d 401     -17.251  -3.414  47.208  0.00  0.00     0.210 HD
ATOM     29  H   SGN d 401     -13.009  -6.249  48.169  0.00  0.00     0.080 H 
ATOM     30  H   SGN d 401     -13.557  -7.463  49.256  0.00  0.00     0.080 H 
ATOM     31  H   SGN d 401     -15.416  -4.478  48.100  0.00  0.00     0.091 H 
ATOM     32  H   SGN d 401     -16.799  -7.817  46.682  0.00  0.00     0.212 HD
ATOM     33  H   SGN d 401     -19.382  -5.417  46.665  0.00  0.00     0.140 HD
ATOM     34  C4  IDS d 404     -11.133   5.525  48.063  0.00  0.00     0.103 C 
ATOM     35  C5  IDS d 404     -10.671   4.942  46.732  0.00  0.00     0.152 C 
ATOM     36  O4  IDS d 404     -11.180   6.917  47.922  0.00  0.00    -0.348 OA
ATOM     37  O5  IDS d 404     -11.660   5.051  45.733  0.00  0.00    -0.340 OA
ATOM     38  C2  IDS d 404     -13.514   4.790  47.353  0.00  0.00     0.134 C 
ATOM     39  O62 IDS d 404      -8.315   5.061  46.375  0.00  0.00    -0.646 OA
ATOM     40  C3  IDS d 404     -12.522   4.992  48.509  0.00  0.00     0.094 C 
ATOM     41  O2  IDS d 404     -14.235   6.012  47.153  0.00  0.00    -0.244 OA
ATOM     42  O1S IDS d 404     -16.540   5.807  47.606  0.00  0.00    -0.572 OA
ATOM     43  O2S IDS d 404     -15.804   7.464  46.061  0.00  0.00    -0.572 OA
ATOM     44  S   IDS d 404     -15.668   6.128  46.549  0.00  0.00     0.252 S 
ATOM     45  O3  IDS d 404     -12.343   3.740  49.127  0.00  0.00    -0.390 OA
ATOM     46  C6  IDS d 404      -9.399   5.605  46.253  0.00  0.00     0.206 C 
ATOM     47  O3S IDS d 404     -15.761   5.145  45.534  0.00  0.00    -0.572 OA
ATOM     48  C1  IDS d 404     -12.866   4.331  46.017  0.00  0.00     0.161 C 
ATOM     49  O61 IDS d 404      -9.445   6.724  45.762  0.00  0.00    -0.646 OA
ATOM     50  H   IDS d 404     -10.441   5.228  48.823  0.00  0.00     0.092 H 
ATOM     51  H   IDS d 404     -10.481   3.903  46.907  0.00  0.00     0.104 H 
ATOM     52  H   IDS d 404     -14.164   3.990  47.640  0.00  0.00     0.097 H 
ATOM     53  H   IDS d 404     -12.931   5.731  49.164  0.00  0.00     0.091 H 
ATOM     54  H   IDS d 404     -11.970   3.113  48.487  0.00  0.00     0.210 HD
ATOM     55  H   IDS d 404     -13.537   4.556  45.215  0.00  0.00     0.133 H 
ATOM     56  C1  SGN d 405     -10.507   7.640  48.911  0.00  0.00     0.150 C 
ATOM     57  O6S SGN d 405      -7.003   8.192  50.825  0.00  0.00    -0.572 OA
ATOM     58  N   SGN d 405     -12.540   9.000  48.814  0.00  0.00    -0.210 NA
ATOM     59  S1  SGN d 405     -13.457   9.258  50.111  0.00  0.00     0.156 S 
ATOM     60  S2  SGN d 405      -5.816   8.644  50.106  0.00  0.00     0.251 S 
ATOM     61  O2S SGN d 405     -12.753  10.240  50.898  0.00  0.00    -0.296 OA
ATOM     62  C3  SGN d 405     -10.467   9.978  47.930  0.00  0.00     0.083 C 
ATOM     63  O5  SGN d 405      -9.068   7.614  48.779  0.00  0.00    -0.349 OA
ATOM     64  O3  SGN d 405     -10.930  11.300  48.138  0.00  0.00    -0.391 OA
ATOM     65  O6  SGN d 405      -6.288   9.080  48.642  0.00  0.00    -0.254 OA
ATOM     66  O5S SGN d 405      -5.207   9.815  50.689  0.00  0.00    -0.572 OA
ATOM     67  C5  SGN d 405      -8.517   8.513  47.778  0.00  0.00     0.090 C 
ATOM     68  O4S SGN d 405      -4.874   7.597  49.933  0.00  0.00    -0.572 OA
ATOM     69  O1S SGN d 405     -13.563   7.984  50.774  0.00  0.00    -0.296 OA
ATOM     70  C2  SGN d 405     -11.091   9.060  48.977  0.00  0.00     0.081 C 
ATOM     71  C6  SGN d 405      -6.983   8.297  47.679  0.00  0.00     0.067 C 
ATOM     72  O4  SGN d 405      -8.329  10.870  47.228  0.00  0.00    -0.390 OA
ATOM     73  O3S SGN d 405     -14.737   9.703  49.668  0.00  0.00    -0.296 OA
ATOM     74  C4  SGN d 405      -8.939   9.938  48.117  0.00  0.00     0.089 C 
ATOM     75  H   SGN d 405     -10.675   7.157  49.851  0.00  0.00     0.131 H 
ATOM     76  H   SGN d 405     -12.768   8.070  48.461  0.00  0.00     0.140 HD
ATOM     77  H   SGN d 405     -11.893   9.881  51.170  0.00  0.00     0.231 HD
ATOM     78  H   SGN d 405     -10.733   9.663  46.943  0.00  0.00     0.089 H 
ATOM     79  H   SGN d 405     -10.691  11.589  49.032  0.00  0.00     0.210 HD
ATOM     80  H   SGN d 405      -8.901   8.309  46.800  0.00  0.00     0.090 H 
ATOM     81  H   SGN d 405     -12.683   7.698  51.067  0.00  0.00     0.231 HD
ATOM     82  H   SGN d 405     -10.858   9.473  49.935  0.00  0.00     0.076 H 
ATOM     83  H   SGN d 405      -6.765   7.264  47.847  0.00  0.00     0.080 H 
ATOM     84  H   SGN d 405      -6.662   8.597  46.703  0.00  0.00     0.080 H 
ATOM     85  H   SGN d 405      -8.609  11.769  47.459  0.00  0.00     0.210 HD
ATOM     86  H   SGN d 405     -15.160   9.003  49.146  0.00  0.00     0.231 HD
ATOM     87  H   SGN d 405      -8.645  10.200  49.112  0.00  0.00     0.091 H 
ATOM     88  O5S SGN d 403     -15.472   3.794  40.609  0.00  0.00    -0.572 OA
ATOM     89  C3  SGN d 403     -11.374   1.264  45.019  0.00  0.00     0.083 C 
ATOM     90  O5  SGN d 403     -13.603   0.635  43.392  0.00  0.00    -0.349 OA
ATOM     91  S1  SGN d 403      -9.220  -0.690  42.548  0.00  0.00     0.156 S 
ATOM     92  O3  SGN d 403     -10.184   1.958  45.244  0.00  0.00    -0.391 OA
ATOM     93  O4S SGN d 403     -14.125   5.066  42.183  0.00  0.00    -0.572 OA
ATOM     94  N   SGN d 403     -10.173  -0.536  43.841  0.00  0.00    -0.210 NA
ATOM     95  O4  SGN d 403     -12.657   2.942  46.050  0.00  0.00    -0.348 OA
ATOM     96  O6S SGN d 403     -16.432   4.664  42.587  0.00  0.00    -0.572 OA
ATOM     97  C4  SGN d 403     -12.488   2.281  44.830  0.00  0.00     0.095 C 
ATOM     98  C5  SGN d 403     -13.790   1.524  44.474  0.00  0.00     0.091 C 
ATOM     99  O6  SGN d 403     -14.803   2.814  42.685  0.00  0.00    -0.254 OA
ATOM    100  O1S SGN d 403     -10.039  -0.433  41.391  0.00  0.00    -0.296 OA
ATOM    101  C1  SGN d 403     -12.544  -0.301  43.531  0.00  0.00     0.150 C 
ATOM    102  O3S SGN d 403      -8.760  -2.037  42.552  0.00  0.00    -0.296 OA
ATOM    103  O2S SGN d 403      -8.176   0.301  42.725  0.00  0.00    -0.296 OA
ATOM    104  C2  SGN d 403     -11.250   0.430  43.767  0.00  0.00     0.081 C 
ATOM    105  C6  SGN d 403     -14.970   2.426  44.043  0.00  0.00     0.067 C 
ATOM    106  S2  SGN d 403     -15.249   4.164  41.980  0.00  0.00     0.251 S 
ATOM    107  H   SGN d 403     -11.586   0.623  45.849  0.00  0.00     0.089 H 
ATOM    108  H   SGN d 403      -9.999   2.537  44.489  0.00  0.00     0.210 HD
ATOM    109  H   SGN d 403      -9.580  -0.274  44.629  0.00  0.00     0.140 HD
ATOM    110  H   SGN d 403     -12.254   2.977  44.050  0.00  0.00     0.091 H 
ATOM    111  H   SGN d 403     -14.027   1.025  45.391  0.00  0.00     0.090 H 
ATOM    112  H   SGN d 403     -10.342   0.488  41.407  0.00  0.00     0.231 HD
ATOM    113  H   SGN d 403     -12.509  -0.858  42.618  0.00  0.00     0.131 H 
ATOM    114  H   SGN d 403      -9.514  -2.636  42.428  0.00  0.00     0.231 HD
ATOM    115  H   SGN d 403      -8.568   1.189  42.711  0.00  0.00     0.231 HD
ATOM    116  H   SGN d 403     -11.027   1.098  42.961  0.00  0.00     0.076 H 
ATOM    117  H   SGN d 403     -14.997   3.298  44.661  0.00  0.00     0.080 H 
ATOM    118  H   SGN d 403     -15.887   1.885  44.148  0.00  0.00     0.080 H 
ATOM    119  O62 IDS d 402     -16.379  -0.585  45.543  0.00  0.00    -0.646 OA
ATOM    120  C1  IDS d 402     -13.564  -4.160  46.500  0.00  0.00     0.161 C 
ATOM    121  O3S IDS d 402     -10.529  -5.596  46.793  0.00  0.00    -0.572 OA
ATOM    122  O3  IDS d 402     -14.068  -4.340  43.454  0.00  0.00    -0.390 OA
ATOM    123  O5  IDS d 402     -13.951  -2.825  46.703  0.00  0.00    -0.340 OA
ATOM    124  O4  IDS d 402     -12.748  -1.225  44.564  0.00  0.00    -0.348 OA
ATOM    125  O61 IDS d 402     -14.797  -0.190  46.902  0.00  0.00    -0.646 OA
ATOM    126  O1S IDS d 402      -9.218  -4.478  45.131  0.00  0.00    -0.572 OA
ATOM    127  O2S IDS d 402      -9.623  -3.437  47.223  0.00  0.00    -0.572 OA
ATOM    128  C3  IDS d 402     -13.103  -3.517  44.054  0.00  0.00     0.094 C 
ATOM    129  C5  IDS d 402     -14.657  -2.256  45.605  0.00  0.00     0.152 C 
ATOM    130  S   IDS d 402     -10.112  -4.328  46.247  0.00  0.00     0.252 S 
ATOM    131  C4  IDS d 402     -13.753  -2.171  44.353  0.00  0.00     0.103 C 
ATOM    132  C2  IDS d 402     -12.596  -4.229  45.320  0.00  0.00     0.134 C 
ATOM    133  C6  IDS d 402     -15.322  -0.932  46.045  0.00  0.00     0.206 C 
ATOM    134  O2  IDS d 402     -11.385  -3.625  45.685  0.00  0.00    -0.244 OA
ATOM    135  H   IDS d 402     -13.082  -4.505  47.390  0.00  0.00     0.133 H 
ATOM    136  H   IDS d 402     -13.677  -5.205  43.254  0.00  0.00     0.210 HD
ATOM    137  H   IDS d 402     -12.261  -3.339  43.419  0.00  0.00     0.091 H 
ATOM    138  H   IDS d 402     -15.462  -2.891  45.299  0.00  0.00     0.104 H 
ATOM    139  H   IDS d 402     -14.364  -1.888  43.521  0.00  0.00     0.092 H 
ATOM    140  H   IDS d 402     -12.485  -5.267  45.088  0.00  0.00     0.097 H 
ENDROOT
TORSDOF 45
ENDMDL
MODEL 13
REMARK VINA RESULT:      -5.1      3.311     13.130
REMARK  0 active torsions:
REMARK  status: ('A' for Active; 'I' for Inactive)
REMARK       I    between atoms: C5_1  and  C6_64 
REMARK       I    between atoms: C4_2  and  O4_32 
REMARK       I    between atoms: C1_3  and  O4_32 
REMARK       I    between atoms: S1_6  and  N_87 
REMARK       I    between atoms: S1_6  and  O1S_23 
REMARK       I    between atoms: S1_6  and  O2S_31 
REMARK       I    between atoms: S1_6  and  O3S_47 
REMARK       I    between atoms: N_7  and  C2_53 
REMARK       I    between atoms: N_7  and  S1_10 
REMARK       I    between atoms: C3_9  and  O3_14 
REMARK       I    between atoms: S1_10  and  O1S_52 
REMARK       I    between atoms: S1_10  and  O2S_17 
REMARK       I    between atoms: S1_10  and  O3S_80 
REMARK       I    between atoms: C5_12  and  C6_73 
REMARK       I    between atoms: S1_13  and  N_25 
REMARK       I    between atoms: S1_13  and  O1S_58 
REMARK       I    between atoms: S1_13  and  O2S_66 
REMARK       I    between atoms: S1_13  and  O3S_62 
REMARK       I    between atoms: S2_15  and  O6_41 
REMARK       I    between atoms: C3_16  and  O3_48 
REMARK       I    between atoms: C2_18  and  N_87 
REMARK       I    between atoms: C1_19  and  O4_39 
REMARK       I    between atoms: C3_20  and  O3_27 
REMARK       I    between atoms: C1_24  and  O1_84 
REMARK       I    between atoms: N_25  and  C2_78 
REMARK       I    between atoms: O4_28  and  C4_30 
REMARK       I    between atoms: O4_28  and  C1_86 
REMARK       I    between atoms: C2_34  and  O2_59 
REMARK       I    between atoms: O3_35  and  C3_60 
REMARK       I    between atoms: C5_37  and  C6_81 
REMARK       I    between atoms: O4_39  and  C4_79 
REMARK       I    between atoms: O4_40  and  C4_77 
REMARK       I    between atoms: O4_40  and  C1_61 
REMARK       I    between atoms: O6_41  and  C6_57 
REMARK       I    between atoms: O6_45  and  C6_81 
REMARK       I    between atoms: O6_45  and  S2_83 
REMARK       I    between atoms: C3_46  and  O3_72 
REMARK       I    between atoms: C5_50  and  C6_57 
REMARK       I    between atoms: O2_59  and  S_69 
REMARK       I    between atoms: O6_63  and  C6_64 
REMARK       I    between atoms: O6_63  and  S2_70 
REMARK       I    between atoms: C5_67  and  C6_88 
REMARK       I    between atoms: S_71  and  O2_89 
REMARK       I    between atoms: O4_75  and  C4_82 
REMARK       I    between atoms: C2_85  and  O2_89 
ROOT
ATOM      1  C5  SGN d 401      -6.649  10.761  45.739  0.00  0.00     0.091 C 
ATOM      2  S1  SGN d 401      -5.199   9.929  40.355  0.00  0.00     0.156 S 
ATOM      3  C3  SGN d 401      -7.630  10.544  43.423  0.00  0.00     0.083 C 
ATOM      4  C2  SGN d 401      -6.179  10.409  42.913  0.00  0.00     0.081 C 
ATOM      5  O1S SGN d 401      -4.404   8.961  41.086  0.00  0.00    -0.296 OA
ATOM      6  C1  SGN d 401      -5.279  11.225  43.855  0.00  0.00     0.147 C 
ATOM      7  O2S SGN d 401      -6.195   9.291  39.536  0.00  0.00    -0.296 OA
ATOM      8  O4  SGN d 401      -9.005  10.358  45.363  0.00  0.00    -0.348 OA
ATOM      9  O4S SGN d 401      -7.312   7.658  48.579  0.00  0.00    -0.572 OA
ATOM     10  O3S SGN d 401      -4.375  10.856  39.608  0.00  0.00    -0.296 OA
ATOM     11  O3  SGN d 401      -8.492   9.743  42.636  0.00  0.00    -0.391 OA
ATOM     12  O5  SGN d 401      -5.348  10.717  45.154  0.00  0.00    -0.350 OA
ATOM     13  O6S SGN d 401      -4.903   7.740  48.601  0.00  0.00    -0.572 OA
ATOM     14  O6  SGN d 401      -6.129   8.772  46.827  0.00  0.00    -0.254 OA
ATOM     15  C6  SGN d 401      -6.478  10.102  47.100  0.00  0.00     0.067 C 
ATOM     16  S2  SGN d 401      -6.111   7.580  47.810  0.00  0.00     0.251 S 
ATOM     17  O5S SGN d 401      -6.092   6.418  46.963  0.00  0.00    -0.572 OA
ATOM     18  C4  SGN d 401      -7.726  10.045  44.867  0.00  0.00     0.095 C 
ATOM     19  O1  SGN d 401      -5.674  12.607  43.871  0.00  0.00    -0.369 OA
ATOM     20  N   SGN d 401      -6.026  10.868  41.488  0.00  0.00    -0.210 NA
ATOM     21  H   SGN d 401      -7.012  11.765  45.819  0.00  0.00     0.090 H 
ATOM     22  H   SGN d 401      -7.912  11.575  43.362  0.00  0.00     0.089 H 
ATOM     23  H   SGN d 401      -5.897   9.377  42.917  0.00  0.00     0.076 H 
ATOM     24  H   SGN d 401      -4.991   8.360  41.571  0.00  0.00     0.231 HD
ATOM     25  H   SGN d 401      -4.274  11.151  43.493  0.00  0.00     0.131 H 
ATOM     26  H   SGN d 401      -6.718   8.682  40.081  0.00  0.00     0.231 HD
ATOM     27  H   SGN d 401      -3.722  11.259  40.201  0.00  0.00     0.231 HD
ATOM     28  H   SGN d 401      -8.222   8.814  42.703  0.00  0.00     0.210 HD
ATOM     29  H   SGN d 401      -7.393  10.142  47.654  0.00  0.00     0.080 H 
ATOM     30  H   SGN d 401      -5.735  10.595  47.692  0.00  0.00     0.080 H 
ATOM     31  H   SGN d 401      -7.561   8.989  44.901  0.00  0.00     0.091 H 
ATOM     32  H   SGN d 401      -6.583  12.680  44.199  0.00  0.00     0.212 HD
ATOM     33  H   SGN d 401      -6.969  11.000  41.123  0.00  0.00     0.140 HD
ATOM     34  C4  IDS d 404     -13.979   0.304  46.240  0.00  0.00     0.103 C 
ATOM     35  C5  IDS d 404     -14.905   1.475  46.553  0.00  0.00     0.152 C 
ATOM     36  O4  IDS d 404     -14.775  -0.758  45.793  0.00  0.00    -0.348 OA
ATOM     37  O5  IDS d 404     -15.444   2.051  45.384  0.00  0.00    -0.340 OA
ATOM     38  C2  IDS d 404     -13.415   1.568  44.049  0.00  0.00     0.134 C 
ATOM     39  O62 IDS d 404     -16.009   1.315  48.661  0.00  0.00    -0.646 OA
ATOM     40  C3  IDS d 404     -12.907   0.648  45.170  0.00  0.00     0.094 C 
ATOM     41  O2  IDS d 404     -13.957   0.753  43.002  0.00  0.00    -0.244 OA
ATOM     42  O1S IDS d 404     -12.749   0.925  40.984  0.00  0.00    -0.572 OA
ATOM     43  O2S IDS d 404     -15.057   0.341  40.908  0.00  0.00    -0.572 OA
ATOM     44  S   IDS d 404     -14.040   1.153  41.497  0.00  0.00     0.252 S 
ATOM     45  O3  IDS d 404     -11.841   1.314  45.803  0.00  0.00    -0.390 OA
ATOM     46  C6  IDS d 404     -16.032   1.056  47.470  0.00  0.00     0.206 C 
ATOM     47  O3S IDS d 404     -14.333   2.538  41.460  0.00  0.00    -0.572 OA
ATOM     48  C1  IDS d 404     -14.468   2.618  44.503  0.00  0.00     0.161 C 
ATOM     49  O61 IDS d 404     -16.972   0.414  47.025  0.00  0.00    -0.646 OA
ATOM     50  H   IDS d 404     -13.442   0.048  47.130  0.00  0.00     0.092 H 
ATOM     51  H   IDS d 404     -14.305   2.211  47.046  0.00  0.00     0.104 H 
ATOM     52  H   IDS d 404     -12.575   2.139  43.712  0.00  0.00     0.097 H 
ATOM     53  H   IDS d 404     -12.619  -0.280  44.724  0.00  0.00     0.091 H 
ATOM     54  H   IDS d 404     -12.161   2.146  46.188  0.00  0.00     0.210 HD
ATOM     55  H   IDS d 404     -15.009   2.955  43.644  0.00  0.00     0.133 H 
ATOM     56  C1  SGN d 405     -14.558  -1.978  46.439  0.00  0.00     0.150 C 
ATOM     57  O6S SGN d 405     -14.424  -3.886  49.987  0.00  0.00    -0.572 OA
ATOM     58  N   SGN d 405     -14.664  -2.818  44.142  0.00  0.00    -0.210 NA
ATOM     59  S1  SGN d 405     -13.456  -3.652  43.482  0.00  0.00     0.156 S 
ATOM     60  S2  SGN d 405     -15.610  -3.989  50.831  0.00  0.00     0.251 S 
ATOM     61  O2S SGN d 405     -13.542  -4.977  44.046  0.00  0.00    -0.296 OA
ATOM     62  C3  SGN d 405     -16.531  -3.360  45.645  0.00  0.00     0.083 C 
ATOM     63  O5  SGN d 405     -15.114  -2.042  47.772  0.00  0.00    -0.349 OA
ATOM     64  O3  SGN d 405     -16.877  -4.512  44.899  0.00  0.00    -0.391 OA
ATOM     65  O6  SGN d 405     -16.853  -3.480  49.964  0.00  0.00    -0.254 OA
ATOM     66  O5S SGN d 405     -15.923  -5.345  51.213  0.00  0.00    -0.572 OA
ATOM     67  C5  SGN d 405     -16.546  -2.285  47.839  0.00  0.00     0.090 C 
ATOM     68  O4S SGN d 405     -15.527  -3.135  51.962  0.00  0.00    -0.572 OA
ATOM     69  O1S SGN d 405     -12.251  -2.961  43.863  0.00  0.00    -0.296 OA
ATOM     70  C2  SGN d 405     -15.029  -3.119  45.523  0.00  0.00     0.081 C 
ATOM     71  C6  SGN d 405     -17.011  -2.222  49.319  0.00  0.00     0.067 C 
ATOM     72  O4  SGN d 405     -18.229  -3.938  47.270  0.00  0.00    -0.390 OA
ATOM     73  O3S SGN d 405     -13.624  -3.630  42.067  0.00  0.00    -0.296 OA
ATOM     74  C4  SGN d 405     -16.852  -3.600  47.131  0.00  0.00     0.089 C 
ATOM     75  H   SGN d 405     -13.507  -2.085  46.607  0.00  0.00     0.131 H 
ATOM     76  H   SGN d 405     -14.409  -1.831  44.103  0.00  0.00     0.140 HD
ATOM     77  H   SGN d 405     -13.421  -4.928  45.008  0.00  0.00     0.231 HD
ATOM     78  H   SGN d 405     -17.080  -2.521  45.273  0.00  0.00     0.089 H 
ATOM     79  H   SGN d 405     -16.380  -5.275  45.234  0.00  0.00     0.210 HD
ATOM     80  H   SGN d 405     -17.106  -1.530  47.328  0.00  0.00     0.090 H 
ATOM     81  H   SGN d 405     -12.155  -2.987  44.828  0.00  0.00     0.231 HD
ATOM     82  H   SGN d 405     -14.541  -4.019  45.832  0.00  0.00     0.076 H 
ATOM     83  H   SGN d 405     -16.428  -1.489  49.837  0.00  0.00     0.080 H 
ATOM     84  H   SGN d 405     -18.048  -1.961  49.337  0.00  0.00     0.080 H 
ATOM     85  H   SGN d 405     -18.403  -4.777  46.814  0.00  0.00     0.210 HD
ATOM     86  H   SGN d 405     -13.556  -2.716  41.747  0.00  0.00     0.231 HD
ATOM     87  H   SGN d 405     -16.278  -4.402  47.546  0.00  0.00     0.091 H 
ATOM     88  O5S SGN d 403     -17.706   6.363  41.064  0.00  0.00    -0.572 OA
ATOM     89  C3  SGN d 403     -14.213   5.533  46.519  0.00  0.00     0.083 C 
ATOM     90  O5  SGN d 403     -14.489   7.204  44.250  0.00  0.00    -0.349 OA
ATOM     91  S1  SGN d 403     -15.912   8.281  48.551  0.00  0.00     0.156 S 
ATOM     92  O3  SGN d 403     -14.763   4.705  47.499  0.00  0.00    -0.391 OA
ATOM     93  O4S SGN d 403     -17.512   4.290  42.319  0.00  0.00    -0.572 OA
ATOM     94  N   SGN d 403     -14.644   7.539  47.884  0.00  0.00    -0.210 NA
ATOM     95  O4  SGN d 403     -13.813   3.720  45.078  0.00  0.00    -0.348 OA
ATOM     96  O6S SGN d 403     -16.244   4.651  40.342  0.00  0.00    -0.572 OA
ATOM     97  C4  SGN d 403     -14.517   4.926  45.159  0.00  0.00     0.095 C 
ATOM     98  C5  SGN d 403     -14.005   5.891  44.063  0.00  0.00     0.091 C 
ATOM     99  O6  SGN d 403     -15.763   5.938  42.390  0.00  0.00    -0.254 OA
ATOM    100  O1S SGN d 403     -16.707   8.805  47.470  0.00  0.00    -0.296 OA
ATOM    101  C1  SGN d 403     -14.248   7.780  45.527  0.00  0.00     0.150 C 
ATOM    102  O3S SGN d 403     -15.383   9.336  49.345  0.00  0.00    -0.296 OA
ATOM    103  O2S SGN d 403     -16.602   7.251  49.304  0.00  0.00    -0.296 OA
ATOM    104  C2  SGN d 403     -14.841   6.904  46.597  0.00  0.00     0.081 C 
ATOM    105  C6  SGN d 403     -14.423   5.519  42.621  0.00  0.00     0.067 C 
ATOM    106  S2  SGN d 403     -16.862   5.270  41.461  0.00  0.00     0.251 S 
ATOM    107  H   SGN d 403     -13.157   5.623  46.665  0.00  0.00     0.089 H 
ATOM    108  H   SGN d 403     -15.719   4.630  47.359  0.00  0.00     0.210 HD
ATOM    109  H   SGN d 403     -14.333   6.818  48.536  0.00  0.00     0.140 HD
ATOM    110  H   SGN d 403     -15.566   4.762  45.029  0.00  0.00     0.091 H 
ATOM    111  H   SGN d 403     -12.942   5.816  44.166  0.00  0.00     0.090 H 
ATOM    112  H   SGN d 403     -17.059   8.071  46.941  0.00  0.00     0.231 HD
ATOM    113  H   SGN d 403     -14.715   8.744  45.518  0.00  0.00     0.131 H 
ATOM    114  H   SGN d 403     -14.939   9.981  48.772  0.00  0.00     0.231 HD
ATOM    115  H   SGN d 403     -16.932   6.572  48.695  0.00  0.00     0.231 HD
ATOM    116  H   SGN d 403     -15.895   6.779  46.459  0.00  0.00     0.076 H 
ATOM    117  H   SGN d 403     -14.355   4.460  42.492  0.00  0.00     0.080 H 
ATOM    118  H   SGN d 403     -13.773   6.007  41.925  0.00  0.00     0.080 H 
ATOM    119  O62 IDS d 402     -11.256   7.317  42.417  0.00  0.00    -0.646 OA
ATOM    120  C1  IDS d 402      -9.602   9.414  46.223  0.00  0.00     0.161 C 
ATOM    121  O3S IDS d 402      -9.623  10.098  49.523  0.00  0.00    -0.572 OA
ATOM    122  O3  IDS d 402     -11.797  11.315  45.159  0.00  0.00    -0.390 OA
ATOM    123  O5  IDS d 402      -9.984   8.245  45.543  0.00  0.00    -0.340 OA
ATOM    124  O4  IDS d 402     -12.890   7.987  45.798  0.00  0.00    -0.348 OA
ATOM    125  O61 IDS d 402     -10.871   6.059  44.083  0.00  0.00    -0.646 OA
ATOM    126  O1S IDS d 402     -11.940   9.958  50.109  0.00  0.00    -0.572 OA
ATOM    127  O2S IDS d 402     -10.650   7.981  49.887  0.00  0.00    -0.572 OA
ATOM    128  C3  IDS d 402     -12.037  10.197  45.972  0.00  0.00     0.094 C 
ATOM    129  C5  IDS d 402     -10.923   8.467  44.498  0.00  0.00     0.152 C 
ATOM    130  S   IDS d 402     -10.831   9.312  49.461  0.00  0.00     0.252 S 
ATOM    131  C4  IDS d 402     -12.262   8.995  45.063  0.00  0.00     0.103 C 
ATOM    132  C2  IDS d 402     -10.827  10.021  46.905  0.00  0.00     0.134 C 
ATOM    133  C6  IDS d 402     -11.019   7.206  43.610  0.00  0.00     0.206 C 
ATOM    134  O2  IDS d 402     -11.225   9.187  47.958  0.00  0.00    -0.244 OA
ATOM    135  H   IDS d 402      -8.869   9.149  46.955  0.00  0.00     0.133 H 
ATOM    136  H   IDS d 402     -11.650  12.095  45.717  0.00  0.00     0.210 HD
ATOM    137  H   IDS d 402     -12.908  10.311  46.583  0.00  0.00     0.091 H 
ATOM    138  H   IDS d 402     -10.592   9.249  43.846  0.00  0.00     0.104 H 
ATOM    139  H   IDS d 402     -12.876   9.293  44.239  0.00  0.00     0.092 H 
ATOM    140  H   IDS d 402     -10.529  10.993  47.239  0.00  0.00     0.097 H 
ENDROOT
TORSDOF 45
ENDMDL
MODEL 14
REMARK VINA RESULT:      -5.0      3.536      6.943
REMARK  0 active torsions:
REMARK  status: ('A' for Active; 'I' for Inactive)
REMARK       I    between atoms: C5_1  and  C6_64 
REMARK       I    between atoms: C4_2  and  O4_32 
REMARK       I    between atoms: C1_3  and  O4_32 
REMARK       I    between atoms: S1_6  and  N_87 
REMARK       I    between atoms: S1_6  and  O1S_23 
REMARK       I    between atoms: S1_6  and  O2S_31 
REMARK       I    between atoms: S1_6  and  O3S_47 
REMARK       I    between atoms: N_7  and  C2_53 
REMARK       I    between atoms: N_7  and  S1_10 
REMARK       I    between atoms: C3_9  and  O3_14 
REMARK       I    between atoms: S1_10  and  O1S_52 
REMARK       I    between atoms: S1_10  and  O2S_17 
REMARK       I    between atoms: S1_10  and  O3S_80 
REMARK       I    between atoms: C5_12  and  C6_73 
REMARK       I    between atoms: S1_13  and  N_25 
REMARK       I    between atoms: S1_13  and  O1S_58 
REMARK       I    between atoms: S1_13  and  O2S_66 
REMARK       I    between atoms: S1_13  and  O3S_62 
REMARK       I    between atoms: S2_15  and  O6_41 
REMARK       I    between atoms: C3_16  and  O3_48 
REMARK       I    between atoms: C2_18  and  N_87 
REMARK       I    between atoms: C1_19  and  O4_39 
REMARK       I    between atoms: C3_20  and  O3_27 
REMARK       I    between atoms: C1_24  and  O1_84 
REMARK       I    between atoms: N_25  and  C2_78 
REMARK       I    between atoms: O4_28  and  C4_30 
REMARK       I    between atoms: O4_28  and  C1_86 
REMARK       I    between atoms: C2_34  and  O2_59 
REMARK       I    between atoms: O3_35  and  C3_60 
REMARK       I    between atoms: C5_37  and  C6_81 
REMARK       I    between atoms: O4_39  and  C4_79 
REMARK       I    between atoms: O4_40  and  C4_77 
REMARK       I    between atoms: O4_40  and  C1_61 
REMARK       I    between atoms: O6_41  and  C6_57 
REMARK       I    between atoms: O6_45  and  C6_81 
REMARK       I    between atoms: O6_45  and  S2_83 
REMARK       I    between atoms: C3_46  and  O3_72 
REMARK       I    between atoms: C5_50  and  C6_57 
REMARK       I    between atoms: O2_59  and  S_69 
REMARK       I    between atoms: O6_63  and  C6_64 
REMARK       I    between atoms: O6_63  and  S2_70 
REMARK       I    between atoms: C5_67  and  C6_88 
REMARK       I    between atoms: S_71  and  O2_89 
REMARK       I    between atoms: O4_75  and  C4_82 
REMARK       I    between atoms: C2_85  and  O2_89 
ROOT
ATOM      1  C5  SGN d 401     -15.160  -6.744  47.577  0.00  0.00     0.091 C 
ATOM      2  S1  SGN d 401     -20.510  -5.005  47.200  0.00  0.00     0.156 S 
ATOM      3  C3  SGN d 401     -16.712  -5.371  46.133  0.00  0.00     0.083 C 
ATOM      4  C2  SGN d 401     -17.836  -5.767  47.114  0.00  0.00     0.081 C 
ATOM      5  O1S SGN d 401     -20.173  -4.804  48.597  0.00  0.00    -0.296 OA
ATOM      6  C1  SGN d 401     -17.497  -7.158  47.672  0.00  0.00     0.147 C 
ATOM      7  O2S SGN d 401     -20.708  -3.755  46.516  0.00  0.00    -0.296 OA
ATOM      8  O4  SGN d 401     -14.343  -5.202  45.901  0.00  0.00    -0.348 OA
ATOM      9  O4S SGN d 401     -12.124  -4.778  49.823  0.00  0.00    -0.572 OA
ATOM     10  O3S SGN d 401     -21.624  -5.913  47.034  0.00  0.00    -0.296 OA
ATOM     11  O3  SGN d 401     -16.934  -4.059  45.651  0.00  0.00    -0.391 OA
ATOM     12  O5  SGN d 401     -16.287  -7.121  48.367  0.00  0.00    -0.350 OA
ATOM     13  O6S SGN d 401     -13.252  -5.965  51.592  0.00  0.00    -0.572 OA
ATOM     14  O6  SGN d 401     -14.305  -5.685  49.464  0.00  0.00    -0.254 OA
ATOM     15  C6  SGN d 401     -13.998  -6.712  48.559  0.00  0.00     0.067 C 
ATOM     16  S2  SGN d 401     -13.362  -5.021  50.492  0.00  0.00     0.251 S 
ATOM     17  O5S SGN d 401     -14.027  -3.798  50.850  0.00  0.00    -0.572 OA
ATOM     18  C4  SGN d 401     -15.361  -5.376  46.856  0.00  0.00     0.095 C 
ATOM     19  O1  SGN d 401     -17.399  -8.125  46.612  0.00  0.00    -0.369 OA
ATOM     20  N   SGN d 401     -19.194  -5.762  46.463  0.00  0.00    -0.210 NA
ATOM     21  H   SGN d 401     -14.992  -7.433  46.775  0.00  0.00     0.090 H 
ATOM     22  H   SGN d 401     -16.707  -6.074  45.326  0.00  0.00     0.089 H 
ATOM     23  H   SGN d 401     -17.890  -5.044  47.901  0.00  0.00     0.076 H 
ATOM     24  H   SGN d 401     -19.424  -4.191  48.664  0.00  0.00     0.231 HD
ATOM     25  H   SGN d 401     -18.285  -7.445  48.337  0.00  0.00     0.131 H 
ATOM     26  H   SGN d 401     -19.938  -3.184  46.657  0.00  0.00     0.231 HD
ATOM     27  H   SGN d 401     -21.444  -6.738  47.513  0.00  0.00     0.231 HD
ATOM     28  H   SGN d 401     -16.934  -3.436  46.395  0.00  0.00     0.210 HD
ATOM     29  H   SGN d 401     -13.082  -6.500  48.049  0.00  0.00     0.080 H 
ATOM     30  H   SGN d 401     -13.868  -7.652  49.053  0.00  0.00     0.080 H 
ATOM     31  H   SGN d 401     -15.331  -4.588  47.579  0.00  0.00     0.091 H 
ATOM     32  H   SGN d 401     -16.685  -7.870  46.007  0.00  0.00     0.212 HD
ATOM     33  H   SGN d 401     -19.076  -5.319  45.552  0.00  0.00     0.140 HD
ATOM     34  C4  IDS d 404     -10.470   5.134  48.080  0.00  0.00     0.103 C 
ATOM     35  C5  IDS d 404      -9.844   4.493  46.846  0.00  0.00     0.152 C 
ATOM     36  O4  IDS d 404     -10.406   6.523  47.915  0.00  0.00    -0.348 OA
ATOM     37  O5  IDS d 404     -10.656   4.638  45.703  0.00  0.00    -0.340 OA
ATOM     38  C2  IDS d 404     -12.753   4.527  47.016  0.00  0.00     0.134 C 
ATOM     39  O62 IDS d 404      -7.459   4.461  46.862  0.00  0.00    -0.646 OA
ATOM     40  C3  IDS d 404     -11.942   4.696  48.310  0.00  0.00     0.094 C 
ATOM     41  O2  IDS d 404     -13.355   5.786  46.688  0.00  0.00    -0.244 OA
ATOM     42  O1S IDS d 404     -15.710   5.731  46.776  0.00  0.00    -0.572 OA
ATOM     43  O2S IDS d 404     -14.640   7.304  45.343  0.00  0.00    -0.572 OA
ATOM     44  S   IDS d 404     -14.666   5.975  45.865  0.00  0.00     0.252 S 
ATOM     45  O3  IDS d 404     -11.942   3.450  48.965  0.00  0.00    -0.390 OA
ATOM     46  C6  IDS d 404      -8.473   5.067  46.564  0.00  0.00     0.206 C 
ATOM     47  O3S IDS d 404     -14.662   4.976  44.861  0.00  0.00    -0.572 OA
ATOM     48  C1  IDS d 404     -11.935   4.000  45.804  0.00  0.00     0.161 C 
ATOM     49  O61 IDS d 404      -8.371   6.174  46.057  0.00  0.00    -0.646 OA
ATOM     50  H   IDS d 404      -9.925   4.814  48.944  0.00  0.00     0.092 H 
ATOM     51  H   IDS d 404      -9.750   3.449  47.063  0.00  0.00     0.104 H 
ATOM     52  H   IDS d 404     -13.489   3.775  47.207  0.00  0.00     0.097 H 
ATOM     53  H   IDS d 404     -12.401   5.474  48.883  0.00  0.00     0.091 H 
ATOM     54  H   IDS d 404     -11.514   2.787  48.400  0.00  0.00     0.210 HD
ATOM     55  H   IDS d 404     -12.457   4.246  44.904  0.00  0.00     0.133 H 
ATOM     56  C1  SGN d 405      -9.851   7.226  48.987  0.00  0.00     0.150 C 
ATOM     57  O6S SGN d 405      -6.661   7.610  51.420  0.00  0.00    -0.572 OA
ATOM     58  N   SGN d 405     -11.754   8.704  48.554  0.00  0.00    -0.210 NA
ATOM     59  S1  SGN d 405     -12.844   9.047  49.687  0.00  0.00     0.156 S 
ATOM     60  S2  SGN d 405      -5.350   7.973  50.891  0.00  0.00     0.251 S 
ATOM     61  O2S SGN d 405     -12.210  10.003  50.562  0.00  0.00    -0.296 OA
ATOM     62  C3  SGN d 405      -9.511   9.534  47.994  0.00  0.00     0.083 C 
ATOM     63  O5  SGN d 405      -8.414   7.110  49.084  0.00  0.00    -0.349 OA
ATOM     64  O3  SGN d 405      -9.915  10.886  48.109  0.00  0.00    -0.391 OA
ATOM     65  O6  SGN d 405      -5.559   8.402  49.365  0.00  0.00    -0.254 OA
ATOM     66  O5S SGN d 405      -4.766   9.118  51.547  0.00  0.00    -0.572 OA
ATOM     67  C5  SGN d 405      -7.658   7.951  48.169  0.00  0.00     0.090 C 
ATOM     68  O4S SGN d 405      -4.460   6.866  50.882  0.00  0.00    -0.572 OA
ATOM     69  O1S SGN d 405     -13.132   7.797  50.343  0.00  0.00    -0.296 OA
ATOM     70  C2  SGN d 405     -10.347   8.680  48.942  0.00  0.00     0.081 C 
ATOM     71  C6  SGN d 405      -6.144   7.640  48.315  0.00  0.00     0.067 C 
ATOM     72  O4  SGN d 405      -7.237  10.278  47.624  0.00  0.00    -0.390 OA
ATOM     73  O3S SGN d 405     -14.008   9.558  49.043  0.00  0.00    -0.296 OA
ATOM     74  C4  SGN d 405      -8.036   9.406  48.419  0.00  0.00     0.089 C 
ATOM     75  H   SGN d 405     -10.194   6.776  49.896  0.00  0.00     0.131 H 
ATOM     76  H   SGN d 405     -11.983   7.782  48.182  0.00  0.00     0.140 HD
ATOM     77  H   SGN d 405     -11.427   9.599  50.970  0.00  0.00     0.231 HD
ATOM     78  H   SGN d 405      -9.639   9.212  46.981  0.00  0.00     0.089 H 
ATOM     79  H   SGN d 405      -9.801  11.181  49.025  0.00  0.00     0.210 HD
ATOM     80  H   SGN d 405      -7.897   7.748  47.146  0.00  0.00     0.090 H 
ATOM     81  H   SGN d 405     -12.329   7.466  50.775  0.00  0.00     0.231 HD
ATOM     82  H   SGN d 405     -10.241   9.101  49.919  0.00  0.00     0.076 H 
ATOM     83  H   SGN d 405      -6.020   6.600  48.529  0.00  0.00     0.080 H 
ATOM     84  H   SGN d 405      -5.656   7.898  47.399  0.00  0.00     0.080 H 
ATOM     85  H   SGN d 405      -7.492  11.198  47.797  0.00  0.00     0.210 HD
ATOM     86  H   SGN d 405     -14.388   8.873  48.471  0.00  0.00     0.231 HD
ATOM     87  H   SGN d 405      -7.884   9.673  49.444  0.00  0.00     0.091 H 
ATOM     88  O5S SGN d 403     -13.695   3.495  40.062  0.00  0.00    -0.572 OA
ATOM     89  C3  SGN d 403     -10.503   0.826  45.094  0.00  0.00     0.083 C 
ATOM     90  O5  SGN d 403     -12.486   0.295  43.146  0.00  0.00    -0.349 OA
ATOM     91  S1  SGN d 403      -8.118  -1.312  43.019  0.00  0.00     0.156 S 
ATOM     92  O3  SGN d 403      -9.321   1.452  45.494  0.00  0.00    -0.391 OA
ATOM     93  O4S SGN d 403     -12.531   4.720  41.810  0.00  0.00    -0.572 OA
ATOM     94  N   SGN d 403      -9.249  -1.071  44.144  0.00  0.00    -0.210 NA
ATOM     95  O4  SGN d 403     -11.822   2.602  45.888  0.00  0.00    -0.348 OA
ATOM     96  O6S SGN d 403     -14.894   4.467  41.852  0.00  0.00    -0.572 OA
ATOM     97  C4  SGN d 403     -11.507   1.903  44.718  0.00  0.00     0.095 C 
ATOM     98  C5  SGN d 403     -12.783   1.219  44.173  0.00  0.00     0.091 C 
ATOM     99  O6  SGN d 403     -13.420   2.525  42.230  0.00  0.00    -0.254 OA
ATOM    100  O1S SGN d 403      -8.729  -1.033  41.744  0.00  0.00    -0.296 OA
ATOM    101  C1  SGN d 403     -11.523  -0.700  43.462  0.00  0.00     0.150 C 
ATOM    102  O3S SGN d 403      -7.751  -2.684  43.113  0.00  0.00    -0.296 OA
ATOM    103  O2S SGN d 403      -7.054  -0.382  43.344  0.00  0.00    -0.296 OA
ATOM    104  C2  SGN d 403     -10.238  -0.044  43.889  0.00  0.00     0.081 C 
ATOM    105  C6  SGN d 403     -13.822   2.180  43.550  0.00  0.00     0.067 C 
ATOM    106  S2  SGN d 403     -13.665   3.883  41.445  0.00  0.00     0.251 S 
ATOM    107  H   SGN d 403     -10.881   0.218  45.889  0.00  0.00     0.089 H 
ATOM    108  H   SGN d 403      -8.984   2.000  44.769  0.00  0.00     0.210 HD
ATOM    109  H   SGN d 403      -8.771  -0.826  45.011  0.00  0.00     0.140 HD
ATOM    110  H   SGN d 403     -11.111   2.565  43.976  0.00  0.00     0.091 H 
ATOM    111  H   SGN d 403     -13.191   0.757  45.048  0.00  0.00     0.090 H 
ATOM    112  H   SGN d 403      -8.972  -0.095  41.700  0.00  0.00     0.231 HD
ATOM    113  H   SGN d 403     -11.381  -1.280  42.573  0.00  0.00     0.131 H 
ATOM    114  H   SGN d 403      -8.512  -3.239  42.881  0.00  0.00     0.231 HD
ATOM    115  H   SGN d 403      -7.381   0.527  43.257  0.00  0.00     0.231 HD
ATOM    116  H   SGN d 403      -9.851   0.591  43.119  0.00  0.00     0.076 H 
ATOM    117  H   SGN d 403     -13.889   3.066  44.144  0.00  0.00     0.080 H 
ATOM    118  H   SGN d 403     -14.777   1.698  43.516  0.00  0.00     0.080 H 
ATOM    119  O62 IDS d 402     -15.635  -0.705  44.851  0.00  0.00    -0.646 OA
ATOM    120  C1  IDS d 402     -13.236  -4.420  46.285  0.00  0.00     0.161 C 
ATOM    121  O3S IDS d 402     -10.381  -6.030  47.071  0.00  0.00    -0.572 OA
ATOM    122  O3  IDS d 402     -13.270  -4.640  43.201  0.00  0.00    -0.390 OA
ATOM    123  O5  IDS d 402     -13.565  -3.059  46.407  0.00  0.00    -0.340 OA
ATOM    124  O4  IDS d 402     -11.944  -1.585  44.463  0.00  0.00    -0.348 OA
ATOM    125  O61 IDS d 402     -14.263  -0.374  46.436  0.00  0.00    -0.646 OA
ATOM    126  O1S IDS d 402      -8.758  -5.032  45.621  0.00  0.00    -0.572 OA
ATOM    127  O2S IDS d 402      -9.418  -3.920  47.609  0.00  0.00    -0.572 OA
ATOM    128  C3  IDS d 402     -12.360  -3.863  43.934  0.00  0.00     0.094 C 
ATOM    129  C5  IDS d 402     -14.053  -2.475  45.205  0.00  0.00     0.152 C 
ATOM    130  S   IDS d 402      -9.805  -4.802  46.580  0.00  0.00     0.252 S 
ATOM    131  C4  IDS d 402     -12.962  -2.474  44.109  0.00  0.00     0.103 C 
ATOM    132  C2  IDS d 402     -12.102  -4.575  45.274  0.00  0.00     0.134 C 
ATOM    133  C6  IDS d 402     -14.693  -1.104  45.517  0.00  0.00     0.206 C 
ATOM    134  O2  IDS d 402     -10.928  -4.037  45.816  0.00  0.00    -0.244 OA
ATOM    135  H   IDS d 402     -12.922  -4.773  47.245  0.00  0.00     0.133 H 
ATOM    136  H   IDS d 402     -12.908  -5.531  43.077  0.00  0.00     0.210 HD
ATOM    137  H   IDS d 402     -11.419  -3.751  43.437  0.00  0.00     0.091 H 
ATOM    138  H   IDS d 402     -14.840  -3.067  44.785  0.00  0.00     0.104 H 
ATOM    139  H   IDS d 402     -13.416  -2.174  43.188  0.00  0.00     0.092 H 
ATOM    140  H   IDS d 402     -12.023  -5.623  45.076  0.00  0.00     0.097 H 
ENDROOT
TORSDOF 45
ENDMDL
MODEL 15
REMARK VINA RESULT:      -4.8      4.025     13.566
REMARK  0 active torsions:
REMARK  status: ('A' for Active; 'I' for Inactive)
REMARK       I    between atoms: C5_1  and  C6_64 
REMARK       I    between atoms: C4_2  and  O4_32 
REMARK       I    between atoms: C1_3  and  O4_32 
REMARK       I    between atoms: S1_6  and  N_87 
REMARK       I    between atoms: S1_6  and  O1S_23 
REMARK       I    between atoms: S1_6  and  O2S_31 
REMARK       I    between atoms: S1_6  and  O3S_47 
REMARK       I    between atoms: N_7  and  C2_53 
REMARK       I    between atoms: N_7  and  S1_10 
REMARK       I    between atoms: C3_9  and  O3_14 
REMARK       I    between atoms: S1_10  and  O1S_52 
REMARK       I    between atoms: S1_10  and  O2S_17 
REMARK       I    between atoms: S1_10  and  O3S_80 
REMARK       I    between atoms: C5_12  and  C6_73 
REMARK       I    between atoms: S1_13  and  N_25 
REMARK       I    between atoms: S1_13  and  O1S_58 
REMARK       I    between atoms: S1_13  and  O2S_66 
REMARK       I    between atoms: S1_13  and  O3S_62 
REMARK       I    between atoms: S2_15  and  O6_41 
REMARK       I    between atoms: C3_16  and  O3_48 
REMARK       I    between atoms: C2_18  and  N_87 
REMARK       I    between atoms: C1_19  and  O4_39 
REMARK       I    between atoms: C3_20  and  O3_27 
REMARK       I    between atoms: C1_24  and  O1_84 
REMARK       I    between atoms: N_25  and  C2_78 
REMARK       I    between atoms: O4_28  and  C4_30 
REMARK       I    between atoms: O4_28  and  C1_86 
REMARK       I    between atoms: C2_34  and  O2_59 
REMARK       I    between atoms: O3_35  and  C3_60 
REMARK       I    between atoms: C5_37  and  C6_81 
REMARK       I    between atoms: O4_39  and  C4_79 
REMARK       I    between atoms: O4_40  and  C4_77 
REMARK       I    between atoms: O4_40  and  C1_61 
REMARK       I    between atoms: O6_41  and  C6_57 
REMARK       I    between atoms: O6_45  and  C6_81 
REMARK       I    between atoms: O6_45  and  S2_83 
REMARK       I    between atoms: C3_46  and  O3_72 
REMARK       I    between atoms: C5_50  and  C6_57 
REMARK       I    between atoms: O2_59  and  S_69 
REMARK       I    between atoms: O6_63  and  C6_64 
REMARK       I    between atoms: O6_63  and  S2_70 
REMARK       I    between atoms: C5_67  and  C6_88 
REMARK       I    between atoms: S_71  and  O2_89 
REMARK       I    between atoms: O4_75  and  C4_82 
REMARK       I    between atoms: C2_85  and  O2_89 
ROOT
ATOM      1  C5  SGN d 401     -12.969  11.233  48.503  0.00  0.00     0.091 C 
ATOM      2  S1  SGN d 401      -7.797  12.941  49.958  0.00  0.00     0.156 S 
ATOM      3  C3  SGN d 401     -10.581  11.272  47.685  0.00  0.00     0.083 C 
ATOM      4  C2  SGN d 401     -10.242  12.051  48.974  0.00  0.00     0.081 C 
ATOM      5  O1S SGN d 401      -8.321  12.336  51.168  0.00  0.00    -0.296 OA
ATOM      6  C1  SGN d 401     -11.482  12.875  49.358  0.00  0.00     0.147 C 
ATOM      7  O2S SGN d 401      -6.713  12.174  49.405  0.00  0.00    -0.296 OA
ATOM      8  O4  SGN d 401     -12.200   9.834  46.685  0.00  0.00    -0.348 OA
ATOM      9  O4S SGN d 401     -14.712   7.523  49.659  0.00  0.00    -0.572 OA
ATOM     10  O3S SGN d 401      -7.452  14.333  50.151  0.00  0.00    -0.296 OA
ATOM     11  O3  SGN d 401      -9.498  10.431  47.332  0.00  0.00    -0.391 OA
ATOM     12  O5  SGN d 401     -12.565  12.032  49.614  0.00  0.00    -0.350 OA
ATOM     13  O6S SGN d 401     -15.061   8.797  51.675  0.00  0.00    -0.572 OA
ATOM     14  O6  SGN d 401     -13.509   9.555  50.022  0.00  0.00    -0.254 OA
ATOM     15  C6  SGN d 401     -14.099  10.369  49.045  0.00  0.00     0.067 C 
ATOM     16  S2  SGN d 401     -14.111   8.300  50.694  0.00  0.00     0.251 S 
ATOM     17  O5S SGN d 401     -12.980   7.631  51.278  0.00  0.00    -0.572 OA
ATOM     18  C4  SGN d 401     -11.802  10.379  47.919  0.00  0.00     0.095 C 
ATOM     19  O1  SGN d 401     -11.836  13.787  48.305  0.00  0.00    -0.369 OA
ATOM     20  N   SGN d 401      -9.035  12.935  48.810  0.00  0.00    -0.210 NA
ATOM     21  H   SGN d 401     -13.283  11.836  47.676  0.00  0.00     0.090 H 
ATOM     22  H   SGN d 401     -10.778  11.980  46.907  0.00  0.00     0.089 H 
ATOM     23  H   SGN d 401      -9.991  11.358  49.750  0.00  0.00     0.076 H 
ATOM     24  H   SGN d 401      -8.538  11.406  50.997  0.00  0.00     0.231 HD
ATOM     25  H   SGN d 401     -11.243  13.432  50.240  0.00  0.00     0.131 H 
ATOM     26  H   SGN d 401      -6.993  11.252  49.295  0.00  0.00     0.231 HD
ATOM     27  H   SGN d 401      -8.212  14.806  50.524  0.00  0.00     0.231 HD
ATOM     28  H   SGN d 401      -9.334   9.797  48.047  0.00  0.00     0.210 HD
ATOM     29  H   SGN d 401     -14.522   9.771  48.265  0.00  0.00     0.080 H 
ATOM     30  H   SGN d 401     -14.895  10.961  49.448  0.00  0.00     0.080 H 
ATOM     31  H   SGN d 401     -11.557   9.598  48.609  0.00  0.00     0.091 H 
ATOM     32  H   SGN d 401     -12.053  13.287  47.503  0.00  0.00     0.212 HD
ATOM     33  H   SGN d 401      -8.605  12.678  47.921  0.00  0.00     0.140 HD
ATOM     34  C4  IDS d 404      -9.572  -1.060  47.680  0.00  0.00     0.103 C 
ATOM     35  C5  IDS d 404     -10.082  -0.677  46.294  0.00  0.00     0.152 C 
ATOM     36  O4  IDS d 404      -8.747  -2.182  47.533  0.00  0.00    -0.348 OA
ATOM     37  O5  IDS d 404      -9.065  -0.126  45.489  0.00  0.00    -0.340 OA
ATOM     38  C2  IDS d 404      -7.916   0.916  47.419  0.00  0.00     0.134 C 
ATOM     39  O62 IDS d 404     -11.903  -2.009  45.519  0.00  0.00    -0.646 OA
ATOM     40  C3  IDS d 404      -8.787   0.085  48.375  0.00  0.00     0.094 C 
ATOM     41  O2  IDS d 404      -6.622   0.305  47.337  0.00  0.00    -0.244 OA
ATOM     42  O1S IDS d 404      -4.904   1.671  48.199  0.00  0.00    -0.572 OA
ATOM     43  O2S IDS d 404      -4.375   0.059  46.527  0.00  0.00    -0.572 OA
ATOM     44  S   IDS d 404      -5.293   1.047  46.999  0.00  0.00     0.252 S 
ATOM     45  O3  IDS d 404      -9.712   0.967  48.966  0.00  0.00    -0.390 OA
ATOM     46  C6  IDS d 404     -10.694  -1.865  45.587  0.00  0.00     0.206 C 
ATOM     47  O3S IDS d 404      -5.611   2.029  46.029  0.00  0.00    -0.572 OA
ATOM     48  C1  IDS d 404      -8.510   1.094  45.994  0.00  0.00     0.161 C 
ATOM     49  O61 IDS d 404      -9.971  -2.721  45.098  0.00  0.00    -0.646 OA
ATOM     50  H   IDS d 404     -10.414  -1.269  48.307  0.00  0.00     0.092 H 
ATOM     51  H   IDS d 404     -10.835   0.068  46.446  0.00  0.00     0.104 H 
ATOM     52  H   IDS d 404      -7.863   1.903  47.827  0.00  0.00     0.097 H 
ATOM     53  H   IDS d 404      -8.137  -0.382  49.084  0.00  0.00     0.091 H 
ATOM     54  H   IDS d 404     -10.271   1.359  48.277  0.00  0.00     0.210 HD
ATOM     55  H   IDS d 404      -7.719   1.356  45.323  0.00  0.00     0.133 H 
ATOM     56  C1  SGN d 405      -9.045  -3.256  48.376  0.00  0.00     0.150 C 
ATOM     57  O6S SGN d 405     -11.898  -5.816  49.622  0.00  0.00    -0.572 OA
ATOM     58  N   SGN d 405      -6.610  -3.285  48.629  0.00  0.00    -0.210 NA
ATOM     59  S1  SGN d 405      -5.900  -3.146  50.066  0.00  0.00     0.156 S 
ATOM     60  S2  SGN d 405     -12.523  -6.755  48.696  0.00  0.00     0.251 S 
ATOM     61  O2S SGN d 405      -6.052  -4.432  50.703  0.00  0.00    -0.296 OA
ATOM     62  C3  SGN d 405      -7.651  -5.123  47.376  0.00  0.00     0.083 C 
ATOM     63  O5  SGN d 405     -10.225  -3.996  47.988  0.00  0.00    -0.349 OA
ATOM     64  O3  SGN d 405      -6.573  -6.000  47.647  0.00  0.00    -0.391 OA
ATOM     65  O6  SGN d 405     -11.685  -6.705  47.335  0.00  0.00    -0.254 OA
ATOM     66  O5S SGN d 405     -12.464  -8.125  49.146  0.00  0.00    -0.572 OA
ATOM     67  C5  SGN d 405     -10.039  -4.935  46.893  0.00  0.00     0.090 C 
ATOM     68  O4S SGN d 405     -13.850  -6.370  48.369  0.00  0.00    -0.572 OA
ATOM     69  O1S SGN d 405      -6.610  -2.098  50.753  0.00  0.00    -0.296 OA
ATOM     70  C2  SGN d 405      -7.793  -4.134  48.528  0.00  0.00     0.081 C 
ATOM     71  C6  SGN d 405     -11.405  -5.572  46.522  0.00  0.00     0.067 C 
ATOM     72  O4  SGN d 405      -8.819  -6.944  46.289  0.00  0.00    -0.390 OA
ATOM     73  O3S SGN d 405      -4.539  -2.779  49.856  0.00  0.00    -0.296 OA
ATOM     74  C4  SGN d 405      -8.956  -5.934  47.285  0.00  0.00     0.089 C 
ATOM     75  H   SGN d 405      -9.308  -2.864  49.337  0.00  0.00     0.131 H 
ATOM     76  H   SGN d 405      -6.884  -2.347  48.334  0.00  0.00     0.140 HD
ATOM     77  H   SGN d 405      -6.996  -4.626  50.819  0.00  0.00     0.231 HD
ATOM     78  H   SGN d 405      -7.464  -4.609  46.456  0.00  0.00     0.089 H 
ATOM     79  H   SGN d 405      -6.739  -6.468  48.480  0.00  0.00     0.210 HD
ATOM     80  H   SGN d 405      -9.695  -4.451  46.003  0.00  0.00     0.090 H 
ATOM     81  H   SGN d 405      -7.532  -2.366  50.888  0.00  0.00     0.231 HD
ATOM     82  H   SGN d 405      -7.895  -4.709  49.424  0.00  0.00     0.076 H 
ATOM     83  H   SGN d 405     -12.178  -4.845  46.661  0.00  0.00     0.080 H 
ATOM     84  H   SGN d 405     -11.365  -5.889  45.502  0.00  0.00     0.080 H 
ATOM     85  H   SGN d 405      -8.127  -7.569  46.557  0.00  0.00     0.210 HD
ATOM     86  H   SGN d 405      -4.501  -1.910  49.427  0.00  0.00     0.231 HD
ATOM     87  H   SGN d 405      -9.198  -6.420  48.207  0.00  0.00     0.091 H 
ATOM     88  O5S SGN d 403      -5.885   3.538  41.150  0.00  0.00    -0.572 OA
ATOM     89  C3  SGN d 403     -11.281   2.959  44.781  0.00  0.00     0.083 C 
ATOM     90  O5  SGN d 403      -9.560   4.863  43.589  0.00  0.00    -0.349 OA
ATOM     91  S1  SGN d 403     -13.774   3.698  41.988  0.00  0.00     0.156 S 
ATOM     92  O3  SGN d 403     -11.911   1.713  44.780  0.00  0.00    -0.391 OA
ATOM     93  O4S SGN d 403      -6.520   1.577  42.439  0.00  0.00    -0.572 OA
ATOM     94  N   SGN d 403     -13.091   3.943  43.429  0.00  0.00    -0.210 NA
ATOM     95  O4  SGN d 403      -9.450   2.138  46.005  0.00  0.00    -0.348 OA
ATOM     96  O6S SGN d 403      -4.901   3.114  43.257  0.00  0.00    -0.572 OA
ATOM     97  C4  SGN d 403      -9.779   2.731  44.783  0.00  0.00     0.095 C 
ATOM     98  C5  SGN d 403      -9.073   4.104  44.676  0.00  0.00     0.091 C 
ATOM     99  O6  SGN d 403      -7.273   3.769  43.082  0.00  0.00    -0.254 OA
ATOM    100  O1S SGN d 403     -12.793   4.051  40.993  0.00  0.00    -0.296 OA
ATOM    101  C1  SGN d 403     -10.966   5.059  43.547  0.00  0.00     0.150 C 
ATOM    102  O3S SGN d 403     -14.894   4.574  41.925  0.00  0.00    -0.296 OA
ATOM    103  O2S SGN d 403     -14.112   2.288  41.962  0.00  0.00    -0.296 OA
ATOM    104  C2  SGN d 403     -11.663   3.725  43.538  0.00  0.00     0.081 C 
ATOM    105  C6  SGN d 403      -7.544   4.035  44.453  0.00  0.00     0.067 C 
ATOM    106  S2  SGN d 403      -6.062   2.959  42.453  0.00  0.00     0.251 S 
ATOM    107  H   SGN d 403     -11.579   3.518  45.643  0.00  0.00     0.089 H 
ATOM    108  H   SGN d 403     -11.636   1.213  43.997  0.00  0.00     0.210 HD
ATOM    109  H   SGN d 403     -13.547   3.318  44.093  0.00  0.00     0.140 HD
ATOM    110  H   SGN d 403      -9.476   2.110  43.966  0.00  0.00     0.091 H 
ATOM    111  H   SGN d 403      -9.284   4.549  45.626  0.00  0.00     0.090 H 
ATOM    112  H   SGN d 403     -12.039   3.444  41.052  0.00  0.00     0.231 HD
ATOM    113  H   SGN d 403     -11.171   5.605  42.649  0.00  0.00     0.131 H 
ATOM    114  H   SGN d 403     -14.586   5.494  41.946  0.00  0.00     0.231 HD
ATOM    115  H   SGN d 403     -13.300   1.760  42.008  0.00  0.00     0.231 HD
ATOM    116  H   SGN d 403     -11.363   3.135  42.697  0.00  0.00     0.076 H 
ATOM    117  H   SGN d 403      -7.131   3.254  45.056  0.00  0.00     0.080 H 
ATOM    118  H   SGN d 403      -7.102   4.970  44.728  0.00  0.00     0.080 H 
ATOM    119  O62 IDS d 402      -8.257   7.146  46.219  0.00  0.00    -0.646 OA
ATOM    120  C1  IDS d 402     -12.676   8.508  46.697  0.00  0.00     0.161 C 
ATOM    121  O3S IDS d 402     -16.005   8.038  46.457  0.00  0.00    -0.572 OA
ATOM    122  O3  IDS d 402     -11.923   9.262  43.794  0.00  0.00    -0.390 OA
ATOM    123  O5  IDS d 402     -11.652   7.580  46.950  0.00  0.00    -0.340 OA
ATOM    124  O4  IDS d 402     -11.455   5.828  44.611  0.00  0.00    -0.348 OA
ATOM    125  O61 IDS d 402      -9.535   5.814  47.267  0.00  0.00    -0.646 OA
ATOM    126  O1S IDS d 402     -16.230   6.578  44.574  0.00  0.00    -0.572 OA
ATOM    127  O2S IDS d 402     -15.625   5.699  46.692  0.00  0.00    -0.572 OA
ATOM    128  C3  IDS d 402     -12.351   7.989  44.201  0.00  0.00     0.094 C 
ATOM    129  C5  IDS d 402     -10.602   7.605  45.991  0.00  0.00     0.152 C 
ATOM    130  S   IDS d 402     -15.572   6.814  45.830  0.00  0.00     0.252 S 
ATOM    131  C4  IDS d 402     -11.119   7.183  44.596  0.00  0.00     0.103 C 
ATOM    132  C2  IDS d 402     -13.342   8.171  45.364  0.00  0.00     0.134 C 
ATOM    133  C6  IDS d 402      -9.390   6.811  46.527  0.00  0.00     0.206 C 
ATOM    134  O2  IDS d 402     -14.058   6.975  45.498  0.00  0.00    -0.244 OA
ATOM    135  H   IDS d 402     -13.391   8.439  47.491  0.00  0.00     0.133 H 
ATOM    136  H   IDS d 402     -12.693   9.795  43.538  0.00  0.00     0.210 HD
ATOM    137  H   IDS d 402     -12.854   7.455  43.423  0.00  0.00     0.091 H 
ATOM    138  H   IDS d 402     -10.244   8.603  45.843  0.00  0.00     0.104 H 
ATOM    139  H   IDS d 402     -10.341   7.367  43.884  0.00  0.00     0.092 H 
ATOM    140  H   IDS d 402     -13.971   9.004  45.128  0.00  0.00     0.097 H 
ENDROOT
TORSDOF 45
ENDMDL
MODEL 16
REMARK VINA RESULT:      -4.5      3.866     12.788
REMARK  0 active torsions:
REMARK  status: ('A' for Active; 'I' for Inactive)
REMARK       I    between atoms: C5_1  and  C6_64 
REMARK       I    between atoms: C4_2  and  O4_32 
REMARK       I    between atoms: C1_3  and  O4_32 
REMARK       I    between atoms: S1_6  and  N_87 
REMARK       I    between atoms: S1_6  and  O1S_23 
REMARK       I    between atoms: S1_6  and  O2S_31 
REMARK       I    between atoms: S1_6  and  O3S_47 
REMARK       I    between atoms: N_7  and  C2_53 
REMARK       I    between atoms: N_7  and  S1_10 
REMARK       I    between atoms: C3_9  and  O3_14 
REMARK       I    between atoms: S1_10  and  O1S_52 
REMARK       I    between atoms: S1_10  and  O2S_17 
REMARK       I    between atoms: S1_10  and  O3S_80 
REMARK       I    between atoms: C5_12  and  C6_73 
REMARK       I    between atoms: S1_13  and  N_25 
REMARK       I    between atoms: S1_13  and  O1S_58 
REMARK       I    between atoms: S1_13  and  O2S_66 
REMARK       I    between atoms: S1_13  and  O3S_62 
REMARK       I    between atoms: S2_15  and  O6_41 
REMARK       I    between atoms: C3_16  and  O3_48 
REMARK       I    between atoms: C2_18  and  N_87 
REMARK       I    between atoms: C1_19  and  O4_39 
REMARK       I    between atoms: C3_20  and  O3_27 
REMARK       I    between atoms: C1_24  and  O1_84 
REMARK       I    between atoms: N_25  and  C2_78 
REMARK       I    between atoms: O4_28  and  C4_30 
REMARK       I    between atoms: O4_28  and  C1_86 
REMARK       I    between atoms: C2_34  and  O2_59 
REMARK       I    between atoms: O3_35  and  C3_60 
REMARK       I    between atoms: C5_37  and  C6_81 
REMARK       I    between atoms: O4_39  and  C4_79 
REMARK       I    between atoms: O4_40  and  C4_77 
REMARK       I    between atoms: O4_40  and  C1_61 
REMARK       I    between atoms: O6_41  and  C6_57 
REMARK       I    between atoms: O6_45  and  C6_81 
REMARK       I    between atoms: O6_45  and  S2_83 
REMARK       I    between atoms: C3_46  and  O3_72 
REMARK       I    between atoms: C5_50  and  C6_57 
REMARK       I    between atoms: O2_59  and  S_69 
REMARK       I    between atoms: O6_63  and  C6_64 
REMARK       I    between atoms: O6_63  and  S2_70 
REMARK       I    between atoms: C5_67  and  C6_88 
REMARK       I    between atoms: S_71  and  O2_89 
REMARK       I    between atoms: O4_75  and  C4_82 
REMARK       I    between atoms: C2_85  and  O2_89 
ROOT
ATOM      1  C5  SGN d 401      -5.191  11.759  43.676  0.00  0.00     0.091 C 
ATOM      2  S1  SGN d 401      -8.250  16.494  43.607  0.00  0.00     0.156 S 
ATOM      3  C3  SGN d 401      -6.794  13.115  45.077  0.00  0.00     0.083 C 
ATOM      4  C2  SGN d 401      -6.800  14.142  43.925  0.00  0.00     0.081 C 
ATOM      5  O1S SGN d 401      -8.475  15.911  42.298  0.00  0.00    -0.296 OA
ATOM      6  C1  SGN d 401      -5.422  14.083  43.244  0.00  0.00     0.147 C 
ATOM      7  O2S SGN d 401      -9.442  16.473  44.412  0.00  0.00    -0.296 OA
ATOM      8  O4  SGN d 401      -6.306  10.843  45.618  0.00  0.00    -0.348 OA
ATOM      9  O4S SGN d 401      -6.468   8.023  42.080  0.00  0.00    -0.572 OA
ATOM     10  O3S SGN d 401      -7.659  17.813  43.521  0.00  0.00    -0.296 OA
ATOM     11  O3  SGN d 401      -8.070  13.070  45.688  0.00  0.00    -0.391 OA
ATOM     12  O5  SGN d 401      -5.197  12.812  42.712  0.00  0.00    -0.350 OA
ATOM     13  O6S SGN d 401      -5.784   9.133  40.053  0.00  0.00    -0.572 OA
ATOM     14  O6  SGN d 401      -6.145  10.390  42.054  0.00  0.00    -0.254 OA
ATOM     15  C6  SGN d 401      -4.999  10.491  42.855  0.00  0.00     0.067 C 
ATOM     16  S2  SGN d 401      -6.622   9.167  41.240  0.00  0.00     0.251 S 
ATOM     17  O5S SGN d 401      -8.005   9.442  40.958  0.00  0.00    -0.572 OA
ATOM     18  C4  SGN d 401      -6.494  11.716  44.531  0.00  0.00     0.095 C 
ATOM     19  O1  SGN d 401      -4.375  14.391  44.179  0.00  0.00    -0.369 OA
ATOM     20  N   SGN d 401      -7.107  15.536  44.400  0.00  0.00    -0.210 NA
ATOM     21  H   SGN d 401      -4.414  11.892  44.400  0.00  0.00     0.090 H 
ATOM     22  H   SGN d 401      -6.047  13.409  45.785  0.00  0.00     0.089 H 
ATOM     23  H   SGN d 401      -7.576  13.893  43.233  0.00  0.00     0.076 H 
ATOM     24  H   SGN d 401      -8.871  15.031  42.399  0.00  0.00     0.231 HD
ATOM     25  H   SGN d 401      -5.415  14.808  42.457  0.00  0.00     0.131 H 
ATOM     26  H   SGN d 401      -9.798  15.571  44.438  0.00  0.00     0.231 HD
ATOM     27  H   SGN d 401      -6.862  17.775  42.969  0.00  0.00     0.231 HD
ATOM     28  H   SGN d 401      -8.733  12.802  45.033  0.00  0.00     0.210 HD
ATOM     29  H   SGN d 401      -4.913   9.639  43.496  0.00  0.00     0.080 H 
ATOM     30  H   SGN d 401      -4.104  10.528  42.267  0.00  0.00     0.080 H 
ATOM     31  H   SGN d 401      -7.306  11.381  43.920  0.00  0.00     0.091 H 
ATOM     32  H   SGN d 401      -4.377  13.736  44.895  0.00  0.00     0.212 HD
ATOM     33  H   SGN d 401      -7.422  15.451  45.367  0.00  0.00     0.140 HD
ATOM     34  C4  IDS d 404     -15.389   4.215  45.231  0.00  0.00     0.103 C 
ATOM     35  C5  IDS d 404     -14.498   3.964  46.444  0.00  0.00     0.152 C 
ATOM     36  O4  IDS d 404     -16.691   3.831  45.575  0.00  0.00    -0.348 OA
ATOM     37  O5  IDS d 404     -14.754   4.877  47.488  0.00  0.00    -0.340 OA
ATOM     38  C2  IDS d 404     -15.320   6.712  45.924  0.00  0.00     0.134 C 
ATOM     39  O62 IDS d 404     -13.835   1.689  46.717  0.00  0.00    -0.646 OA
ATOM     40  C3  IDS d 404     -15.381   5.699  44.770  0.00  0.00     0.094 C 
ATOM     41  O2  IDS d 404     -16.660   7.020  46.329  0.00  0.00    -0.244 OA
ATOM     42  O1S IDS d 404     -17.241   9.273  45.947  0.00  0.00    -0.572 OA
ATOM     43  O2S IDS d 404     -18.341   8.070  47.685  0.00  0.00    -0.572 OA
ATOM     44  S   IDS d 404     -17.117   8.350  47.003  0.00  0.00     0.252 S 
ATOM     45  O3  IDS d 404     -14.242   5.912  43.971  0.00  0.00    -0.390 OA
ATOM     46  C6  IDS d 404     -14.660   2.552  46.961  0.00  0.00     0.206 C 
ATOM     47  O3S IDS d 404     -16.069   8.749  47.868  0.00  0.00    -0.572 OA
ATOM     48  C1  IDS d 404     -14.490   6.244  47.152  0.00  0.00     0.161 C 
ATOM     49  O61 IDS d 404     -15.652   2.253  47.611  0.00  0.00    -0.646 OA
ATOM     50  H   IDS d 404     -15.013   3.645  44.408  0.00  0.00     0.092 H 
ATOM     51  H   IDS d 404     -13.491   4.103  46.112  0.00  0.00     0.104 H 
ATOM     52  H   IDS d 404     -14.811   7.575  45.552  0.00  0.00     0.097 H 
ATOM     53  H   IDS d 404     -16.300   5.856  44.247  0.00  0.00     0.091 H 
ATOM     54  H   IDS d 404     -13.442   5.755  44.497  0.00  0.00     0.210 HD
ATOM     55  H   IDS d 404     -14.785   6.817  48.005  0.00  0.00     0.133 H 
ATOM     56  C1  SGN d 405     -17.313   2.962  44.674  0.00  0.00     0.150 C 
ATOM     57  O6S SGN d 405     -17.047  -0.552  42.717  0.00  0.00    -0.572 OA
ATOM     58  N   SGN d 405     -19.200   4.475  45.052  0.00  0.00    -0.210 NA
ATOM     59  S1  SGN d 405     -19.918   5.260  43.845  0.00  0.00     0.156 S 
ATOM     60  S2  SGN d 405     -17.000  -1.817  43.445  0.00  0.00     0.251 S 
ATOM     61  O2S SGN d 405     -20.745   4.283  43.179  0.00  0.00    -0.296 OA
ATOM     62  C3  SGN d 405     -19.351   2.207  45.981  0.00  0.00     0.083 C 
ATOM     63  O5  SGN d 405     -16.827   1.602  44.741  0.00  0.00    -0.349 OA
ATOM     64  O3  SGN d 405     -20.766   2.237  45.986  0.00  0.00    -0.391 OA
ATOM     65  O6  SGN d 405     -17.333  -1.494  44.975  0.00  0.00    -0.254 OA
ATOM     66  O5S SGN d 405     -18.001  -2.761  43.013  0.00  0.00    -0.572 OA
ATOM     67  C5  SGN d 405     -17.353   0.806  45.839  0.00  0.00     0.090 C 
ATOM     68  O4S SGN d 405     -15.700  -2.388  43.425  0.00  0.00    -0.572 OA
ATOM     69  O1S SGN d 405     -18.853   5.751  43.009  0.00  0.00    -0.296 OA
ATOM     70  C2  SGN d 405     -18.836   3.078  44.839  0.00  0.00     0.081 C 
ATOM     71  C6  SGN d 405     -16.665  -0.586  45.842  0.00  0.00     0.067 C 
ATOM     72  O4  SGN d 405     -19.427  -0.099  46.717  0.00  0.00    -0.390 OA
ATOM     73  O3S SGN d 405     -20.662   6.343  44.400  0.00  0.00    -0.296 OA
ATOM     74  C4  SGN d 405     -18.873   0.765  45.727  0.00  0.00     0.089 C 
ATOM     75  H   SGN d 405     -17.052   3.266  43.682  0.00  0.00     0.131 H 
ATOM     76  H   SGN d 405     -18.342   4.982  45.275  0.00  0.00     0.140 HD
ATOM     77  H   SGN d 405     -20.185   3.574  42.824  0.00  0.00     0.231 HD
ATOM     78  H   SGN d 405     -18.986   2.562  46.922  0.00  0.00     0.089 H 
ATOM     79  H   SGN d 405     -21.099   1.915  45.134  0.00  0.00     0.210 HD
ATOM     80  H   SGN d 405     -17.132   1.240  46.792  0.00  0.00     0.090 H 
ATOM     81  H   SGN d 405     -18.360   5.001  42.641  0.00  0.00     0.231 HD
ATOM     82  H   SGN d 405     -19.298   2.723  43.942  0.00  0.00     0.076 H 
ATOM     83  H   SGN d 405     -15.652  -0.475  45.517  0.00  0.00     0.080 H 
ATOM     84  H   SGN d 405     -16.702  -0.978  46.836  0.00  0.00     0.080 H 
ATOM     85  H   SGN d 405     -20.393  -0.112  46.630  0.00  0.00     0.210 HD
ATOM     86  H   SGN d 405     -20.055   6.964  44.831  0.00  0.00     0.231 HD
ATOM     87  H   SGN d 405     -19.179   0.398  44.770  0.00  0.00     0.091 H 
ATOM     88  O5S SGN d 403     -13.968   8.920  52.528  0.00  0.00    -0.572 OA
ATOM     89  C3  SGN d 403     -10.999   5.779  47.632  0.00  0.00     0.083 C 
ATOM     90  O5  SGN d 403     -10.846   8.102  49.241  0.00  0.00    -0.349 OA
ATOM     91  S1  SGN d 403      -8.130   4.349  49.702  0.00  0.00     0.156 S 
ATOM     92  O3  SGN d 403     -11.321   4.431  47.461  0.00  0.00    -0.391 OA
ATOM     93  O4S SGN d 403     -14.988   7.236  51.101  0.00  0.00    -0.572 OA
ATOM     94  N   SGN d 403      -8.761   5.200  48.486  0.00  0.00    -0.210 NA
ATOM     95  O4  SGN d 403     -13.125   6.475  46.910  0.00  0.00    -0.348 OA
ATOM     96  O6S SGN d 403     -15.378   9.552  50.739  0.00  0.00    -0.572 OA
ATOM     97  C4  SGN d 403     -12.268   6.525  48.013  0.00  0.00     0.095 C 
ATOM     98  C5  SGN d 403     -11.902   7.999  48.309  0.00  0.00     0.091 C 
ATOM     99  O6  SGN d 403     -13.154   8.574  50.306  0.00  0.00    -0.254 OA
ATOM    100  O1S SGN d 403      -8.448   5.055  50.917  0.00  0.00    -0.296 OA
ATOM    101  C1  SGN d 403      -9.662   7.384  48.924  0.00  0.00     0.150 C 
ATOM    102  O3S SGN d 403      -6.724   4.328  49.484  0.00  0.00    -0.296 OA
ATOM    103  O2S SGN d 403      -8.769   3.048  49.628  0.00  0.00    -0.296 OA
ATOM    104  C2  SGN d 403      -9.988   5.926  48.744  0.00  0.00     0.081 C 
ATOM    105  C6  SGN d 403     -13.046   8.845  48.914  0.00  0.00     0.067 C 
ATOM    106  S2  SGN d 403     -14.454   8.585  51.217  0.00  0.00     0.251 S 
ATOM    107  H   SGN d 403     -10.586   6.174  46.728  0.00  0.00     0.089 H 
ATOM    108  H   SGN d 403     -11.694   4.081  48.285  0.00  0.00     0.210 HD
ATOM    109  H   SGN d 403      -8.945   4.550  47.721  0.00  0.00     0.140 HD
ATOM    110  H   SGN d 403     -12.733   6.092  48.875  0.00  0.00     0.091 H 
ATOM    111  H   SGN d 403     -11.644   8.373  47.340  0.00  0.00     0.090 H 
ATOM    112  H   SGN d 403      -9.409   5.058  51.048  0.00  0.00     0.231 HD
ATOM    113  H   SGN d 403      -8.990   7.528  49.745  0.00  0.00     0.131 H 
ATOM    114  H   SGN d 403      -6.373   5.230  49.551  0.00  0.00     0.231 HD
ATOM    115  H   SGN d 403      -9.721   3.147  49.787  0.00  0.00     0.231 HD
ATOM    116  H   SGN d 403     -10.426   5.512  49.628  0.00  0.00     0.076 H 
ATOM    117  H   SGN d 403     -13.967   8.598  48.431  0.00  0.00     0.080 H 
ATOM    118  H   SGN d 403     -12.835   9.884  48.770  0.00  0.00     0.080 H 
ATOM    119  O62 IDS d 402     -10.874  11.107  47.052  0.00  0.00    -0.646 OA
ATOM    120  C1  IDS d 402      -6.796   9.530  45.472  0.00  0.00     0.161 C 
ATOM    121  O3S IDS d 402      -4.560   7.086  44.849  0.00  0.00    -0.572 OA
ATOM    122  O3  IDS d 402      -6.322  10.082  48.478  0.00  0.00    -0.390 OA
ATOM    123  O5  IDS d 402      -8.200   9.484  45.481  0.00  0.00    -0.340 OA
ATOM    124  O4  IDS d 402      -9.013   7.858  47.778  0.00  0.00    -0.348 OA
ATOM    125  O61 IDS d 402     -10.966   9.473  45.701  0.00  0.00    -0.646 OA
ATOM    126  O1S IDS d 402      -4.958   5.503  46.600  0.00  0.00    -0.572 OA
ATOM    127  O2S IDS d 402      -6.376   5.554  44.699  0.00  0.00    -0.572 OA
ATOM    128  C3  IDS d 402      -6.890   8.907  47.964  0.00  0.00     0.094 C 
ATOM    129  C5  IDS d 402      -8.785   9.986  46.678  0.00  0.00     0.152 C 
ATOM    130  S   IDS d 402      -5.542   6.301  45.555  0.00  0.00     0.252 S 
ATOM    131  C4  IDS d 402      -8.399   9.107  47.891  0.00  0.00     0.103 C 
ATOM    132  C2  IDS d 402      -6.256   8.637  46.588  0.00  0.00     0.134 C 
ATOM    133  C6  IDS d 402     -10.299  10.206  46.462  0.00  0.00     0.206 C 
ATOM    134  O2  IDS d 402      -6.507   7.297  46.265  0.00  0.00    -0.244 OA
ATOM    135  H   IDS d 402      -6.458   9.173  44.522  0.00  0.00     0.133 H 
ATOM    136  H   IDS d 402      -5.359   9.979  48.533  0.00  0.00     0.210 HD
ATOM    137  H   IDS d 402      -6.704   8.055  48.583  0.00  0.00     0.091 H 
ATOM    138  H   IDS d 402      -8.389  10.950  46.921  0.00  0.00     0.104 H 
ATOM    139  H   IDS d 402      -8.727   9.605  48.779  0.00  0.00     0.092 H 
ATOM    140  H   IDS d 402      -5.211   8.854  46.662  0.00  0.00     0.097 H 
ENDROOT
TORSDOF 45
ENDMDL
MODEL 17
REMARK VINA RESULT:      -4.5      4.149     13.639
REMARK  0 active torsions:
REMARK  status: ('A' for Active; 'I' for Inactive)
REMARK       I    between atoms: C5_1  and  C6_64 
REMARK       I    between atoms: C4_2  and  O4_32 
REMARK       I    between atoms: C1_3  and  O4_32 
REMARK       I    between atoms: S1_6  and  N_87 
REMARK       I    between atoms: S1_6  and  O1S_23 
REMARK       I    between atoms: S1_6  and  O2S_31 
REMARK       I    between atoms: S1_6  and  O3S_47 
REMARK       I    between atoms: N_7  and  C2_53 
REMARK       I    between atoms: N_7  and  S1_10 
REMARK       I    between atoms: C3_9  and  O3_14 
REMARK       I    between atoms: S1_10  and  O1S_52 
REMARK       I    between atoms: S1_10  and  O2S_17 
REMARK       I    between atoms: S1_10  and  O3S_80 
REMARK       I    between atoms: C5_12  and  C6_73 
REMARK       I    between atoms: S1_13  and  N_25 
REMARK       I    between atoms: S1_13  and  O1S_58 
REMARK       I    between atoms: S1_13  and  O2S_66 
REMARK       I    between atoms: S1_13  and  O3S_62 
REMARK       I    between atoms: S2_15  and  O6_41 
REMARK       I    between atoms: C3_16  and  O3_48 
REMARK       I    between atoms: C2_18  and  N_87 
REMARK       I    between atoms: C1_19  and  O4_39 
REMARK       I    between atoms: C3_20  and  O3_27 
REMARK       I    between atoms: C1_24  and  O1_84 
REMARK       I    between atoms: N_25  and  C2_78 
REMARK       I    between atoms: O4_28  and  C4_30 
REMARK       I    between atoms: O4_28  and  C1_86 
REMARK       I    between atoms: C2_34  and  O2_59 
REMARK       I    between atoms: O3_35  and  C3_60 
REMARK       I    between atoms: C5_37  and  C6_81 
REMARK       I    between atoms: O4_39  and  C4_79 
REMARK       I    between atoms: O4_40  and  C4_77 
REMARK       I    between atoms: O4_40  and  C1_61 
REMARK       I    between atoms: O6_41  and  C6_57 
REMARK       I    between atoms: O6_45  and  C6_81 
REMARK       I    between atoms: O6_45  and  S2_83 
REMARK       I    between atoms: C3_46  and  O3_72 
REMARK       I    between atoms: C5_50  and  C6_57 
REMARK       I    between atoms: O2_59  and  S_69 
REMARK       I    between atoms: O6_63  and  C6_64 
REMARK       I    between atoms: O6_63  and  S2_70 
REMARK       I    between atoms: C5_67  and  C6_88 
REMARK       I    between atoms: S_71  and  O2_89 
REMARK       I    between atoms: O4_75  and  C4_82 
REMARK       I    between atoms: C2_85  and  O2_89 
ROOT
ATOM      1  C5  SGN d 401     -11.860  12.256  47.707  0.00  0.00     0.091 C 
ATOM      2  S1  SGN d 401      -6.476  13.645  48.640  0.00  0.00     0.156 S 
ATOM      3  C3  SGN d 401      -9.539  11.987  46.751  0.00  0.00     0.083 C 
ATOM      4  C2  SGN d 401      -9.048  12.873  47.915  0.00  0.00     0.081 C 
ATOM      5  O1S SGN d 401      -6.962  13.231  49.942  0.00  0.00    -0.296 OA
ATOM      6  C1  SGN d 401     -10.186  13.844  48.271  0.00  0.00     0.147 C 
ATOM      7  O2S SGN d 401      -5.500  12.726  48.119  0.00  0.00    -0.296 OA
ATOM      8  O4  SGN d 401     -11.337  10.597  46.027  0.00  0.00    -0.348 OA
ATOM      9  O4S SGN d 401     -13.818   8.874  49.398  0.00  0.00    -0.572 OA
ATOM     10  O3S SGN d 401      -6.004  15.014  48.644  0.00  0.00    -0.296 OA
ATOM     11  O3  SGN d 401      -8.556  11.018  46.437  0.00  0.00    -0.391 OA
ATOM     12  O5  SGN d 401     -11.315  13.137  48.689  0.00  0.00    -0.350 OA
ATOM     13  O6S SGN d 401     -13.921  10.395  51.266  0.00  0.00    -0.572 OA
ATOM     14  O6  SGN d 401     -12.429  10.818  49.445  0.00  0.00    -0.254 OA
ATOM     15  C6  SGN d 401     -13.017  11.566  48.415  0.00  0.00     0.067 C 
ATOM     16  S2  SGN d 401     -13.085   9.707  50.296  0.00  0.00     0.251 S 
ATOM     17  O5S SGN d 401     -11.975   9.009  50.888  0.00  0.00    -0.572 OA
ATOM     18  C4  SGN d 401     -10.811  11.240  47.162  0.00  0.00     0.095 C 
ATOM     19  O1  SGN d 401     -10.536  14.659  47.140  0.00  0.00    -0.369 OA
ATOM     20  N   SGN d 401      -7.787  13.621  47.576  0.00  0.00    -0.210 NA
ATOM     21  H   SGN d 401     -12.179  12.787  46.835  0.00  0.00     0.090 H 
ATOM     22  H   SGN d 401      -9.730  12.617  45.907  0.00  0.00     0.089 H 
ATOM     23  H   SGN d 401      -8.802  12.254  48.752  0.00  0.00     0.076 H 
ATOM     24  H   SGN d 401      -7.267  12.311  49.896  0.00  0.00     0.231 HD
ATOM     25  H   SGN d 401      -9.842  14.474  49.065  0.00  0.00     0.131 H 
ATOM     26  H   SGN d 401      -5.862  11.827  48.136  0.00  0.00     0.231 HD
ATOM     27  H   SGN d 401      -6.695  15.593  49.003  0.00  0.00     0.231 HD
ATOM     28  H   SGN d 401      -8.396  10.456  47.212  0.00  0.00     0.210 HD
ATOM     29  H   SGN d 401     -13.541  10.923  47.738  0.00  0.00     0.080 H 
ATOM     30  H   SGN d 401     -13.731  12.269  48.790  0.00  0.00     0.080 H 
ATOM     31  H   SGN d 401     -10.584  10.524  47.923  0.00  0.00     0.091 H 
ATOM     32  H   SGN d 401     -10.849  14.093  46.418  0.00  0.00     0.212 HD
ATOM     33  H   SGN d 401      -7.442  13.227  46.700  0.00  0.00     0.140 HD
ATOM     34  C4  IDS d 404      -9.555  -0.306  48.155  0.00  0.00     0.103 C 
ATOM     35  C5  IDS d 404     -10.126  -0.039  46.766  0.00  0.00     0.152 C 
ATOM     36  O4  IDS d 404      -8.837  -1.507  48.094  0.00  0.00    -0.348 OA
ATOM     37  O5  IDS d 404      -9.125   0.324  45.842  0.00  0.00    -0.340 OA
ATOM     38  C2  IDS d 404      -7.763   1.470  47.563  0.00  0.00     0.134 C 
ATOM     39  O62 IDS d 404     -12.100  -1.280  46.264  0.00  0.00    -0.646 OA
ATOM     40  C3  IDS d 404      -8.631   0.835  48.661  0.00  0.00     0.094 C 
ATOM     41  O2  IDS d 404      -6.532   0.740  47.477  0.00  0.00    -0.244 OA
ATOM     42  O1S IDS d 404      -4.652   2.034  48.067  0.00  0.00    -0.572 OA
ATOM     43  O2S IDS d 404      -4.376   0.202  46.571  0.00  0.00    -0.572 OA
ATOM     44  S   IDS d 404      -5.173   1.316  46.975  0.00  0.00     0.252 S 
ATOM     45  O3  IDS d 404      -9.437   1.858  49.196  0.00  0.00    -0.390 OA
ATOM     46  C6  IDS d 404     -10.882  -1.239  46.243  0.00  0.00     0.206 C 
ATOM     47  O3S IDS d 404      -5.476   2.206  45.916  0.00  0.00    -0.572 OA
ATOM     48  C1  IDS d 404      -8.438   1.538  46.164  0.00  0.00     0.161 C 
ATOM     49  O61 IDS d 404     -10.267  -2.207  45.818  0.00  0.00    -0.646 OA
ATOM     50  H   IDS d 404     -10.365  -0.366  48.851  0.00  0.00     0.092 H 
ATOM     51  H   IDS d 404     -10.803   0.784  46.872  0.00  0.00     0.104 H 
ATOM     52  H   IDS d 404      -7.600   2.488  47.847  0.00  0.00     0.097 H 
ATOM     53  H   IDS d 404      -7.975   0.395  49.381  0.00  0.00     0.091 H 
ATOM     54  H   IDS d 404     -10.008   2.219  48.500  0.00  0.00     0.210 HD
ATOM     55  H   IDS d 404      -7.677   1.650  45.421  0.00  0.00     0.133 H 
ATOM     56  C1  SGN d 405      -9.163  -2.447  49.075  0.00  0.00     0.150 C 
ATOM     57  O6S SGN d 405     -12.125  -4.582  50.784  0.00  0.00    -0.572 OA
ATOM     58  N   SGN d 405      -6.728  -2.666  49.185  0.00  0.00    -0.210 NA
ATOM     59  S1  SGN d 405      -5.911  -2.430  50.551  0.00  0.00     0.156 S 
ATOM     60  S2  SGN d 405     -12.888  -5.560  50.015  0.00  0.00     0.251 S 
ATOM     61  O2S SGN d 405      -6.124  -3.617  51.344  0.00  0.00    -0.296 OA
ATOM     62  C3  SGN d 405      -8.001  -4.534  48.223  0.00  0.00     0.083 C 
ATOM     63  O5  SGN d 405     -10.424  -3.117  48.849  0.00  0.00    -0.349 OA
ATOM     64  O3  SGN d 405      -6.983  -5.468  48.533  0.00  0.00    -0.391 OA
ATOM     65  O6  SGN d 405     -12.145  -5.740  48.611  0.00  0.00    -0.254 OA
ATOM     66  O5S SGN d 405     -12.911  -6.869  50.621  0.00  0.00    -0.572 OA
ATOM     67  C5  SGN d 405     -10.393  -4.188  47.864  0.00  0.00     0.090 C 
ATOM     68  O4S SGN d 405     -14.198  -5.096  49.724  0.00  0.00    -0.572 OA
ATOM     69  O1S SGN d 405      -6.482  -1.251  51.149  0.00  0.00    -0.296 OA
ATOM     70  C2  SGN d 405      -7.981  -3.412  49.257  0.00  0.00     0.081 C 
ATOM     71  C6  SGN d 405     -11.830  -4.736  47.654  0.00  0.00     0.067 C 
ATOM     72  O4  SGN d 405      -9.388  -6.354  47.433  0.00  0.00    -0.390 OA
ATOM     73  O3S SGN d 405      -4.542  -2.214  50.218  0.00  0.00    -0.296 OA
ATOM     74  C4  SGN d 405      -9.372  -5.229  48.308  0.00  0.00     0.089 C 
ATOM     75  H   SGN d 405      -9.326  -1.927  49.996  0.00  0.00     0.131 H 
ATOM     76  H   SGN d 405      -6.943  -1.747  48.797  0.00  0.00     0.140 HD
ATOM     77  H   SGN d 405      -7.070  -3.710  51.539  0.00  0.00     0.231 HD
ATOM     78  H   SGN d 405      -7.837  -4.146  47.240  0.00  0.00     0.089 H 
ATOM     79  H   SGN d 405      -7.129  -5.821  49.424  0.00  0.00     0.210 HD
ATOM     80  H   SGN d 405     -10.073  -3.841  46.904  0.00  0.00     0.090 H 
ATOM     81  H   SGN d 405      -7.412  -1.418  51.369  0.00  0.00     0.231 HD
ATOM     82  H   SGN d 405      -8.067  -3.870  50.219  0.00  0.00     0.076 H 
ATOM     83  H   SGN d 405     -12.529  -3.932  47.750  0.00  0.00     0.080 H 
ATOM     84  H   SGN d 405     -11.887  -5.170  46.678  0.00  0.00     0.080 H 
ATOM     85  H   SGN d 405      -8.733  -7.005  47.731  0.00  0.00     0.210 HD
ATOM     86  H   SGN d 405      -4.462  -1.406  49.687  0.00  0.00     0.231 HD
ATOM     87  H   SGN d 405      -9.588  -5.583  49.294  0.00  0.00     0.091 H 
ATOM     88  O5S SGN d 403      -5.963   3.170  40.916  0.00  0.00    -0.572 OA
ATOM     89  C3  SGN d 403     -11.123   3.495  44.905  0.00  0.00     0.083 C 
ATOM     90  O5  SGN d 403      -9.337   5.089  43.394  0.00  0.00    -0.349 OA
ATOM     91  S1  SGN d 403     -13.734   4.134  42.195  0.00  0.00     0.156 S 
ATOM     92  O3  SGN d 403     -11.852   2.319  45.089  0.00  0.00    -0.391 OA
ATOM     93  O4S SGN d 403      -6.666   1.434  42.466  0.00  0.00    -0.572 OA
ATOM     94  N   SGN d 403     -12.935   4.478  43.554  0.00  0.00    -0.210 NA
ATOM     95  O4  SGN d 403      -9.286   2.657  46.107  0.00  0.00    -0.348 OA
ATOM     96  O6S SGN d 403      -4.873   2.901  42.997  0.00  0.00    -0.572 OA
ATOM     97  C4  SGN d 403      -9.648   3.135  44.844  0.00  0.00     0.095 C 
ATOM     98  C5  SGN d 403      -8.840   4.418  44.533  0.00  0.00     0.091 C 
ATOM     99  O6  SGN d 403      -7.189   3.743  42.887  0.00  0.00    -0.254 OA
ATOM    100  O1S SGN d 403     -12.798   4.282  41.110  0.00  0.00    -0.296 OA
ATOM    101  C1  SGN d 403     -10.722   5.405  43.412  0.00  0.00     0.150 C 
ATOM    102  O3S SGN d 403     -14.779   5.095  42.095  0.00  0.00    -0.296 OA
ATOM    103  O2S SGN d 403     -14.189   2.766  42.358  0.00  0.00    -0.296 OA
ATOM    104  C2  SGN d 403     -11.526   4.146  43.603  0.00  0.00     0.081 C 
ATOM    105  C6  SGN d 403      -7.341   4.186  44.230  0.00  0.00     0.067 C 
ATOM    106  S2  SGN d 403      -6.095   2.761  42.288  0.00  0.00     0.251 S 
ATOM    107  H   SGN d 403     -11.313   4.173  45.710  0.00  0.00     0.089 H 
ATOM    108  H   SGN d 403     -11.674   1.710  44.356  0.00  0.00     0.210 HD
ATOM    109  H   SGN d 403     -13.394   3.976  44.314  0.00  0.00     0.140 HD
ATOM    110  H   SGN d 403      -9.455   2.400  44.090  0.00  0.00     0.091 H 
ATOM    111  H   SGN d 403      -8.947   4.984  45.434  0.00  0.00     0.090 H 
ATOM    112  H   SGN d 403     -12.095   3.620  41.196  0.00  0.00     0.231 HD
ATOM    113  H   SGN d 403     -10.943   5.861  42.470  0.00  0.00     0.131 H 
ATOM    114  H   SGN d 403     -14.396   5.980  41.988  0.00  0.00     0.231 HD
ATOM    115  H   SGN d 403     -13.422   2.176  42.418  0.00  0.00     0.231 HD
ATOM    116  H   SGN d 403     -11.334   3.440  42.823  0.00  0.00     0.076 H 
ATOM    117  H   SGN d 403      -6.953   3.444  44.895  0.00  0.00     0.080 H 
ATOM    118  H   SGN d 403      -6.805   5.102  44.364  0.00  0.00     0.080 H 
ATOM    119  O62 IDS d 402      -7.671   7.529  45.652  0.00  0.00    -0.646 OA
ATOM    120  C1  IDS d 402     -11.919   9.329  46.225  0.00  0.00     0.161 C 
ATOM    121  O3S IDS d 402     -15.284   9.137  46.241  0.00  0.00    -0.572 OA
ATOM    122  O3  IDS d 402     -11.309   9.677  43.214  0.00  0.00    -0.390 OA
ATOM    123  O5  IDS d 402     -10.960   8.347  46.526  0.00  0.00    -0.340 OA
ATOM    124  O4  IDS d 402     -11.070   6.330  44.404  0.00  0.00    -0.348 OA
ATOM    125  O61 IDS d 402      -8.979   6.445  46.924  0.00  0.00    -0.646 OA
ATOM    126  O1S IDS d 402     -15.759   7.499  44.561  0.00  0.00    -0.572 OA
ATOM    127  O2S IDS d 402     -15.082   6.815  46.729  0.00  0.00    -0.572 OA
ATOM    128  C3  IDS d 402     -11.811   8.503  43.794  0.00  0.00     0.094 C 
ATOM    129  C5  IDS d 402      -9.980   8.169  45.510  0.00  0.00     0.152 C 
ATOM    130  S   IDS d 402     -14.998   7.815  45.739  0.00  0.00     0.252 S 
ATOM    131  C4  IDS d 402     -10.625   7.639  44.208  0.00  0.00     0.103 C 
ATOM    132  C2  IDS d 402     -12.701   8.904  44.983  0.00  0.00     0.134 C 
ATOM    133  C6  IDS d 402      -8.803   7.334  46.064  0.00  0.00     0.206 C 
ATOM    134  O2  IDS d 402     -13.502   7.801  45.301  0.00  0.00    -0.244 OA
ATOM    135  H   IDS d 402     -12.580   9.415  47.062  0.00  0.00     0.133 H 
ATOM    136  H   IDS d 402     -12.048  10.245  42.942  0.00  0.00     0.210 HD
ATOM    137  H   IDS d 402     -12.410   7.931  43.116  0.00  0.00     0.091 H 
ATOM    138  H   IDS d 402      -9.553   9.107  45.223  0.00  0.00     0.104 H 
ATOM    139  H   IDS d 402      -9.887   7.670  43.434  0.00  0.00     0.092 H 
ATOM    140  H   IDS d 402     -13.274   9.759  44.688  0.00  0.00     0.097 H 
ENDROOT
TORSDOF 45
ENDMDL
MODEL 18
REMARK VINA RESULT:      -4.4      2.554      3.362
REMARK  0 active torsions:
REMARK  status: ('A' for Active; 'I' for Inactive)
REMARK       I    between atoms: C5_1  and  C6_64 
REMARK       I    between atoms: C4_2  and  O4_32 
REMARK       I    between atoms: C1_3  and  O4_32 
REMARK       I    between atoms: S1_6  and  N_87 
REMARK       I    between atoms: S1_6  and  O1S_23 
REMARK       I    between atoms: S1_6  and  O2S_31 
REMARK       I    between atoms: S1_6  and  O3S_47 
REMARK       I    between atoms: N_7  and  C2_53 
REMARK       I    between atoms: N_7  and  S1_10 
REMARK       I    between atoms: C3_9  and  O3_14 
REMARK       I    between atoms: S1_10  and  O1S_52 
REMARK       I    between atoms: S1_10  and  O2S_17 
REMARK       I    between atoms: S1_10  and  O3S_80 
REMARK       I    between atoms: C5_12  and  C6_73 
REMARK       I    between atoms: S1_13  and  N_25 
REMARK       I    between atoms: S1_13  and  O1S_58 
REMARK       I    between atoms: S1_13  and  O2S_66 
REMARK       I    between atoms: S1_13  and  O3S_62 
REMARK       I    between atoms: S2_15  and  O6_41 
REMARK       I    between atoms: C3_16  and  O3_48 
REMARK       I    between atoms: C2_18  and  N_87 
REMARK       I    between atoms: C1_19  and  O4_39 
REMARK       I    between atoms: C3_20  and  O3_27 
REMARK       I    between atoms: C1_24  and  O1_84 
REMARK       I    between atoms: N_25  and  C2_78 
REMARK       I    between atoms: O4_28  and  C4_30 
REMARK       I    between atoms: O4_28  and  C1_86 
REMARK       I    between atoms: C2_34  and  O2_59 
REMARK       I    between atoms: O3_35  and  C3_60 
REMARK       I    between atoms: C5_37  and  C6_81 
REMARK       I    between atoms: O4_39  and  C4_79 
REMARK       I    between atoms: O4_40  and  C4_77 
REMARK       I    between atoms: O4_40  and  C1_61 
REMARK       I    between atoms: O6_41  and  C6_57 
REMARK       I    between atoms: O6_45  and  C6_81 
REMARK       I    between atoms: O6_45  and  S2_83 
REMARK       I    between atoms: C3_46  and  O3_72 
REMARK       I    between atoms: C5_50  and  C6_57 
REMARK       I    between atoms: O2_59  and  S_69 
REMARK       I    between atoms: O6_63  and  C6_64 
REMARK       I    between atoms: O6_63  and  S2_70 
REMARK       I    between atoms: C5_67  and  C6_88 
REMARK       I    between atoms: S_71  and  O2_89 
REMARK       I    between atoms: O4_75  and  C4_82 
REMARK       I    between atoms: C2_85  and  O2_89 
ROOT
ATOM      1  C5  SGN d 401     -14.157  -2.417  44.131  0.00  0.00     0.091 C 
ATOM      2  S1  SGN d 401     -13.379  -3.832  49.533  0.00  0.00     0.156 S 
ATOM      3  C3  SGN d 401     -14.750  -1.709  46.481  0.00  0.00     0.083 C 
ATOM      4  C2  SGN d 401     -13.968  -2.950  46.961  0.00  0.00     0.081 C 
ATOM      5  O1S SGN d 401     -12.061  -3.963  48.942  0.00  0.00    -0.296 OA
ATOM      6  C1  SGN d 401     -14.096  -4.029  45.874  0.00  0.00     0.147 C 
ATOM      7  O2S SGN d 401     -13.436  -2.744  50.472  0.00  0.00    -0.296 OA
ATOM      8  O4  SGN d 401     -15.044  -0.224  44.637  0.00  0.00    -0.348 OA
ATOM      9  O4S SGN d 401     -11.487  -0.014  41.846  0.00  0.00    -0.572 OA
ATOM     10  O3S SGN d 401     -13.850  -5.079  50.097  0.00  0.00    -0.296 OA
ATOM     11  O3  SGN d 401     -14.597  -0.653  47.411  0.00  0.00    -0.391 OA
ATOM     12  O5  SGN d 401     -13.537  -3.581  44.676  0.00  0.00    -0.350 OA
ATOM     13  O6S SGN d 401     -10.341  -2.132  41.738  0.00  0.00    -0.572 OA
ATOM     14  O6  SGN d 401     -12.059  -1.770  43.361  0.00  0.00    -0.254 OA
ATOM     15  C6  SGN d 401     -13.339  -2.095  42.889  0.00  0.00     0.067 C 
ATOM     16  S2  SGN d 401     -10.910  -1.094  42.580  0.00  0.00     0.251 S 
ATOM     17  O5S SGN d 401     -10.011  -0.627  43.601  0.00  0.00    -0.572 OA
ATOM     18  C4  SGN d 401     -14.194  -1.227  45.138  0.00  0.00     0.095 C 
ATOM     19  O1  SGN d 401     -15.475  -4.368  45.650  0.00  0.00    -0.369 OA
ATOM     20  N   SGN d 401     -14.459  -3.460  48.290  0.00  0.00    -0.210 NA
ATOM     21  H   SGN d 401     -15.188  -2.590  43.902  0.00  0.00     0.090 H 
ATOM     22  H   SGN d 401     -15.782  -1.980  46.384  0.00  0.00     0.089 H 
ATOM     23  H   SGN d 401     -12.943  -2.684  47.114  0.00  0.00     0.076 H 
ATOM     24  H   SGN d 401     -11.783  -3.108  48.577  0.00  0.00     0.231 HD
ATOM     25  H   SGN d 401     -13.572  -4.899  46.213  0.00  0.00     0.131 H 
ATOM     26  H   SGN d 401     -13.111  -1.934  50.049  0.00  0.00     0.231 HD
ATOM     27  H   SGN d 401     -13.792  -5.779  49.428  0.00  0.00     0.231 HD
ATOM     28  H   SGN d 401     -13.657  -0.422  47.485  0.00  0.00     0.210 HD
ATOM     29  H   SGN d 401     -13.766  -1.266  42.363  0.00  0.00     0.080 H 
ATOM     30  H   SGN d 401     -13.314  -2.917  42.203  0.00  0.00     0.080 H 
ATOM     31  H   SGN d 401     -13.204  -0.845  45.269  0.00  0.00     0.091 H 
ATOM     32  H   SGN d 401     -15.955  -3.583  45.342  0.00  0.00     0.212 HD
ATOM     33  H   SGN d 401     -15.092  -2.749  48.657  0.00  0.00     0.140 HD
ATOM     34  C4  IDS d 404      -8.841   9.120  45.530  0.00  0.00     0.103 C 
ATOM     35  C5  IDS d 404     -10.271   9.376  45.062  0.00  0.00     0.152 C 
ATOM     36  O4  IDS d 404      -8.389  10.284  46.165  0.00  0.00    -0.348 OA
ATOM     37  O5  IDS d 404     -11.179   9.434  46.140  0.00  0.00    -0.340 OA
ATOM     38  C2  IDS d 404      -9.909   7.777  47.473  0.00  0.00     0.134 C 
ATOM     39  O62 IDS d 404     -10.429  10.632  43.041  0.00  0.00    -0.646 OA
ATOM     40  C3  IDS d 404      -8.728   7.911  46.499  0.00  0.00     0.094 C 
ATOM     41  O2  IDS d 404      -9.614   8.536  48.653  0.00  0.00    -0.244 OA
ATOM     42  O1S IDS d 404      -9.401   7.194  50.580  0.00  0.00    -0.572 OA
ATOM     43  O2S IDS d 404     -10.073   9.466  50.817  0.00  0.00    -0.572 OA
ATOM     44  S   IDS d 404     -10.183   8.250  50.076  0.00  0.00     0.252 S 
ATOM     45  O3  IDS d 404      -8.683   6.729  45.735  0.00  0.00    -0.390 OA
ATOM     46  C6  IDS d 404     -10.365  10.653  44.258  0.00  0.00     0.206 C 
ATOM     47  O3S IDS d 404     -11.519   7.817  49.900  0.00  0.00    -0.572 OA
ATOM     48  C1  IDS d 404     -11.281   8.217  46.889  0.00  0.00     0.161 C 
ATOM     49  O61 IDS d 404     -10.344  11.734  44.829  0.00  0.00    -0.646 OA
ATOM     50  H   IDS d 404      -8.243   8.877  44.677  0.00  0.00     0.092 H 
ATOM     51  H   IDS d 404     -10.537   8.548  44.440  0.00  0.00     0.104 H 
ATOM     52  H   IDS d 404     -10.016   6.735  47.689  0.00  0.00     0.097 H 
ATOM     53  H   IDS d 404      -7.844   8.073  47.079  0.00  0.00     0.091 H 
ATOM     54  H   IDS d 404      -9.508   6.637  45.233  0.00  0.00     0.210 HD
ATOM     55  H   IDS d 404     -11.947   8.427  47.699  0.00  0.00     0.133 H 
ATOM     56  C1  SGN d 405      -7.157  10.767  45.717  0.00  0.00     0.150 C 
ATOM     57  O6S SGN d 405      -5.019  11.968  42.518  0.00  0.00    -0.572 OA
ATOM     58  N   SGN d 405      -6.774  11.028  48.121  0.00  0.00    -0.210 NA
ATOM     59  S1  SGN d 405      -5.535  10.326  48.869  0.00  0.00     0.156 S 
ATOM     60  S2  SGN d 405      -5.424  13.133  41.736  0.00  0.00     0.251 S 
ATOM     61  O2S SGN d 405      -4.375  11.113  48.527  0.00  0.00    -0.296 OA
ATOM     62  C3  SGN d 405      -7.065  13.067  46.781  0.00  0.00     0.083 C 
ATOM     63  O5  SGN d 405      -7.217  11.420  44.428  0.00  0.00    -0.349 OA
ATOM     64  O3  SGN d 405      -6.346  13.854  47.711  0.00  0.00    -0.391 OA
ATOM     65  O6  SGN d 405      -6.592  13.863  42.547  0.00  0.00    -0.254 OA
ATOM     66  O5S SGN d 405      -4.375  14.112  41.586  0.00  0.00    -0.572 OA
ATOM     67  C5  SGN d 405      -7.721  12.784  44.444  0.00  0.00     0.090 C 
ATOM     68  O4S SGN d 405      -5.973  12.760  40.481  0.00  0.00    -0.572 OA
ATOM     69  O1S SGN d 405      -5.472   8.985  48.346  0.00  0.00    -0.296 OA
ATOM     70  C2  SGN d 405      -6.531  11.638  46.817  0.00  0.00     0.081 C 
ATOM     71  C6  SGN d 405      -7.827  13.311  42.988  0.00  0.00     0.067 C 
ATOM     72  O4  SGN d 405      -7.225  14.991  45.321  0.00  0.00    -0.390 OA
ATOM     73  O3S SGN d 405      -5.813  10.309  50.267  0.00  0.00    -0.296 OA
ATOM     74  C4  SGN d 405      -6.838  13.620  45.362  0.00  0.00     0.089 C 
ATOM     75  H   SGN d 405      -6.515   9.930  45.536  0.00  0.00     0.131 H 
ATOM     76  H   SGN d 405      -7.495  10.317  47.993  0.00  0.00     0.140 HD
ATOM     77  H   SGN d 405      -4.237  11.086  47.567  0.00  0.00     0.231 HD
ATOM     78  H   SGN d 405      -8.106  13.088  47.030  0.00  0.00     0.089 H 
ATOM     79  H   SGN d 405      -5.402  13.837  47.488  0.00  0.00     0.210 HD
ATOM     80  H   SGN d 405      -8.712  12.841  44.844  0.00  0.00     0.090 H 
ATOM     81  H   SGN d 405      -5.282   9.018  47.395  0.00  0.00     0.231 HD
ATOM     82  H   SGN d 405      -5.477  11.693  46.641  0.00  0.00     0.076 H 
ATOM     83  H   SGN d 405      -8.097  12.502  42.342  0.00  0.00     0.080 H 
ATOM     84  H   SGN d 405      -8.570  14.080  42.960  0.00  0.00     0.080 H 
ATOM     85  H   SGN d 405      -6.652  15.506  45.910  0.00  0.00     0.210 HD
ATOM     86  H   SGN d 405      -6.599   9.766  50.434  0.00  0.00     0.231 HD
ATOM     87  H   SGN d 405      -5.812  13.565  45.064  0.00  0.00     0.091 H 
ATOM     88  O5S SGN d 403     -16.537   8.802  49.780  0.00  0.00    -0.572 OA
ATOM     89  C3  SGN d 403     -13.397   6.775  44.426  0.00  0.00     0.083 C 
ATOM     90  O5  SGN d 403     -15.244   5.948  46.405  0.00  0.00    -0.349 OA
ATOM     91  S1  SGN d 403     -16.351   7.104  42.032  0.00  0.00     0.156 S 
ATOM     92  O3  SGN d 403     -12.844   7.761  43.608  0.00  0.00    -0.391 OA
ATOM     93  O4S SGN d 403     -14.512   9.790  48.867  0.00  0.00    -0.572 OA
ATOM     94  N   SGN d 403     -15.161   6.303  42.771  0.00  0.00    -0.210 NA
ATOM     95  O4  SGN d 403     -11.823   7.170  46.126  0.00  0.00    -0.348 OA
ATOM     96  O6S SGN d 403     -14.426   8.307  50.723  0.00  0.00    -0.572 OA
ATOM     97  C4  SGN d 403     -13.198   7.192  45.874  0.00  0.00     0.095 C 
ATOM     98  C5  SGN d 403     -13.900   6.158  46.785  0.00  0.00     0.091 C 
ATOM     99  O6  SGN d 403     -15.032   7.475  48.481  0.00  0.00    -0.254 OA
ATOM    100  O1S SGN d 403     -17.333   7.417  43.039  0.00  0.00    -0.296 OA
ATOM    101  C1  SGN d 403     -15.459   5.592  45.046  0.00  0.00     0.150 C 
ATOM    102  O3S SGN d 403     -16.890   6.210  41.064  0.00  0.00    -0.296 OA
ATOM    103  O2S SGN d 403     -15.725   8.287  41.475  0.00  0.00    -0.296 OA
ATOM    104  C2  SGN d 403     -14.876   6.650  44.148  0.00  0.00     0.081 C 
ATOM    105  C6  SGN d 403     -13.971   6.549  48.280  0.00  0.00     0.067 C 
ATOM    106  S2  SGN d 403     -15.128   8.654  49.538  0.00  0.00     0.251 S 
ATOM    107  H   SGN d 403     -12.924   5.834  44.235  0.00  0.00     0.089 H 
ATOM    108  H   SGN d 403     -13.279   8.610  43.786  0.00  0.00     0.210 HD
ATOM    109  H   SGN d 403     -14.308   6.460  42.233  0.00  0.00     0.140 HD
ATOM    110  H   SGN d 403     -13.602   8.165  46.060  0.00  0.00     0.091 H 
ATOM    111  H   SGN d 403     -13.289   5.288  46.664  0.00  0.00     0.090 H 
ATOM    112  H   SGN d 403     -16.947   8.026  43.688  0.00  0.00     0.231 HD
ATOM    113  H   SGN d 403     -16.519   5.519  44.914  0.00  0.00     0.131 H 
ATOM    114  H   SGN d 403     -17.289   5.449  41.513  0.00  0.00     0.231 HD
ATOM    115  H   SGN d 403     -15.385   8.842  42.194  0.00  0.00     0.231 HD
ATOM    116  H   SGN d 403     -15.316   7.606  44.336  0.00  0.00     0.076 H 
ATOM    117  H   SGN d 403     -13.047   6.998  48.575  0.00  0.00     0.080 H 
ATOM    118  H   SGN d 403     -14.147   5.673  48.869  0.00  0.00     0.080 H 
ATOM    119  O62 IDS d 402     -13.940   2.906  48.098  0.00  0.00    -0.646 OA
ATOM    120  C1  IDS d 402     -14.432   0.849  43.958  0.00  0.00     0.161 C 
ATOM    121  O3S IDS d 402     -14.620   0.880  40.593  0.00  0.00    -0.572 OA
ATOM    122  O3  IDS d 402     -17.294   1.694  44.769  0.00  0.00    -0.390 OA
ATOM    123  O5  IDS d 402     -13.708   1.682  44.827  0.00  0.00    -0.340 OA
ATOM    124  O4  IDS d 402     -14.919   4.346  44.704  0.00  0.00    -0.348 OA
ATOM    125  O61 IDS d 402     -12.465   3.371  46.644  0.00  0.00    -0.646 OA
ATOM    126  O1S IDS d 402     -15.595   3.012  40.107  0.00  0.00    -0.572 OA
ATOM    127  O2S IDS d 402     -13.281   2.850  40.604  0.00  0.00    -0.572 OA
ATOM    128  C3  IDS d 402     -16.358   2.539  44.154  0.00  0.00     0.094 C 
ATOM    129  C5  IDS d 402     -14.499   2.273  45.851  0.00  0.00     0.152 C 
ATOM    130  S   IDS d 402     -14.563   2.304  40.817  0.00  0.00     0.252 S 
ATOM    131  C4  IDS d 402     -15.555   3.229  45.250  0.00  0.00     0.103 C 
ATOM    132  C2  IDS d 402     -15.483   1.679  43.225  0.00  0.00     0.134 C 
ATOM    133  C6  IDS d 402     -13.579   2.883  46.932  0.00  0.00     0.206 C 
ATOM    134  O2  IDS d 402     -14.840   2.546  42.331  0.00  0.00    -0.244 OA
ATOM    135  H   IDS d 402     -13.745   0.423  43.256  0.00  0.00     0.133 H 
ATOM    136  H   IDS d 402     -17.818   1.242  44.089  0.00  0.00     0.210 HD
ATOM    137  H   IDS d 402     -16.818   3.299  43.558  0.00  0.00     0.091 H 
ATOM    138  H   IDS d 402     -15.082   1.532  46.359  0.00  0.00     0.104 H 
ATOM    139  H   IDS d 402     -16.221   3.525  46.034  0.00  0.00     0.092 H 
ATOM    140  H   IDS d 402     -16.123   0.978  42.731  0.00  0.00     0.097 H 
ENDROOT
TORSDOF 45
ENDMDL
MODEL 19
REMARK VINA RESULT:      -4.2      3.353     13.533
REMARK  0 active torsions:
REMARK  status: ('A' for Active; 'I' for Inactive)
REMARK       I    between atoms: C5_1  and  C6_64 
REMARK       I    between atoms: C4_2  and  O4_32 
REMARK       I    between atoms: C1_3  and  O4_32 
REMARK       I    between atoms: S1_6  and  N_87 
REMARK       I    between atoms: S1_6  and  O1S_23 
REMARK       I    between atoms: S1_6  and  O2S_31 
REMARK       I    between atoms: S1_6  and  O3S_47 
REMARK       I    between atoms: N_7  and  C2_53 
REMARK       I    between atoms: N_7  and  S1_10 
REMARK       I    between atoms: C3_9  and  O3_14 
REMARK       I    between atoms: S1_10  and  O1S_52 
REMARK       I    between atoms: S1_10  and  O2S_17 
REMARK       I    between atoms: S1_10  and  O3S_80 
REMARK       I    between atoms: C5_12  and  C6_73 
REMARK       I    between atoms: S1_13  and  N_25 
REMARK       I    between atoms: S1_13  and  O1S_58 
REMARK       I    between atoms: S1_13  and  O2S_66 
REMARK       I    between atoms: S1_13  and  O3S_62 
REMARK       I    between atoms: S2_15  and  O6_41 
REMARK       I    between atoms: C3_16  and  O3_48 
REMARK       I    between atoms: C2_18  and  N_87 
REMARK       I    between atoms: C1_19  and  O4_39 
REMARK       I    between atoms: C3_20  and  O3_27 
REMARK       I    between atoms: C1_24  and  O1_84 
REMARK       I    between atoms: N_25  and  C2_78 
REMARK       I    between atoms: O4_28  and  C4_30 
REMARK       I    between atoms: O4_28  and  C1_86 
REMARK       I    between atoms: C2_34  and  O2_59 
REMARK       I    between atoms: O3_35  and  C3_60 
REMARK       I    between atoms: C5_37  and  C6_81 
REMARK       I    between atoms: O4_39  and  C4_79 
REMARK       I    between atoms: O4_40  and  C4_77 
REMARK       I    between atoms: O4_40  and  C1_61 
REMARK       I    between atoms: O6_41  and  C6_57 
REMARK       I    between atoms: O6_45  and  C6_81 
REMARK       I    between atoms: O6_45  and  S2_83 
REMARK       I    between atoms: C3_46  and  O3_72 
REMARK       I    between atoms: C5_50  and  C6_57 
REMARK       I    between atoms: O2_59  and  S_69 
REMARK       I    between atoms: O6_63  and  C6_64 
REMARK       I    between atoms: O6_63  and  S2_70 
REMARK       I    between atoms: C5_67  and  C6_88 
REMARK       I    between atoms: S_71  and  O2_89 
REMARK       I    between atoms: O4_75  and  C4_82 
REMARK       I    between atoms: C2_85  and  O2_89 
ROOT
ATOM      1  C5  SGN d 401      -7.788  14.602  44.477  0.00  0.00     0.091 C 
ATOM      2  S1  SGN d 401     -12.983  16.705  43.860  0.00  0.00     0.156 S 
ATOM      3  C3  SGN d 401     -10.058  14.659  45.581  0.00  0.00     0.083 C 
ATOM      4  C2  SGN d 401     -10.498  15.595  44.435  0.00  0.00     0.081 C 
ATOM      5  O1S SGN d 401     -12.641  16.218  42.536  0.00  0.00    -0.296 OA
ATOM      6  C1  SGN d 401      -9.264  16.399  43.993  0.00  0.00     0.147 C 
ATOM      7  O2S SGN d 401     -14.039  15.931  44.455  0.00  0.00    -0.296 OA
ATOM      8  O4  SGN d 401      -8.422  13.042  46.214  0.00  0.00    -0.348 OA
ATOM      9  O4S SGN d 401      -6.417  10.973  42.723  0.00  0.00    -0.572 OA
ATOM     10  O3S SGN d 401     -13.264  18.124  43.862  0.00  0.00    -0.296 OA
ATOM     11  O3  SGN d 401     -11.140  13.835  45.971  0.00  0.00    -0.391 OA
ATOM     12  O5  SGN d 401      -8.270  15.542  43.517  0.00  0.00    -0.350 OA
ATOM     13  O6S SGN d 401      -6.230  12.451  40.828  0.00  0.00    -0.572 OA
ATOM     14  O6  SGN d 401      -7.530  13.086  42.731  0.00  0.00    -0.254 OA
ATOM     15  C6  SGN d 401      -6.782  13.755  43.710  0.00  0.00     0.067 C 
ATOM     16  S2  SGN d 401      -7.087  11.890  41.858  0.00  0.00     0.251 S 
ATOM     17  O5S SGN d 401      -8.316  11.345  41.348  0.00  0.00    -0.572 OA
ATOM     18  C4  SGN d 401      -8.928  13.742  45.103  0.00  0.00     0.095 C 
ATOM     19  O1  SGN d 401      -8.735  17.167  45.087  0.00  0.00    -0.369 OA
ATOM     20  N   SGN d 401     -11.622  16.510  44.840  0.00  0.00    -0.210 NA
ATOM     21  H   SGN d 401      -7.344  15.091  45.319  0.00  0.00     0.090 H 
ATOM     22  H   SGN d 401      -9.729  15.263  46.401  0.00  0.00     0.089 H 
ATOM     23  H   SGN d 401     -10.878  15.008  43.626  0.00  0.00     0.076 H 
ATOM     24  H   SGN d 401     -12.461  15.266  42.578  0.00  0.00     0.231 HD
ATOM     25  H   SGN d 401      -9.569  17.064  43.212  0.00  0.00     0.131 H 
ATOM     26  H   SGN d 401     -13.804  14.990  44.430  0.00  0.00     0.231 HD
ATOM     27  H   SGN d 401     -12.525  18.601  43.452  0.00  0.00     0.231 HD
ATOM     28  H   SGN d 401     -11.424  13.295  45.217  0.00  0.00     0.210 HD
ATOM     29  H   SGN d 401      -6.308  13.053  44.364  0.00  0.00     0.080 H 
ATOM     30  H   SGN d 401      -6.005  14.352  43.279  0.00  0.00     0.080 H 
ATOM     31  H   SGN d 401      -9.298  13.058  44.369  0.00  0.00     0.091 H 
ATOM     32  H   SGN d 401      -8.456  16.569  45.797  0.00  0.00     0.212 HD
ATOM     33  H   SGN d 401     -11.959  16.173  45.742  0.00  0.00     0.140 HD
ATOM     34  C4  IDS d 404     -11.796   2.467  44.377  0.00  0.00     0.103 C 
ATOM     35  C5  IDS d 404     -11.106   2.665  45.723  0.00  0.00     0.152 C 
ATOM     36  O4  IDS d 404     -12.664   1.376  44.502  0.00  0.00    -0.348 OA
ATOM     37  O5  IDS d 404     -11.988   3.167  46.702  0.00  0.00    -0.340 OA
ATOM     38  C2  IDS d 404     -13.289   4.476  45.051  0.00  0.00     0.134 C 
ATOM     39  O62 IDS d 404      -9.291   1.170  46.121  0.00  0.00    -0.646 OA
ATOM     40  C3  IDS d 404     -12.587   3.721  43.911  0.00  0.00     0.094 C 
ATOM     41  O2  IDS d 404     -14.600   3.921  45.224  0.00  0.00    -0.244 OA
ATOM     42  O1S IDS d 404     -16.321   5.454  44.732  0.00  0.00    -0.572 OA
ATOM     43  O2S IDS d 404     -16.747   3.688  46.272  0.00  0.00    -0.572 OA
ATOM     44  S   IDS d 404     -15.833   4.680  45.801  0.00  0.00     0.252 S 
ATOM     45  O3  IDS d 404     -11.686   4.620  43.310  0.00  0.00    -0.390 OA
ATOM     46  C6  IDS d 404     -10.488   1.377  46.218  0.00  0.00     0.206 C 
ATOM     47  O3S IDS d 404     -15.346   5.529  46.825  0.00  0.00    -0.572 OA
ATOM     48  C1  IDS d 404     -12.524   4.462  46.403  0.00  0.00     0.161 C 
ATOM     49  O61 IDS d 404     -11.200   0.506  46.696  0.00  0.00    -0.646 OA
ATOM     50  H   IDS d 404     -11.047   2.293  43.633  0.00  0.00     0.092 H 
ATOM     51  H   IDS d 404     -10.333   3.387  45.562  0.00  0.00     0.104 H 
ATOM     52  H   IDS d 404     -13.331   5.505  44.761  0.00  0.00     0.097 H 
ATOM     53  H   IDS d 404     -13.342   3.368  43.241  0.00  0.00     0.091 H 
ATOM     54  H   IDS d 404     -11.028   4.904  43.964  0.00  0.00     0.210 HD
ATOM     55  H   IDS d 404     -13.214   4.682  47.190  0.00  0.00     0.133 H 
ATOM     56  C1  SGN d 405     -12.532   0.393  43.518  0.00  0.00     0.150 C 
ATOM     57  O6S SGN d 405     -10.002  -2.138  41.662  0.00  0.00    -0.572 OA
ATOM     58  N   SGN d 405     -14.977   0.507  43.563  0.00  0.00    -0.210 NA
ATOM     59  S1  SGN d 405     -15.840   0.841  42.247  0.00  0.00     0.156 S 
ATOM     60  S2  SGN d 405      -9.331  -3.205  42.398  0.00  0.00     0.251 S 
ATOM     61  O2S SGN d 405     -15.840  -0.369  41.462  0.00  0.00    -0.296 OA
ATOM     62  C3  SGN d 405     -13.909  -1.510  44.474  0.00  0.00     0.083 C 
ATOM     63  O5  SGN d 405     -11.361  -0.441  43.676  0.00  0.00    -0.349 OA
ATOM     64  O3  SGN d 405     -15.062  -2.298  44.243  0.00  0.00    -0.391 OA
ATOM     65  O6  SGN d 405     -10.000  -3.272  43.849  0.00  0.00    -0.254 OA
ATOM     66  O5S SGN d 405      -9.524  -4.510  41.813  0.00  0.00    -0.572 OA
ATOM     67  C5  SGN d 405     -11.474  -1.490  44.677  0.00  0.00     0.090 C 
ATOM     68  O4S SGN d 405      -7.954  -2.922  42.599  0.00  0.00    -0.572 OA
ATOM     69  O1S SGN d 405     -15.154   1.928  41.596  0.00  0.00    -0.296 OA
ATOM     70  C2  SGN d 405     -13.843  -0.403  43.426  0.00  0.00     0.081 C 
ATOM     71  C6  SGN d 405     -10.114  -2.227  44.807  0.00  0.00     0.067 C 
ATOM     72  O4  SGN d 405     -12.734  -3.496  45.206  0.00  0.00    -0.390 OA
ATOM     73  O3S SGN d 405     -17.143   1.245  42.661  0.00  0.00    -0.296 OA
ATOM     74  C4  SGN d 405     -12.653  -2.386  44.315  0.00  0.00     0.089 C 
ATOM     75  H   SGN d 405     -12.360   0.879  42.580  0.00  0.00     0.131 H 
ATOM     76  H   SGN d 405     -14.615   1.391  43.922  0.00  0.00     0.140 HD
ATOM     77  H   SGN d 405     -14.930  -0.592  41.210  0.00  0.00     0.231 HD
ATOM     78  H   SGN d 405     -13.956  -1.096  45.459  0.00  0.00     0.089 H 
ATOM     79  H   SGN d 405     -15.022  -2.675  43.350  0.00  0.00     0.210 HD
ATOM     80  H   SGN d 405     -11.683  -1.095  45.650  0.00  0.00     0.090 H 
ATOM     81  H   SGN d 405     -14.271   1.634  41.321  0.00  0.00     0.231 HD
ATOM     82  H   SGN d 405     -13.881  -0.876  42.467  0.00  0.00     0.076 H 
ATOM     83  H   SGN d 405      -9.321  -1.526  44.654  0.00  0.00     0.080 H 
ATOM     84  H   SGN d 405     -10.055  -2.657  45.785  0.00  0.00     0.080 H 
ATOM     85  H   SGN d 405     -13.489  -4.053  44.959  0.00  0.00     0.210 HD
ATOM     86  H   SGN d 405     -17.078   2.060  43.183  0.00  0.00     0.231 HD
ATOM     87  H   SGN d 405     -12.550  -2.773  43.323  0.00  0.00     0.091 H 
ATOM     88  O5S SGN d 403     -14.415   6.455  51.768  0.00  0.00    -0.572 OA
ATOM     89  C3  SGN d 403      -9.523   6.044  47.462  0.00  0.00     0.083 C 
ATOM     90  O5  SGN d 403     -10.977   7.878  49.054  0.00  0.00    -0.349 OA
ATOM     91  S1  SGN d 403      -6.682   6.342  49.992  0.00  0.00     0.156 S 
ATOM     92  O3  SGN d 403      -8.974   4.779  47.251  0.00  0.00    -0.391 OA
ATOM     93  O4S SGN d 403     -14.053   4.627  50.206  0.00  0.00    -0.572 OA
ATOM     94  N   SGN d 403      -7.513   6.782  48.680  0.00  0.00    -0.210 NA
ATOM     95  O4  SGN d 403     -11.530   5.455  46.390  0.00  0.00    -0.348 OA
ATOM     96  O6S SGN d 403     -15.661   6.321  49.764  0.00  0.00    -0.572 OA
ATOM     97  C4  SGN d 403     -11.027   5.889  47.620  0.00  0.00     0.095 C 
ATOM     98  C5  SGN d 403     -11.632   7.272  47.960  0.00  0.00     0.091 C 
ATOM     99  O6  SGN d 403     -13.250   6.840  49.716  0.00  0.00    -0.254 OA
ATOM    100  O1S SGN d 403      -7.518   6.625  51.132  0.00  0.00    -0.296 OA
ATOM    101  C1  SGN d 403      -9.566   8.002  48.945  0.00  0.00     0.150 C 
ATOM    102  O3S SGN d 403      -5.512   7.153  50.012  0.00  0.00    -0.296 OA
ATOM    103  O2S SGN d 403      -6.428   4.924  49.824  0.00  0.00    -0.296 OA
ATOM    104  C2  SGN d 403      -8.954   6.645  48.724  0.00  0.00     0.081 C 
ATOM    105  C6  SGN d 403     -13.126   7.249  48.359  0.00  0.00     0.067 C 
ATOM    106  S2  SGN d 403     -14.426   6.022  50.398  0.00  0.00     0.251 S 
ATOM    107  H   SGN d 403      -9.295   6.684  46.635  0.00  0.00     0.089 H 
ATOM    108  H   SGN d 403      -9.185   4.205  48.003  0.00  0.00     0.210 HD
ATOM    109  H   SGN d 403      -7.175   6.216  47.901  0.00  0.00     0.140 HD
ATOM    110  H   SGN d 403     -11.269   5.192  48.396  0.00  0.00     0.091 H 
ATOM    111  H   SGN d 403     -11.507   7.812  47.044  0.00  0.00     0.090 H 
ATOM    112  H   SGN d 403      -8.308   6.064  51.100  0.00  0.00     0.231 HD
ATOM    113  H   SGN d 403      -9.225   8.431  49.864  0.00  0.00     0.131 H 
ATOM    114  H   SGN d 403      -5.765   8.082  50.128  0.00  0.00     0.231 HD
ATOM    115  H   SGN d 403      -7.270   4.443  49.821  0.00  0.00     0.231 HD
ATOM    116  H   SGN d 403      -9.189   5.977  49.527  0.00  0.00     0.076 H 
ATOM    117  H   SGN d 403     -13.652   6.562  47.731  0.00  0.00     0.080 H 
ATOM    118  H   SGN d 403     -13.540   8.228  48.244  0.00  0.00     0.080 H 
ATOM    119  O62 IDS d 402     -12.438  10.505  46.866  0.00  0.00    -0.646 OA
ATOM    120  C1  IDS d 402      -8.031  11.705  46.000  0.00  0.00     0.161 C 
ATOM    121  O3S IDS d 402      -4.731  11.057  45.778  0.00  0.00    -0.572 OA
ATOM    122  O3  IDS d 402      -8.394  12.156  49.037  0.00  0.00    -0.390 OA
ATOM    123  O5  IDS d 402      -9.131  10.861  45.775  0.00  0.00    -0.340 OA
ATOM    124  O4  IDS d 402      -9.159   8.864  47.918  0.00  0.00    -0.348 OA
ATOM    125  O61 IDS d 402     -11.373   9.244  45.532  0.00  0.00    -0.646 OA
ATOM    126  O1S IDS d 402      -4.376   9.382  47.451  0.00  0.00    -0.572 OA
ATOM    127  O2S IDS d 402      -5.275   8.781  45.341  0.00  0.00    -0.572 OA
ATOM    128  C3  IDS d 402      -8.094  10.920  48.446  0.00  0.00     0.094 C 
ATOM    129  C5  IDS d 402     -10.059  10.825  46.854  0.00  0.00     0.152 C 
ATOM    130  S   IDS d 402      -5.161   9.790  46.317  0.00  0.00     0.252 S 
ATOM    131  C4  IDS d 402      -9.409  10.223  48.121  0.00  0.00     0.103 C 
ATOM    132  C2  IDS d 402      -7.236  11.188  47.197  0.00  0.00     0.134 C 
ATOM    133  C6  IDS d 402     -11.371  10.155  46.387  0.00  0.00     0.206 C 
ATOM    134  O2  IDS d 402      -6.613   9.983  46.848  0.00  0.00    -0.244 OA
ATOM    135  H   IDS d 402      -7.419  11.695  45.122  0.00  0.00     0.133 H 
ATOM    136  H   IDS d 402      -7.569  12.620  49.254  0.00  0.00     0.210 HD
ATOM    137  H   IDS d 402      -7.536  10.278  49.095  0.00  0.00     0.091 H 
ATOM    138  H   IDS d 402     -10.336  11.815  47.151  0.00  0.00     0.104 H 
ATOM    139  H   IDS d 402     -10.086  10.360  48.939  0.00  0.00     0.092 H 
ATOM    140  H   IDS d 402      -6.535  11.958  47.443  0.00  0.00     0.097 H 
ENDROOT
TORSDOF 45
ENDMDL
MODEL 20
REMARK VINA RESULT:      -3.7      2.490      3.648
REMARK  0 active torsions:
REMARK  status: ('A' for Active; 'I' for Inactive)
REMARK       I    between atoms: C5_1  and  C6_64 
REMARK       I    between atoms: C4_2  and  O4_32 
REMARK       I    between atoms: C1_3  and  O4_32 
REMARK       I    between atoms: S1_6  and  N_87 
REMARK       I    between atoms: S1_6  and  O1S_23 
REMARK       I    between atoms: S1_6  and  O2S_31 
REMARK       I    between atoms: S1_6  and  O3S_47 
REMARK       I    between atoms: N_7  and  C2_53 
REMARK       I    between atoms: N_7  and  S1_10 
REMARK       I    between atoms: C3_9  and  O3_14 
REMARK       I    between atoms: S1_10  and  O1S_52 
REMARK       I    between atoms: S1_10  and  O2S_17 
REMARK       I    between atoms: S1_10  and  O3S_80 
REMARK       I    between atoms: C5_12  and  C6_73 
REMARK       I    between atoms: S1_13  and  N_25 
REMARK       I    between atoms: S1_13  and  O1S_58 
REMARK       I    between atoms: S1_13  and  O2S_66 
REMARK       I    between atoms: S1_13  and  O3S_62 
REMARK       I    between atoms: S2_15  and  O6_41 
REMARK       I    between atoms: C3_16  and  O3_48 
REMARK       I    between atoms: C2_18  and  N_87 
REMARK       I    between atoms: C1_19  and  O4_39 
REMARK       I    between atoms: C3_20  and  O3_27 
REMARK       I    between atoms: C1_24  and  O1_84 
REMARK       I    between atoms: N_25  and  C2_78 
REMARK       I    between atoms: O4_28  and  C4_30 
REMARK       I    between atoms: O4_28  and  C1_86 
REMARK       I    between atoms: C2_34  and  O2_59 
REMARK       I    between atoms: O3_35  and  C3_60 
REMARK       I    between atoms: C5_37  and  C6_81 
REMARK       I    between atoms: O4_39  and  C4_79 
REMARK       I    between atoms: O4_40  and  C4_77 
REMARK       I    between atoms: O4_40  and  C1_61 
REMARK       I    between atoms: O6_41  and  C6_57 
REMARK       I    between atoms: O6_45  and  C6_81 
REMARK       I    between atoms: O6_45  and  S2_83 
REMARK       I    between atoms: C3_46  and  O3_72 
REMARK       I    between atoms: C5_50  and  C6_57 
REMARK       I    between atoms: O2_59  and  S_69 
REMARK       I    between atoms: O6_63  and  C6_64 
REMARK       I    between atoms: O6_63  and  S2_70 
REMARK       I    between atoms: C5_67  and  C6_88 
REMARK       I    between atoms: S_71  and  O2_89 
REMARK       I    between atoms: O4_75  and  C4_82 
REMARK       I    between atoms: C2_85  and  O2_89 
ROOT
ATOM      1  C5  SGN d 401     -15.810  -1.492  44.905  0.00  0.00     0.091 C 
ATOM      2  S1  SGN d 401     -14.396  -3.067  50.131  0.00  0.00     0.156 S 
ATOM      3  C3  SGN d 401     -15.999  -0.780  47.320  0.00  0.00     0.083 C 
ATOM      4  C2  SGN d 401     -15.266  -2.091  47.676  0.00  0.00     0.081 C 
ATOM      5  O1S SGN d 401     -13.191  -3.298  49.356  0.00  0.00    -0.296 OA
ATOM      6  C1  SGN d 401     -15.640  -3.136  46.611  0.00  0.00     0.147 C 
ATOM      7  O2S SGN d 401     -14.224  -1.996  51.075  0.00  0.00    -0.296 OA
ATOM      8  O4  SGN d 401     -16.423   0.758  45.547  0.00  0.00    -0.348 OA
ATOM      9  O4S SGN d 401     -13.295   0.720  42.276  0.00  0.00    -0.572 OA
ATOM     10  O3S SGN d 401     -14.887  -4.281  50.748  0.00  0.00    -0.296 OA
ATOM     11  O3  SGN d 401     -15.625   0.241  48.225  0.00  0.00    -0.391 OA
ATOM     12  O5  SGN d 401     -15.220  -2.714  45.348  0.00  0.00    -0.350 OA
ATOM     13  O6S SGN d 401     -12.363  -1.485  41.991  0.00  0.00    -0.572 OA
ATOM     14  O6  SGN d 401     -13.795  -1.010  43.846  0.00  0.00    -0.254 OA
ATOM     15  C6  SGN d 401     -15.152  -1.217  43.560  0.00  0.00     0.067 C 
ATOM     16  S2  SGN d 401     -12.714  -0.418  42.913  0.00  0.00     0.251 S 
ATOM     17  O5S SGN d 401     -11.643  -0.047  43.798  0.00  0.00    -0.572 OA
ATOM     18  C4  SGN d 401     -15.601  -0.322  45.915  0.00  0.00     0.095 C 
ATOM     19  O1  SGN d 401     -17.061  -3.353  46.584  0.00  0.00    -0.369 OA
ATOM     20  N   SGN d 401     -15.606  -2.583  49.057  0.00  0.00    -0.210 NA
ATOM     21  H   SGN d 401     -16.874  -1.573  44.825  0.00  0.00     0.090 H 
ATOM     22  H   SGN d 401     -17.053  -0.961  47.371  0.00  0.00     0.089 H 
ATOM     23  H   SGN d 401     -14.211  -1.916  47.681  0.00  0.00     0.076 H 
ATOM     24  H   SGN d 401     -12.895  -2.463  48.961  0.00  0.00     0.231 HD
ATOM     25  H   SGN d 401     -15.150  -4.052  46.866  0.00  0.00     0.131 H 
ATOM     26  H   SGN d 401     -13.895  -1.209  50.615  0.00  0.00     0.231 HD
ATOM     27  H   SGN d 401     -14.985  -4.971  50.073  0.00  0.00     0.231 HD
ATOM     28  H   SGN d 401     -14.668   0.391  48.166  0.00  0.00     0.210 HD
ATOM     29  H   SGN d 401     -15.576  -0.345  43.107  0.00  0.00     0.080 H 
ATOM     30  H   SGN d 401     -15.296  -2.025  42.873  0.00  0.00     0.080 H 
ATOM     31  H   SGN d 401     -14.572  -0.027  45.905  0.00  0.00     0.091 H 
ATOM     32  H   SGN d 401     -17.510  -2.525  46.354  0.00  0.00     0.212 HD
ATOM     33  H   SGN d 401     -16.116  -1.828  49.516  0.00  0.00     0.140 HD
ATOM     34  C4  IDS d 404      -9.377   9.529  45.602  0.00  0.00     0.103 C 
ATOM     35  C5  IDS d 404     -10.831   9.913  45.346  0.00  0.00     0.152 C 
ATOM     36  O4  IDS d 404      -8.740  10.638  46.173  0.00  0.00    -0.348 OA
ATOM     37  O5  IDS d 404     -11.568  10.026  46.542  0.00  0.00    -0.340 OA
ATOM     38  C2  IDS d 404     -10.268   8.245  47.669  0.00  0.00     0.134 C 
ATOM     39  O62 IDS d 404     -11.167  11.216  43.376  0.00  0.00    -0.646 OA
ATOM     40  C3  IDS d 404      -9.231   8.297  46.536  0.00  0.00     0.094 C 
ATOM     41  O2  IDS d 404      -9.744   8.953  48.799  0.00  0.00    -0.244 OA
ATOM     42  O1S IDS d 404      -9.376   7.562  50.667  0.00  0.00    -0.572 OA
ATOM     43  O2S IDS d 404      -9.810   9.879  51.013  0.00  0.00    -0.572 OA
ATOM     44  S   IDS d 404     -10.128   8.690  50.288  0.00  0.00     0.252 S 
ATOM     45  O3  IDS d 404      -9.397   7.130  45.767  0.00  0.00    -0.390 OA
ATOM     46  C6  IDS d 404     -10.928  11.208  44.571  0.00  0.00     0.206 C 
ATOM     47  O3S IDS d 404     -11.508   8.374  50.302  0.00  0.00    -0.572 OA
ATOM     48  C1  IDS d 404     -11.666   8.809  47.291  0.00  0.00     0.161 C 
ATOM     49  O61 IDS d 404     -10.734  12.273  45.140  0.00  0.00    -0.646 OA
ATOM     50  H   IDS d 404      -8.929   9.253  44.671  0.00  0.00     0.092 H 
ATOM     51  H   IDS d 404     -11.253   9.122  44.762  0.00  0.00     0.104 H 
ATOM     52  H   IDS d 404     -10.433   7.211  47.891  0.00  0.00     0.097 H 
ATOM     53  H   IDS d 404      -8.263   8.373  46.985  0.00  0.00     0.091 H 
ATOM     54  H   IDS d 404     -10.290   7.117  45.387  0.00  0.00     0.210 HD
ATOM     55  H   IDS d 404     -12.190   9.060  48.189  0.00  0.00     0.133 H 
ATOM     56  C1  SGN d 405      -7.547  11.024  45.556  0.00  0.00     0.150 C 
ATOM     57  O6S SGN d 405      -5.791  12.101  42.091  0.00  0.00    -0.572 OA
ATOM     58  N   SGN d 405      -6.806  11.208  47.882  0.00  0.00    -0.210 NA
ATOM     59  S1  SGN d 405      -5.538  10.389  48.440  0.00  0.00     0.156 S 
ATOM     60  S2  SGN d 405      -6.201  13.310  41.383  0.00  0.00     0.251 S 
ATOM     61  O2S SGN d 405      -4.375  11.082  47.941  0.00  0.00    -0.296 OA
ATOM     62  C3  SGN d 405      -7.108  13.288  46.610  0.00  0.00     0.083 C 
ATOM     63  O5  SGN d 405      -7.734  11.704  44.293  0.00  0.00    -0.349 OA
ATOM     64  O3  SGN d 405      -6.199  13.994  47.433  0.00  0.00    -0.391 OA
ATOM     65  O6  SGN d 405      -7.176  14.120  42.358  0.00  0.00    -0.254 OA
ATOM     66  O5S SGN d 405      -5.104  14.200  41.091  0.00  0.00    -0.572 OA
ATOM     67  C5  SGN d 405      -8.112  13.105  44.390  0.00  0.00     0.090 C 
ATOM     68  O4S SGN d 405      -6.954  13.008  40.218  0.00  0.00    -0.572 OA
ATOM     69  O1S SGN d 405      -5.665   9.058  47.905  0.00  0.00    -0.296 OA
ATOM     70  C2  SGN d 405      -6.699  11.819  46.560  0.00  0.00     0.081 C 
ATOM     71  C6  SGN d 405      -8.378  13.666  42.967  0.00  0.00     0.067 C 
ATOM     72  O4  SGN d 405      -7.308  15.246  45.201  0.00  0.00    -0.390 OA
ATOM     73  O3S SGN d 405      -5.614  10.370  49.863  0.00  0.00    -0.296 OA
ATOM     74  C4  SGN d 405      -7.038  13.847  45.177  0.00  0.00     0.089 C 
ATOM     75  H   SGN d 405      -7.012  10.139  45.280  0.00  0.00     0.131 H 
ATOM     76  H   SGN d 405      -7.596  10.562  47.854  0.00  0.00     0.140 HD
ATOM     77  H   SGN d 405      -4.378  11.062  46.970  0.00  0.00     0.231 HD
ATOM     78  H   SGN d 405      -8.097  13.392  47.006  0.00  0.00     0.089 H 
ATOM     79  H   SGN d 405      -5.301  13.902  47.077  0.00  0.00     0.210 HD
ATOM     80  H   SGN d 405      -9.027  13.238  44.929  0.00  0.00     0.090 H 
ATOM     81  H   SGN d 405      -5.611   9.092  46.937  0.00  0.00     0.231 HD
ATOM     82  H   SGN d 405      -5.680  11.788  46.236  0.00  0.00     0.076 H 
ATOM     83  H   SGN d 405      -8.805  12.895  42.362  0.00  0.00     0.080 H 
ATOM     84  H   SGN d 405      -9.049  14.495  43.051  0.00  0.00     0.080 H 
ATOM     85  H   SGN d 405      -6.615  15.700  45.705  0.00  0.00     0.210 HD
ATOM     86  H   SGN d 405      -6.413   9.893  50.138  0.00  0.00     0.231 HD
ATOM     87  H   SGN d 405      -6.074  13.711  44.735  0.00  0.00     0.091 H 
ATOM     88  O5S SGN d 403     -16.388   9.781  50.909  0.00  0.00    -0.572 OA
ATOM     89  C3  SGN d 403     -14.228   7.596  45.147  0.00  0.00     0.083 C 
ATOM     90  O5  SGN d 403     -15.839   6.891  47.365  0.00  0.00    -0.349 OA
ATOM     91  S1  SGN d 403     -17.453   8.217  43.203  0.00  0.00     0.156 S 
ATOM     92  O3  SGN d 403     -13.714   8.548  44.264  0.00  0.00    -0.391 OA
ATOM     93  O4S SGN d 403     -14.436  10.612  49.722  0.00  0.00    -0.572 OA
ATOM     94  N   SGN d 403     -16.243   7.306  43.758  0.00  0.00    -0.210 NA
ATOM     95  O4  SGN d 403     -12.399   7.826  46.606  0.00  0.00    -0.348 OA
ATOM     96  O6S SGN d 403     -14.215   9.092  51.536  0.00  0.00    -0.572 OA
ATOM     97  C4  SGN d 403     -13.789   7.968  46.554  0.00  0.00     0.095 C 
ATOM     98  C5  SGN d 403     -14.442   6.980  47.550  0.00  0.00     0.091 C 
ATOM     99  O6  SGN d 403     -15.204   8.356  49.399  0.00  0.00    -0.254 OA
ATOM    100  O1S SGN d 403     -18.251   8.594  44.343  0.00  0.00    -0.296 OA
ATOM    101  C1  SGN d 403     -16.274   6.580  46.049  0.00  0.00     0.150 C 
ATOM    102  O3S SGN d 403     -18.198   7.391  42.316  0.00  0.00    -0.296 OA
ATOM    103  O2S SGN d 403     -16.813   9.354  42.570  0.00  0.00    -0.296 OA
ATOM    104  C2  SGN d 403     -15.736   7.601  45.083  0.00  0.00     0.081 C 
ATOM    105  C6  SGN d 403     -14.265   7.348  49.042  0.00  0.00     0.067 C 
ATOM    106  S2  SGN d 403     -15.046   9.519  50.466  0.00  0.00     0.251 S 
ATOM    107  H   SGN d 403     -13.869   6.623  44.884  0.00  0.00     0.089 H 
ATOM    108  H   SGN d 403     -14.044   9.426  44.509  0.00  0.00     0.210 HD
ATOM    109  H   SGN d 403     -15.465   7.400  43.105  0.00  0.00     0.140 HD
ATOM    110  H   SGN d 403     -14.078   8.969  46.802  0.00  0.00     0.091 H 
ATOM    111  H   SGN d 403     -13.931   6.064  47.337  0.00  0.00     0.090 H 
ATOM    112  H   SGN d 403     -17.726   9.155  44.934  0.00  0.00     0.231 HD
ATOM    113  H   SGN d 403     -17.344   6.599  46.070  0.00  0.00     0.131 H 
ATOM    114  H   SGN d 403     -18.594   6.657  42.814  0.00  0.00     0.231 HD
ATOM    115  H   SGN d 403     -16.328   9.865  43.236  0.00  0.00     0.231 HD
ATOM    116  H   SGN d 403     -16.061   8.588  45.339  0.00  0.00     0.076 H 
ATOM    117  H   SGN d 403     -13.273   7.712  49.205  0.00  0.00     0.080 H 
ATOM    118  H   SGN d 403     -14.430   6.479  49.644  0.00  0.00     0.080 H 
ATOM    119  O62 IDS d 402     -14.573   3.719  48.834  0.00  0.00    -0.646 OA
ATOM    120  C1  IDS d 402     -15.824   1.788  44.794  0.00  0.00     0.161 C 
ATOM    121  O3S IDS d 402     -16.485   1.898  41.491  0.00  0.00    -0.572 OA
ATOM    122  O3  IDS d 402     -18.458   2.856  46.012  0.00  0.00    -0.390 OA
ATOM    123  O5  IDS d 402     -14.915   2.541  45.556  0.00  0.00    -0.340 OA
ATOM    124  O4  IDS d 402     -15.897   5.300  45.625  0.00  0.00    -0.348 OA
ATOM    125  O61 IDS d 402     -13.286   4.085  47.187  0.00  0.00    -0.646 OA
ATOM    126  O1S IDS d 402     -17.333   4.113  41.164  0.00  0.00    -0.572 OA
ATOM    127  O2S IDS d 402     -14.995   3.747  41.323  0.00  0.00    -0.572 OA
ATOM    128  C3  IDS d 402     -17.551   3.630  45.275  0.00  0.00     0.094 C 
ATOM    129  C5  IDS d 402     -15.499   3.177  46.687  0.00  0.00     0.152 C 
ATOM    130  S   IDS d 402     -16.276   3.308  41.713  0.00  0.00     0.252 S 
ATOM    131  C4  IDS d 402     -16.544   4.230  46.249  0.00  0.00     0.103 C 
ATOM    132  C2  IDS d 402     -16.894   2.718  44.224  0.00  0.00     0.134 C 
ATOM    133  C6  IDS d 402     -14.385   3.687  47.628  0.00  0.00     0.206 C 
ATOM    134  O2  IDS d 402     -16.313   3.544  43.254  0.00  0.00    -0.244 OA
ATOM    135  H   IDS d 402     -15.284   1.320  43.999  0.00  0.00     0.133 H 
ATOM    136  H   IDS d 402     -19.111   2.463  45.412  0.00  0.00     0.210 HD
ATOM    137  H   IDS d 402     -18.024   4.438  44.756  0.00  0.00     0.091 H 
ATOM    138  H   IDS d 402     -16.065   2.479  47.268  0.00  0.00     0.104 H 
ATOM    139  H   IDS d 402     -17.063   4.566  47.122  0.00  0.00     0.092 H 
ATOM    140  H   IDS d 402     -17.656   2.082  43.823  0.00  0.00     0.097 H 
ENDROOT
TORSDOF 45
ENDMDL
MODEL 21
REMARK VINA RESULT:      -3.4      4.026     13.562
REMARK  0 active torsions:
REMARK  status: ('A' for Active; 'I' for Inactive)
REMARK       I    between atoms: C5_1  and  C6_64 
REMARK       I    between atoms: C4_2  and  O4_32 
REMARK       I    between atoms: C1_3  and  O4_32 
REMARK       I    between atoms: S1_6  and  N_87 
REMARK       I    between atoms: S1_6  and  O1S_23 
REMARK       I    between atoms: S1_6  and  O2S_31 
REMARK       I    between atoms: S1_6  and  O3S_47 
REMARK       I    between atoms: N_7  and  C2_53 
REMARK       I    between atoms: N_7  and  S1_10 
REMARK       I    between atoms: C3_9  and  O3_14 
REMARK       I    between atoms: S1_10  and  O1S_52 
REMARK       I    between atoms: S1_10  and  O2S_17 
REMARK       I    between atoms: S1_10  and  O3S_80 
REMARK       I    between atoms: C5_12  and  C6_73 
REMARK       I    between atoms: S1_13  and  N_25 
REMARK       I    between atoms: S1_13  and  O1S_58 
REMARK       I    between atoms: S1_13  and  O2S_66 
REMARK       I    between atoms: S1_13  and  O3S_62 
REMARK       I    between atoms: S2_15  and  O6_41 
REMARK       I    between atoms: C3_16  and  O3_48 
REMARK       I    between atoms: C2_18  and  N_87 
REMARK       I    between atoms: C1_19  and  O4_39 
REMARK       I    between atoms: C3_20  and  O3_27 
REMARK       I    between atoms: C1_24  and  O1_84 
REMARK       I    between atoms: N_25  and  C2_78 
REMARK       I    between atoms: O4_28  and  C4_30 
REMARK       I    between atoms: O4_28  and  C1_86 
REMARK       I    between atoms: C2_34  and  O2_59 
REMARK       I    between atoms: O3_35  and  C3_60 
REMARK       I    between atoms: C5_37  and  C6_81 
REMARK       I    between atoms: O4_39  and  C4_79 
REMARK       I    between atoms: O4_40  and  C4_77 
REMARK       I    between atoms: O4_40  and  C1_61 
REMARK       I    between atoms: O6_41  and  C6_57 
REMARK       I    between atoms: O6_45  and  C6_81 
REMARK       I    between atoms: O6_45  and  S2_83 
REMARK       I    between atoms: C3_46  and  O3_72 
REMARK       I    between atoms: C5_50  and  C6_57 
REMARK       I    between atoms: O2_59  and  S_69 
REMARK       I    between atoms: O6_63  and  C6_64 
REMARK       I    between atoms: O6_63  and  S2_70 
REMARK       I    between atoms: C5_67  and  C6_88 
REMARK       I    between atoms: S_71  and  O2_89 
REMARK       I    between atoms: O4_75  and  C4_82 
REMARK       I    between atoms: C2_85  and  O2_89 
ROOT
ATOM      1  C5  SGN d 401     -10.222  13.997  50.350  0.00  0.00     0.091 C 
ATOM      2  S1  SGN d 401      -5.224  13.086  52.796  0.00  0.00     0.156 S 
ATOM      3  C3  SGN d 401      -7.847  13.313  49.834  0.00  0.00     0.083 C 
ATOM      4  C2  SGN d 401      -7.550  13.523  51.334  0.00  0.00     0.081 C 
ATOM      5  O1S SGN d 401      -6.173  12.436  53.680  0.00  0.00    -0.296 OA
ATOM      6  C1  SGN d 401      -8.486  14.632  51.842  0.00  0.00     0.147 C 
ATOM      7  O2S SGN d 401      -4.375  12.133  52.132  0.00  0.00    -0.296 OA
ATOM      8  O4  SGN d 401      -9.602  12.949  48.259  0.00  0.00    -0.348 OA
ATOM      9  O4S SGN d 401     -13.333  11.106  50.041  0.00  0.00    -0.572 OA
ATOM     10  O3S SGN d 401      -4.475  14.125  53.469  0.00  0.00    -0.296 OA
ATOM     11  O3  SGN d 401      -7.067  12.243  49.334  0.00  0.00    -0.391 OA
ATOM     12  O5  SGN d 401      -9.820  14.247  51.696  0.00  0.00    -0.350 OA
ATOM     13  O6S SGN d 401     -13.655  11.827  52.319  0.00  0.00    -0.572 OA
ATOM     14  O6  SGN d 401     -11.618  12.327  51.171  0.00  0.00    -0.254 OA
ATOM     15  C6  SGN d 401     -11.668  13.536  50.462  0.00  0.00     0.067 C 
ATOM     16  S2  SGN d 401     -12.743  11.279  51.329  0.00  0.00     0.251 S 
ATOM     17  O5S SGN d 401     -12.064  10.091  51.771  0.00  0.00    -0.572 OA
ATOM     18  C4  SGN d 401      -9.320  12.943  49.638  0.00  0.00     0.095 C 
ATOM     19  O1  SGN d 401      -8.270  15.855  51.117  0.00  0.00    -0.369 OA
ATOM     20  N   SGN d 401      -6.109  13.872  51.591  0.00  0.00    -0.210 NA
ATOM     21  H   SGN d 401     -10.123  14.871  49.740  0.00  0.00     0.090 H 
ATOM     22  H   SGN d 401      -7.616  14.222  49.316  0.00  0.00     0.089 H 
ATOM     23  H   SGN d 401      -7.725  12.608  51.860  0.00  0.00     0.076 H 
ATOM     24  H   SGN d 401      -6.652  11.748  53.192  0.00  0.00     0.231 HD
ATOM     25  H   SGN d 401      -8.269  14.794  52.877  0.00  0.00     0.131 H 
ATOM     26  H   SGN d 401      -4.922  11.460  51.698  0.00  0.00     0.231 HD
ATOM     27  H   SGN d 401      -5.090  14.740  53.899  0.00  0.00     0.231 HD
ATOM     28  H   SGN d 401      -7.289  11.429  49.814  0.00  0.00     0.210 HD
ATOM     29  H   SGN d 401     -12.089  13.383  49.490  0.00  0.00     0.080 H 
ATOM     30  H   SGN d 401     -12.281  14.262  50.955  0.00  0.00     0.080 H 
ATOM     31  H   SGN d 401      -9.512  11.976  50.053  0.00  0.00     0.091 H 
ATOM     32  H   SGN d 401      -8.466  15.713  50.178  0.00  0.00     0.212 HD
ATOM     33  H   SGN d 401      -5.611  13.714  50.715  0.00  0.00     0.140 HD
ATOM     34  C4  IDS d 404     -11.134   2.061  45.875  0.00  0.00     0.103 C 
ATOM     35  C5  IDS d 404     -11.170   2.967  44.649  0.00  0.00     0.152 C 
ATOM     36  O4  IDS d 404     -10.731   0.789  45.451  0.00  0.00    -0.348 OA
ATOM     37  O5  IDS d 404      -9.876   3.268  44.175  0.00  0.00    -0.340 OA
ATOM     38  C2  IDS d 404      -8.888   3.221  46.446  0.00  0.00     0.134 C 
ATOM     39  O62 IDS d 404     -13.121   2.715  43.300  0.00  0.00    -0.646 OA
ATOM     40  C3  IDS d 404     -10.176   2.577  46.983  0.00  0.00     0.094 C 
ATOM     41  O2  IDS d 404      -7.895   2.198  46.297  0.00  0.00    -0.244 OA
ATOM     42  O1S IDS d 404      -6.045   2.497  47.728  0.00  0.00    -0.572 OA
ATOM     43  O2S IDS d 404      -5.750   1.316  45.680  0.00  0.00    -0.572 OA
ATOM     44  S   IDS d 404      -6.353   2.420  46.357  0.00  0.00     0.252 S 
ATOM     45  O3  IDS d 404     -10.849   3.558  47.735  0.00  0.00    -0.390 OA
ATOM     46  C6  IDS d 404     -11.981   2.350  43.532  0.00  0.00     0.206 C 
ATOM     47  O3S IDS d 404      -6.098   3.668  45.737  0.00  0.00    -0.572 OA
ATOM     48  C1  IDS d 404      -9.062   3.991  45.106  0.00  0.00     0.161 C 
ATOM     49  O61 IDS d 404     -11.506   1.443  42.865  0.00  0.00    -0.646 OA
ATOM     50  H   IDS d 404     -12.111   2.040  46.311  0.00  0.00     0.092 H 
ATOM     51  H   IDS d 404     -11.636   3.878  44.961  0.00  0.00     0.104 H 
ATOM     52  H   IDS d 404      -8.591   3.960  47.159  0.00  0.00     0.097 H 
ATOM     53  H   IDS d 404      -9.896   1.721  47.560  0.00  0.00     0.091 H 
ATOM     54  H   IDS d 404     -11.077   4.306  47.161  0.00  0.00     0.210 HD
ATOM     55  H   IDS d 404      -8.104   4.090  44.642  0.00  0.00     0.133 H 
ATOM     56  C1  SGN d 405     -11.553  -0.265  45.860  0.00  0.00     0.150 C 
ATOM     57  O6S SGN d 405     -15.307  -1.732  45.902  0.00  0.00    -0.572 OA
ATOM     58  N   SGN d 405      -9.391  -1.312  46.332  0.00  0.00    -0.210 NA
ATOM     59  S1  SGN d 405      -9.007  -1.851  47.798  0.00  0.00     0.156 S 
ATOM     60  S2  SGN d 405     -15.998  -2.068  44.661  0.00  0.00     0.251 S 
ATOM     61  O2S SGN d 405      -9.723  -3.094  47.957  0.00  0.00    -0.296 OA
ATOM     62  C3  SGN d 405     -10.699  -2.189  44.446  0.00  0.00     0.083 C 
ATOM     63  O5  SGN d 405     -12.800  -0.350  45.134  0.00  0.00    -0.349 OA
ATOM     64  O3  SGN d 405     -10.072  -3.455  44.521  0.00  0.00    -0.391 OA
ATOM     65  O6  SGN d 405     -14.919  -1.989  43.484  0.00  0.00    -0.254 OA
ATOM     66  O5S SGN d 405     -16.509  -3.417  44.640  0.00  0.00    -0.572 OA
ATOM     67  C5  SGN d 405     -12.714  -0.959  43.815  0.00  0.00     0.090 C 
ATOM     68  O4S SGN d 405     -17.009  -1.121  44.348  0.00  0.00    -0.572 OA
ATOM     69  O1S SGN d 405      -9.447  -0.833  48.717  0.00  0.00    -0.296 OA
ATOM     70  C2  SGN d 405     -10.741  -1.569  45.839  0.00  0.00     0.081 C 
ATOM     71  C6  SGN d 405     -14.100  -0.884  43.121  0.00  0.00     0.067 C 
ATOM     72  O4  SGN d 405     -12.153  -3.045  42.710  0.00  0.00    -0.390 OA
ATOM     73  O3S SGN d 405      -7.591  -2.006  47.857  0.00  0.00    -0.296 OA
ATOM     74  C4  SGN d 405     -12.150  -2.367  43.964  0.00  0.00     0.089 C 
ATOM     75  H   SGN d 405     -11.868  -0.073  46.864  0.00  0.00     0.131 H 
ATOM     76  H   SGN d 405      -9.257  -0.300  46.336  0.00  0.00     0.140 HD
ATOM     77  H   SGN d 405     -10.678  -2.925  47.909  0.00  0.00     0.231 HD
ATOM     78  H   SGN d 405     -10.153  -1.564  43.770  0.00  0.00     0.089 H 
ATOM     79  H   SGN d 405     -10.564  -4.024  45.132  0.00  0.00     0.210 HD
ATOM     80  H   SGN d 405     -12.041  -0.430  43.173  0.00  0.00     0.090 H 
ATOM     81  H   SGN d 405     -10.411  -0.743  48.662  0.00  0.00     0.231 HD
ATOM     82  H   SGN d 405     -11.225  -2.275  46.481  0.00  0.00     0.076 H 
ATOM     83  H   SGN d 405     -14.589   0.022  43.413  0.00  0.00     0.080 H 
ATOM     84  H   SGN d 405     -13.950  -0.908  42.062  0.00  0.00     0.080 H 
ATOM     85  H   SGN d 405     -11.792  -3.938  42.825  0.00  0.00     0.210 HD
ATOM     86  H   SGN d 405      -7.166  -1.141  47.744  0.00  0.00     0.231 HD
ATOM     87  H   SGN d 405     -12.737  -2.946  44.646  0.00  0.00     0.091 H 
ATOM     88  O5S SGN d 403      -4.775   6.404  41.624  0.00  0.00    -0.572 OA
ATOM     89  C3  SGN d 403     -10.696   7.042  44.303  0.00  0.00     0.083 C 
ATOM     90  O5  SGN d 403      -8.213   8.362  43.983  0.00  0.00    -0.349 OA
ATOM     91  S1  SGN d 403     -12.117   9.415  41.673  0.00  0.00     0.156 S 
ATOM     92  O3  SGN d 403     -11.697   6.192  43.830  0.00  0.00    -0.391 OA
ATOM     93  O4S SGN d 403      -6.305   4.583  42.126  0.00  0.00    -0.572 OA
ATOM     94  N   SGN d 403     -11.721   8.978  43.176  0.00  0.00    -0.210 NA
ATOM     95  O4  SGN d 403      -9.567   5.275  45.366  0.00  0.00    -0.348 OA
ATOM     96  O6S SGN d 403      -4.477   5.084  43.561  0.00  0.00    -0.572 OA
ATOM     97  C4  SGN d 403      -9.400   6.252  44.380  0.00  0.00     0.095 C 
ATOM     98  C5  SGN d 403      -8.262   7.213  44.802  0.00  0.00     0.091 C 
ATOM     99  O6  SGN d 403      -6.385   6.637  43.376  0.00  0.00    -0.254 OA
ATOM    100  O1S SGN d 403     -10.883   9.606  40.954  0.00  0.00    -0.296 OA
ATOM    101  C1  SGN d 403      -9.423   9.097  43.867  0.00  0.00     0.150 C 
ATOM    102  O3S SGN d 403     -12.828  10.642  41.790  0.00  0.00    -0.296 OA
ATOM    103  O2S SGN d 403     -12.902   8.313  41.152  0.00  0.00    -0.296 OA
ATOM    104  C2  SGN d 403     -10.514   8.198  43.349  0.00  0.00     0.081 C 
ATOM    105  C6  SGN d 403      -6.839   6.612  44.723  0.00  0.00     0.067 C 
ATOM    106  S2  SGN d 403      -5.417   5.617  42.640  0.00  0.00     0.251 S 
ATOM    107  H   SGN d 403     -10.964   7.422  45.267  0.00  0.00     0.089 H 
ATOM    108  H   SGN d 403     -11.446   5.853  42.957  0.00  0.00     0.210 HD
ATOM    109  H   SGN d 403     -12.496   8.430  43.549  0.00  0.00     0.140 HD
ATOM    110  H   SGN d 403      -9.158   5.804  43.439  0.00  0.00     0.091 H 
ATOM    111  H   SGN d 403      -8.510   7.434  45.820  0.00  0.00     0.090 H 
ATOM    112  H   SGN d 403     -10.414   8.760  40.885  0.00  0.00     0.231 HD
ATOM    113  H   SGN d 403      -9.229   9.897  43.182  0.00  0.00     0.131 H 
ATOM    114  H   SGN d 403     -12.237  11.325  42.144  0.00  0.00     0.231 HD
ATOM    115  H   SGN d 403     -12.350   7.517  41.102  0.00  0.00     0.231 HD
ATOM    116  H   SGN d 403     -10.258   7.785  42.396  0.00  0.00     0.076 H 
ATOM    117  H   SGN d 403      -6.859   5.601  45.074  0.00  0.00     0.080 H 
ATOM    118  H   SGN d 403      -6.175   7.188  45.333  0.00  0.00     0.080 H 
ATOM    119  O62 IDS d 402      -6.812   9.160  47.333  0.00  0.00    -0.646 OA
ATOM    120  C1  IDS d 402     -10.493  11.964  47.787  0.00  0.00     0.161 C 
ATOM    121  O3S IDS d 402     -13.645  12.920  47.075  0.00  0.00    -0.572 OA
ATOM    122  O3  IDS d 402      -8.917  13.107  45.385  0.00  0.00    -0.390 OA
ATOM    123  O5  IDS d 402      -9.928  10.678  47.822  0.00  0.00    -0.340 OA
ATOM    124  O4  IDS d 402      -9.838   9.682  45.070  0.00  0.00    -0.348 OA
ATOM    125  O61 IDS d 402      -8.664   8.210  47.751  0.00  0.00    -0.646 OA
ATOM    126  O1S IDS d 402     -13.941  12.225  44.803  0.00  0.00    -0.572 OA
ATOM    127  O2S IDS d 402     -14.147  10.649  46.564  0.00  0.00    -0.572 OA
ATOM    128  C3  IDS d 402      -9.830  12.045  45.306  0.00  0.00     0.094 C 
ATOM    129  C5  IDS d 402      -8.750  10.545  47.035  0.00  0.00     0.152 C 
ATOM    130  S   IDS d 402     -13.531  11.839  46.126  0.00  0.00     0.252 S 
ATOM    131  C4  IDS d 402      -9.064  10.748  45.534  0.00  0.00     0.103 C 
ATOM    132  C2  IDS d 402     -10.927  12.284  46.358  0.00  0.00     0.134 C 
ATOM    133  C6  IDS d 402      -8.030   9.227  47.399  0.00  0.00     0.206 C 
ATOM    134  O2  IDS d 402     -12.019  11.476  46.019  0.00  0.00    -0.244 OA
ATOM    135  H   IDS d 402     -11.341  11.972  48.439  0.00  0.00     0.133 H 
ATOM    136  H   IDS d 402      -9.382  13.946  45.242  0.00  0.00     0.210 HD
ATOM    137  H   IDS d 402     -10.304  11.980  44.349  0.00  0.00     0.091 H 
ATOM    138  H   IDS d 402      -8.051  11.322  47.259  0.00  0.00     0.104 H 
ATOM    139  H   IDS d 402      -8.136  10.794  45.004  0.00  0.00     0.092 H 
ATOM    140  H   IDS d 402     -11.166  13.327  46.348  0.00  0.00     0.097 H 
ENDROOT
TORSDOF 45
ENDMDL
MODEL 22
REMARK VINA RESULT:      -3.3      3.856     13.675
REMARK  0 active torsions:
REMARK  status: ('A' for Active; 'I' for Inactive)
REMARK       I    between atoms: C5_1  and  C6_64 
REMARK       I    between atoms: C4_2  and  O4_32 
REMARK       I    between atoms: C1_3  and  O4_32 
REMARK       I    between atoms: S1_6  and  N_87 
REMARK       I    between atoms: S1_6  and  O1S_23 
REMARK       I    between atoms: S1_6  and  O2S_31 
REMARK       I    between atoms: S1_6  and  O3S_47 
REMARK       I    between atoms: N_7  and  C2_53 
REMARK       I    between atoms: N_7  and  S1_10 
REMARK       I    between atoms: C3_9  and  O3_14 
REMARK       I    between atoms: S1_10  and  O1S_52 
REMARK       I    between atoms: S1_10  and  O2S_17 
REMARK       I    between atoms: S1_10  and  O3S_80 
REMARK       I    between atoms: C5_12  and  C6_73 
REMARK       I    between atoms: S1_13  and  N_25 
REMARK       I    between atoms: S1_13  and  O1S_58 
REMARK       I    between atoms: S1_13  and  O2S_66 
REMARK       I    between atoms: S1_13  and  O3S_62 
REMARK       I    between atoms: S2_15  and  O6_41 
REMARK       I    between atoms: C3_16  and  O3_48 
REMARK       I    between atoms: C2_18  and  N_87 
REMARK       I    between atoms: C1_19  and  O4_39 
REMARK       I    between atoms: C3_20  and  O3_27 
REMARK       I    between atoms: C1_24  and  O1_84 
REMARK       I    between atoms: N_25  and  C2_78 
REMARK       I    between atoms: O4_28  and  C4_30 
REMARK       I    between atoms: O4_28  and  C1_86 
REMARK       I    between atoms: C2_34  and  O2_59 
REMARK       I    between atoms: O3_35  and  C3_60 
REMARK       I    between atoms: C5_37  and  C6_81 
REMARK       I    between atoms: O4_39  and  C4_79 
REMARK       I    between atoms: O4_40  and  C4_77 
REMARK       I    between atoms: O4_40  and  C1_61 
REMARK       I    between atoms: O6_41  and  C6_57 
REMARK       I    between atoms: O6_45  and  C6_81 
REMARK       I    between atoms: O6_45  and  S2_83 
REMARK       I    between atoms: C3_46  and  O3_72 
REMARK       I    between atoms: C5_50  and  C6_57 
REMARK       I    between atoms: O2_59  and  S_69 
REMARK       I    between atoms: O6_63  and  C6_64 
REMARK       I    between atoms: O6_63  and  S2_70 
REMARK       I    between atoms: C5_67  and  C6_88 
REMARK       I    between atoms: S_71  and  O2_89 
REMARK       I    between atoms: O4_75  and  C4_82 
REMARK       I    between atoms: C2_85  and  O2_89 
ROOT
ATOM      1  C5  SGN d 401     -11.102  16.041  48.758  0.00  0.00     0.091 C 
ATOM      2  S1  SGN d 401      -5.809  15.830  50.687  0.00  0.00     0.156 S 
ATOM      3  C3  SGN d 401      -8.745  15.482  48.049  0.00  0.00     0.083 C 
ATOM      4  C2  SGN d 401      -8.308  15.900  49.469  0.00  0.00     0.081 C 
ATOM      5  O1S SGN d 401      -6.593  15.226  51.747  0.00  0.00    -0.296 OA
ATOM      6  C1  SGN d 401      -9.281  16.990  49.951  0.00  0.00     0.147 C 
ATOM      7  O2S SGN d 401      -4.953  14.869  50.044  0.00  0.00    -0.296 OA
ATOM      8  O4  SGN d 401     -10.618  14.789  46.745  0.00  0.00    -0.348 OA
ATOM      9  O4S SGN d 401     -13.955  12.905  49.156  0.00  0.00    -0.572 OA
ATOM     10  O3S SGN d 401      -5.088  17.000  51.142  0.00  0.00    -0.296 OA
ATOM     11  O3  SGN d 401      -7.929  14.420  47.589  0.00  0.00    -0.391 OA
ATOM     12  O5  SGN d 401     -10.582  16.488  50.010  0.00  0.00    -0.350 OA
ATOM     13  O6S SGN d 401     -14.093  13.880  51.357  0.00  0.00    -0.572 OA
ATOM     14  O6  SGN d 401     -12.245  14.386  49.927  0.00  0.00    -0.254 OA
ATOM     15  C6  SGN d 401     -12.480  15.488  49.093  0.00  0.00     0.067 C 
ATOM     16  S2  SGN d 401     -13.247  13.283  50.337  0.00  0.00     0.251 S 
ATOM     17  O5S SGN d 401     -12.420  12.215  50.831  0.00  0.00    -0.572 OA
ATOM     18  C4  SGN d 401     -10.190  14.979  48.072  0.00  0.00     0.095 C 
ATOM     19  O1  SGN d 401      -9.255  18.125  49.069  0.00  0.00    -0.369 OA
ATOM     20  N   SGN d 401      -6.885  16.389  49.512  0.00  0.00    -0.210 NA
ATOM     21  H   SGN d 401     -11.149  16.837  48.044  0.00  0.00     0.090 H 
ATOM     22  H   SGN d 401      -8.654  16.333  47.406  0.00  0.00     0.089 H 
ATOM     23  H   SGN d 401      -8.342  15.048  50.115  0.00  0.00     0.076 H 
ATOM     24  H   SGN d 401      -7.059  14.448  51.402  0.00  0.00     0.231 HD
ATOM     25  H   SGN d 401      -8.969  17.297  50.928  0.00  0.00     0.131 H 
ATOM     26  H   SGN d 401      -5.481  14.108  49.758  0.00  0.00     0.231 HD
ATOM     27  H   SGN d 401      -5.706  17.616  51.567  0.00  0.00     0.231 HD
ATOM     28  H   SGN d 401      -8.024  13.659  48.182  0.00  0.00     0.210 HD
ATOM     29  H   SGN d 401     -12.988  15.183  48.202  0.00  0.00     0.080 H 
ATOM     30  H   SGN d 401     -13.100  16.222  49.567  0.00  0.00     0.080 H 
ATOM     31  H   SGN d 401     -10.249  14.060  48.617  0.00  0.00     0.091 H 
ATOM     32  H   SGN d 401      -9.537  17.852  48.182  0.00  0.00     0.212 HD
ATOM     33  H   SGN d 401      -6.473  16.160  48.608  0.00  0.00     0.140 HD
ATOM     34  C4  IDS d 404     -11.409   3.602  45.841  0.00  0.00     0.103 C 
ATOM     35  C5  IDS d 404     -11.658   4.342  44.530  0.00  0.00     0.152 C 
ATOM     36  O4  IDS d 404     -10.941   2.322  45.523  0.00  0.00    -0.348 OA
ATOM     37  O5  IDS d 404     -10.455   4.680  43.876  0.00  0.00    -0.340 OA
ATOM     38  C2  IDS d 404      -9.229   4.994  46.004  0.00  0.00     0.134 C 
ATOM     39  O62 IDS d 404     -13.712   3.774  43.460  0.00  0.00    -0.646 OA
ATOM     40  C3  IDS d 404     -10.388   4.325  46.761  0.00  0.00     0.094 C 
ATOM     41  O2  IDS d 404      -8.169   4.039  45.860  0.00  0.00    -0.244 OA
ATOM     42  O1S IDS d 404      -6.211   4.657  47.018  0.00  0.00    -0.572 OA
ATOM     43  O2S IDS d 404      -6.032   3.254  45.101  0.00  0.00    -0.572 OA
ATOM     44  S   IDS d 404      -6.656   4.385  45.711  0.00  0.00     0.252 S 
ATOM     45  O3  IDS d 404     -11.061   5.339  47.468  0.00  0.00    -0.390 OA
ATOM     46  C6  IDS d 404     -12.526   3.529  43.597  0.00  0.00     0.206 C 
ATOM     47  O3S IDS d 404      -6.583   5.560  44.924  0.00  0.00    -0.572 OA
ATOM     48  C1  IDS d 404      -9.614   5.573  44.614  0.00  0.00     0.161 C 
ATOM     49  O61 IDS d 404     -12.045   2.584  42.988  0.00  0.00    -0.646 OA
ATOM     50  H   IDS d 404     -12.328   3.562  46.388  0.00  0.00     0.092 H 
ATOM     51  H   IDS d 404     -12.169   5.247  44.787  0.00  0.00     0.104 H 
ATOM     52  H   IDS d 404      -8.924   5.838  46.586  0.00  0.00     0.097 H 
ATOM     53  H   IDS d 404      -9.970   3.573  47.397  0.00  0.00     0.091 H 
ATOM     54  H   IDS d 404     -11.417   5.990  46.841  0.00  0.00     0.210 HD
ATOM     55  H   IDS d 404      -8.724   5.686  44.031  0.00  0.00     0.133 H 
ATOM     56  C1  SGN d 405     -11.615   1.268  46.146  0.00  0.00     0.150 C 
ATOM     57  O6S SGN d 405     -15.195  -0.465  46.801  0.00  0.00    -0.572 OA
ATOM     58  N   SGN d 405      -9.330   0.457  46.478  0.00  0.00    -0.210 NA
ATOM     59  S1  SGN d 405      -8.742   0.138  47.942  0.00  0.00     0.156 S 
ATOM     60  S2  SGN d 405     -15.982  -1.006  45.697  0.00  0.00     0.251 S 
ATOM     61  O2S SGN d 405      -9.322  -1.126  48.328  0.00  0.00    -0.296 OA
ATOM     62  C3  SGN d 405     -10.748  -0.747  44.874  0.00  0.00     0.083 C 
ATOM     63  O5  SGN d 405     -12.921   0.997  45.587  0.00  0.00    -0.349 OA
ATOM     64  O3  SGN d 405     -10.004  -1.943  45.022  0.00  0.00    -0.391 OA
ATOM     65  O6  SGN d 405     -15.048  -0.994  44.400  0.00  0.00    -0.254 OA
ATOM     66  O5S SGN d 405     -16.369  -2.382  45.893  0.00  0.00    -0.572 OA
ATOM     67  C5  SGN d 405     -12.922   0.236  44.347  0.00  0.00     0.090 C 
ATOM     68  O4S SGN d 405     -17.102  -0.187  45.398  0.00  0.00    -0.572 OA
ATOM     69  O1S SGN d 405      -9.171   1.227  48.781  0.00  0.00    -0.296 OA
ATOM     70  C2  SGN d 405     -10.696   0.038  46.182  0.00  0.00     0.081 C 
ATOM     71  C6  SGN d 405     -14.376   0.116  43.817  0.00  0.00     0.067 C 
ATOM     72  O4  SGN d 405     -12.297  -1.924  43.433  0.00  0.00    -0.390 OA
ATOM     73  O3S SGN d 405      -7.320   0.101  47.851  0.00  0.00    -0.296 OA
ATOM     74  C4  SGN d 405     -12.221  -1.095  44.591  0.00  0.00     0.089 C 
ATOM     75  H   SGN d 405     -11.836   1.560  47.151  0.00  0.00     0.131 H 
ATOM     76  H   SGN d 405      -9.288   1.469  46.349  0.00  0.00     0.140 HD
ATOM     77  H   SGN d 405     -10.288  -1.039  48.373  0.00  0.00     0.231 HD
ATOM     78  H   SGN d 405     -10.336  -0.172  44.071  0.00  0.00     0.089 H 
ATOM     79  H   SGN d 405     -10.374  -2.466  45.749  0.00  0.00     0.210 HD
ATOM     80  H   SGN d 405     -12.372   0.729  43.573  0.00  0.00     0.090 H 
ATOM     81  H   SGN d 405     -10.140   1.235  48.831  0.00  0.00     0.231 HD
ATOM     82  H   SGN d 405     -11.042  -0.616  46.954  0.00  0.00     0.076 H 
ATOM     83  H   SGN d 405     -14.910   1.012  44.057  0.00  0.00     0.080 H 
ATOM     84  H   SGN d 405     -14.339  -0.029  42.758  0.00  0.00     0.080 H 
ATOM     85  H   SGN d 405     -11.846  -2.765  43.608  0.00  0.00     0.210 HD
ATOM     86  H   SGN d 405      -6.990   0.975  47.589  0.00  0.00     0.231 HD
ATOM     87  H   SGN d 405     -12.676  -1.627  45.400  0.00  0.00     0.091 H 
ATOM     88  O5S SGN d 403      -5.963   7.851  40.394  0.00  0.00    -0.572 OA
ATOM     89  C3  SGN d 403     -11.594   8.365  43.660  0.00  0.00     0.083 C 
ATOM     90  O5  SGN d 403      -9.289   9.821  42.898  0.00  0.00    -0.349 OA
ATOM     91  S1  SGN d 403     -13.498  10.273  40.958  0.00  0.00     0.156 S 
ATOM     92  O3  SGN d 403     -12.559   7.388  43.410  0.00  0.00    -0.391 OA
ATOM     93  O4S SGN d 403      -7.259   5.996  41.282  0.00  0.00    -0.572 OA
ATOM     94  N   SGN d 403     -12.906  10.060  42.443  0.00  0.00    -0.210 NA
ATOM     95  O4  SGN d 403     -10.203   6.838  44.780  0.00  0.00    -0.348 OA
ATOM     96  O6S SGN d 403      -5.340   6.811  42.423  0.00  0.00    -0.572 OA
ATOM     97  C4  SGN d 403     -10.231   7.693  43.675  0.00  0.00     0.095 C 
ATOM     98  C5  SGN d 403      -9.146   8.783  43.845  0.00  0.00     0.091 C 
ATOM     99  O6  SGN d 403      -7.390   8.178  42.284  0.00  0.00    -0.254 OA
ATOM    100  O1S SGN d 403     -12.371  10.466  40.081  0.00  0.00    -0.296 OA
ATOM    101  C1  SGN d 403     -10.566  10.440  42.840  0.00  0.00     0.150 C 
ATOM    102  O3S SGN d 403     -14.301  11.447  41.014  0.00  0.00    -0.296 OA
ATOM    103  O2S SGN d 403     -14.233   9.057  40.664  0.00  0.00    -0.296 OA
ATOM    104  C2  SGN d 403     -11.621   9.402  42.563  0.00  0.00     0.081 C 
ATOM    105  C6  SGN d 403      -7.692   8.288  43.670  0.00  0.00     0.067 C 
ATOM    106  S2  SGN d 403      -6.418   7.151  41.563  0.00  0.00     0.251 S 
ATOM    107  H   SGN d 403     -11.791   8.842  44.598  0.00  0.00     0.089 H 
ATOM    108  H   SGN d 403     -12.375   6.962  42.559  0.00  0.00     0.210 HD
ATOM    109  H   SGN d 403     -13.583   9.505  42.966  0.00  0.00     0.140 HD
ATOM    110  H   SGN d 403     -10.053   7.150  42.770  0.00  0.00     0.091 H 
ATOM    111  H   SGN d 403      -9.302   9.111  44.852  0.00  0.00     0.090 H 
ATOM    112  H   SGN d 403     -11.838   9.656  40.056  0.00  0.00     0.231 HD
ATOM    113  H   SGN d 403     -10.520  11.160  42.049  0.00  0.00     0.131 H 
ATOM    114  H   SGN d 403     -13.739  12.212  41.214  0.00  0.00     0.231 HD
ATOM    115  H   SGN d 403     -13.619   8.306  40.643  0.00  0.00     0.231 HD
ATOM    116  H   SGN d 403     -11.433   8.893  41.641  0.00  0.00     0.076 H 
ATOM    117  H   SGN d 403      -7.582   7.331  44.135  0.00  0.00     0.080 H 
ATOM    118  H   SGN d 403      -7.021   8.986  44.125  0.00  0.00     0.080 H 
ATOM    119  O62 IDS d 402      -7.614  11.139  45.944  0.00  0.00    -0.646 OA
ATOM    120  C1  IDS d 402     -11.463  13.688  46.499  0.00  0.00     0.161 C 
ATOM    121  O3S IDS d 402     -14.747  14.302  46.057  0.00  0.00    -0.572 OA
ATOM    122  O3  IDS d 402     -10.264  14.636  43.811  0.00  0.00    -0.390 OA
ATOM    123  O5  IDS d 402     -10.783  12.463  46.617  0.00  0.00    -0.340 OA
ATOM    124  O4  IDS d 402     -10.901  11.138  44.007  0.00  0.00    -0.348 OA
ATOM    125  O61 IDS d 402      -9.316  10.109  46.685  0.00  0.00    -0.646 OA
ATOM    126  O1S IDS d 402     -15.221  13.306  43.932  0.00  0.00    -0.572 OA
ATOM    127  O2S IDS d 402     -15.093  11.953  45.876  0.00  0.00    -0.572 OA
ATOM    128  C3  IDS d 402     -11.081  13.506  43.964  0.00  0.00     0.094 C 
ATOM    129  C5  IDS d 402      -9.690  12.322  45.717  0.00  0.00     0.152 C 
ATOM    130  S   IDS d 402     -14.638  13.122  45.234  0.00  0.00     0.252 S 
ATOM    131  C4  IDS d 402     -10.181  12.310  44.251  0.00  0.00     0.103 C 
ATOM    132  C2  IDS d 402     -12.075  13.791  45.104  0.00  0.00     0.134 C 
ATOM    133  C6  IDS d 402      -8.818  11.120  46.144  0.00  0.00     0.206 C 
ATOM    134  O2  IDS d 402     -13.120  12.865  44.992  0.00  0.00    -0.244 OA
ATOM    135  H   IDS d 402     -12.234  13.713  47.241  0.00  0.00     0.133 H 
ATOM    136  H   IDS d 402     -10.816  15.412  43.628  0.00  0.00     0.210 HD
ATOM    137  H   IDS d 402     -11.648  13.285  43.084  0.00  0.00     0.091 H 
ATOM    138  H   IDS d 402      -9.044  13.174  45.766  0.00  0.00     0.104 H 
ATOM    139  H   IDS d 402      -9.323  12.361  43.613  0.00  0.00     0.092 H 
ATOM    140  H   IDS d 402     -12.407  14.803  45.001  0.00  0.00     0.097 H 
ENDROOT
TORSDOF 45
ENDMDL
MODEL 23
REMARK VINA RESULT:      -3.1      4.850     11.442
REMARK  0 active torsions:
REMARK  status: ('A' for Active; 'I' for Inactive)
REMARK       I    between atoms: C5_1  and  C6_64 
REMARK       I    between atoms: C4_2  and  O4_32 
REMARK       I    between atoms: C1_3  and  O4_32 
REMARK       I    between atoms: S1_6  and  N_87 
REMARK       I    between atoms: S1_6  and  O1S_23 
REMARK       I    between atoms: S1_6  and  O2S_31 
REMARK       I    between atoms: S1_6  and  O3S_47 
REMARK       I    between atoms: N_7  and  C2_53 
REMARK       I    between atoms: N_7  and  S1_10 
REMARK       I    between atoms: C3_9  and  O3_14 
REMARK       I    between atoms: S1_10  and  O1S_52 
REMARK       I    between atoms: S1_10  and  O2S_17 
REMARK       I    between atoms: S1_10  and  O3S_80 
REMARK       I    between atoms: C5_12  and  C6_73 
REMARK       I    between atoms: S1_13  and  N_25 
REMARK       I    between atoms: S1_13  and  O1S_58 
REMARK       I    between atoms: S1_13  and  O2S_66 
REMARK       I    between atoms: S1_13  and  O3S_62 
REMARK       I    between atoms: S2_15  and  O6_41 
REMARK       I    between atoms: C3_16  and  O3_48 
REMARK       I    between atoms: C2_18  and  N_87 
REMARK       I    between atoms: C1_19  and  O4_39 
REMARK       I    between atoms: C3_20  and  O3_27 
REMARK       I    between atoms: C1_24  and  O1_84 
REMARK       I    between atoms: N_25  and  C2_78 
REMARK       I    between atoms: O4_28  and  C4_30 
REMARK       I    between atoms: O4_28  and  C1_86 
REMARK       I    between atoms: C2_34  and  O2_59 
REMARK       I    between atoms: O3_35  and  C3_60 
REMARK       I    between atoms: C5_37  and  C6_81 
REMARK       I    between atoms: O4_39  and  C4_79 
REMARK       I    between atoms: O4_40  and  C4_77 
REMARK       I    between atoms: O4_40  and  C1_61 
REMARK       I    between atoms: O6_41  and  C6_57 
REMARK       I    between atoms: O6_45  and  C6_81 
REMARK       I    between atoms: O6_45  and  S2_83 
REMARK       I    between atoms: C3_46  and  O3_72 
REMARK       I    between atoms: C5_50  and  C6_57 
REMARK       I    between atoms: O2_59  and  S_69 
REMARK       I    between atoms: O6_63  and  C6_64 
REMARK       I    between atoms: O6_63  and  S2_70 
REMARK       I    between atoms: C5_67  and  C6_88 
REMARK       I    between atoms: S_71  and  O2_89 
REMARK       I    between atoms: O4_75  and  C4_82 
REMARK       I    between atoms: C2_85  and  O2_89 
ROOT
ATOM      1  C5  SGN d 401     -19.740  10.135  44.161  0.00  0.00     0.091 C 
ATOM      2  S1  SGN d 401     -17.420  15.154  45.261  0.00  0.00     0.156 S 
ATOM      3  C3  SGN d 401     -17.755  11.582  43.578  0.00  0.00     0.083 C 
ATOM      4  C2  SGN d 401     -18.375  12.655  44.499  0.00  0.00     0.081 C 
ATOM      5  O1S SGN d 401     -17.814  14.655  46.566  0.00  0.00    -0.296 OA
ATOM      6  C1  SGN d 401     -19.902  12.487  44.445  0.00  0.00     0.147 C 
ATOM      7  O2S SGN d 401     -15.989  15.218  45.126  0.00  0.00    -0.296 OA
ATOM      8  O4  SGN d 401     -17.768   9.251  43.072  0.00  0.00    -0.348 OA
ATOM      9  O4S SGN d 401     -19.140   6.623  46.493  0.00  0.00    -0.572 OA
ATOM     10  O3S SGN d 401     -18.066  16.408  44.940  0.00  0.00    -0.296 OA
ATOM     11  O3  SGN d 401     -16.343  11.640  43.654  0.00  0.00    -0.391 OA
ATOM     12  O5  SGN d 401     -20.269  11.225  44.915  0.00  0.00    -0.350 OA
ATOM     13  O6S SGN d 401     -20.789   7.747  47.844  0.00  0.00    -0.572 OA
ATOM     14  O6  SGN d 401     -19.594   8.944  46.154  0.00  0.00    -0.254 OA
ATOM     15  C6  SGN d 401     -20.217   8.892  44.899  0.00  0.00     0.067 C 
ATOM     16  S2  SGN d 401     -19.488   7.812  47.201  0.00  0.00     0.251 S 
ATOM     17  O5S SGN d 401     -18.434   8.239  48.082  0.00  0.00    -0.572 OA
ATOM     18  C4  SGN d 401     -18.186  10.186  44.036  0.00  0.00     0.095 C 
ATOM     19  O1  SGN d 401     -20.387  12.646  43.101  0.00  0.00    -0.369 OA
ATOM     20  N   SGN d 401     -17.971  14.051  44.107  0.00  0.00    -0.210 NA
ATOM     21  H   SGN d 401     -20.078  10.156  43.146  0.00  0.00     0.090 H 
ATOM     22  H   SGN d 401     -18.087  11.767  42.577  0.00  0.00     0.089 H 
ATOM     23  H   SGN d 401     -18.012  12.517  45.496  0.00  0.00     0.076 H 
ATOM     24  H   SGN d 401     -17.360  13.816  46.742  0.00  0.00     0.231 HD
ATOM     25  H   SGN d 401     -20.336  13.242  45.067  0.00  0.00     0.131 H 
ATOM     26  H   SGN d 401     -15.605  14.357  45.351  0.00  0.00     0.231 HD
ATOM     27  H   SGN d 401     -19.026  16.315  45.046  0.00  0.00     0.231 HD
ATOM     28  H   SGN d 401     -16.061  11.470  44.567  0.00  0.00     0.210 HD
ATOM     29  H   SGN d 401     -19.925   8.007  44.372  0.00  0.00     0.080 H 
ATOM     30  H   SGN d 401     -21.284   8.864  44.984  0.00  0.00     0.080 H 
ATOM     31  H   SGN d 401     -17.749   9.962  44.986  0.00  0.00     0.091 H 
ATOM     32  H   SGN d 401     -19.997  11.963  42.533  0.00  0.00     0.212 HD
ATOM     33  H   SGN d 401     -17.225  13.955  43.418  0.00  0.00     0.140 HD
ATOM     34  C4  IDS d 404      -9.571   3.602  48.314  0.00  0.00     0.103 C 
ATOM     35  C5  IDS d 404      -9.748   3.208  46.852  0.00  0.00     0.152 C 
ATOM     36  O4  IDS d 404      -8.242   3.336  48.667  0.00  0.00    -0.348 OA
ATOM     37  O5  IDS d 404      -9.083   4.094  45.979  0.00  0.00    -0.340 OA
ATOM     38  C2  IDS d 404      -9.465   6.045  47.456  0.00  0.00     0.134 C 
ATOM     39  O62 IDS d 404     -10.042   0.867  46.497  0.00  0.00    -0.646 OA
ATOM     40  C3  IDS d 404      -9.900   5.096  48.584  0.00  0.00     0.094 C 
ATOM     41  O2  IDS d 404      -8.120   6.470  47.712  0.00  0.00    -0.244 OA
ATOM     42  O1S IDS d 404      -7.949   8.784  48.125  0.00  0.00    -0.572 OA
ATOM     43  O2S IDS d 404      -6.070   7.623  47.233  0.00  0.00    -0.572 OA
ATOM     44  S   IDS d 404      -7.487   7.808  47.224  0.00  0.00     0.252 S 
ATOM     45  O3  IDS d 404     -11.295   5.228  48.723  0.00  0.00    -0.390 OA
ATOM     46  C6  IDS d 404      -9.262   1.798  46.600  0.00  0.00     0.206 C 
ATOM     47  O3S IDS d 404      -8.013   8.059  45.933  0.00  0.00    -0.572 OA
ATOM     48  C1  IDS d 404      -9.568   5.441  46.027  0.00  0.00     0.161 C 
ATOM     49  O61 IDS d 404      -8.063   1.572  46.529  0.00  0.00    -0.646 OA
ATOM     50  H   IDS d 404     -10.258   3.033  48.905  0.00  0.00     0.092 H 
ATOM     51  H   IDS d 404     -10.798   3.259  46.650  0.00  0.00     0.104 H 
ATOM     52  H   IDS d 404     -10.148   6.869  47.463  0.00  0.00     0.097 H 
ATOM     53  H   IDS d 404      -9.360   5.369  49.465  0.00  0.00     0.091 H 
ATOM     54  H   IDS d 404     -11.729   4.968  47.895  0.00  0.00     0.210 HD
ATOM     55  H   IDS d 404      -8.938   6.003  45.371  0.00  0.00     0.133 H 
ATOM     56  C1  SGN d 405      -8.074   2.576  49.827  0.00  0.00     0.150 C 
ATOM     57  O6S SGN d 405      -9.012  -0.856  51.722  0.00  0.00    -0.572 OA
ATOM     58  N   SGN d 405      -6.345   4.255  50.262  0.00  0.00    -0.210 NA
ATOM     59  S1  SGN d 405      -6.352   5.162  51.591  0.00  0.00     0.156 S 
ATOM     60  S2  SGN d 405      -8.617  -2.150  51.174  0.00  0.00     0.251 S 
ATOM     61  O2S SGN d 405      -5.885   4.303  52.653  0.00  0.00    -0.296 OA
ATOM     62  C3  SGN d 405      -5.613   1.974  49.719  0.00  0.00     0.083 C 
ATOM     63  O5  SGN d 405      -8.374   1.172  49.657  0.00  0.00    -0.349 OA
ATOM     64  O3  SGN d 405      -4.376   2.147  50.386  0.00  0.00    -0.391 OA
ATOM     65  O6  SGN d 405      -7.610  -1.864  49.965  0.00  0.00    -0.254 OA
ATOM     66  O5S SGN d 405      -7.887  -2.968  52.111  0.00  0.00    -0.572 OA
ATOM     67  C5  SGN d 405      -7.332   0.386  49.017  0.00  0.00     0.090 C 
ATOM     68  O4S SGN d 405      -9.724  -2.849  50.623  0.00  0.00    -0.572 OA
ATOM     69  O1S SGN d 405      -7.719   5.578  51.773  0.00  0.00    -0.296 OA
ATOM     70  C2  SGN d 405      -6.671   2.838  50.398  0.00  0.00     0.081 C 
ATOM     71  C6  SGN d 405      -7.837  -1.067  48.809  0.00  0.00     0.067 C 
ATOM     72  O4  SGN d 405      -5.036  -0.342  49.315  0.00  0.00    -0.390 OA
ATOM     73  O3S SGN d 405      -5.508   6.288  51.364  0.00  0.00    -0.296 OA
ATOM     74  C4  SGN d 405      -6.055   0.504  49.841  0.00  0.00     0.089 C 
ATOM     75  H   SGN d 405      -8.801   2.896  50.545  0.00  0.00     0.131 H 
ATOM     76  H   SGN d 405      -7.021   4.661  49.614  0.00  0.00     0.140 HD
ATOM     77  H   SGN d 405      -6.498   3.558  52.760  0.00  0.00     0.231 HD
ATOM     78  H   SGN d 405      -5.502   2.249  48.691  0.00  0.00     0.089 H 
ATOM     79  H   SGN d 405      -4.473   1.899  51.318  0.00  0.00     0.210 HD
ATOM     80  H   SGN d 405      -7.095   0.752  48.039  0.00  0.00     0.090 H 
ATOM     81  H   SGN d 405      -8.277   4.799  51.926  0.00  0.00     0.231 HD
ATOM     82  H   SGN d 405      -6.676   2.573  51.434  0.00  0.00     0.076 H 
ATOM     83  H   SGN d 405      -8.887  -1.045  48.601  0.00  0.00     0.080 H 
ATOM     84  H   SGN d 405      -7.300  -1.498  47.990  0.00  0.00     0.080 H 
ATOM     85  H   SGN d 405      -4.233  -0.253  49.852  0.00  0.00     0.210 HD
ATOM     86  H   SGN d 405      -5.872   6.825  50.643  0.00  0.00     0.231 HD
ATOM     87  H   SGN d 405      -6.224   0.213  50.856  0.00  0.00     0.091 H 
ATOM     88  O5S SGN d 403      -7.615   7.808  40.840  0.00  0.00    -0.572 OA
ATOM     89  C3  SGN d 403     -12.355   4.604  43.987  0.00  0.00     0.083 C 
ATOM     90  O5  SGN d 403     -11.870   6.826  42.302  0.00  0.00    -0.349 OA
ATOM     91  S1  SGN d 403     -13.768   2.799  40.936  0.00  0.00     0.156 S 
ATOM     92  O3  SGN d 403     -12.065   3.305  44.408  0.00  0.00    -0.391 OA
ATOM     93  O4S SGN d 403      -7.297   6.302  42.721  0.00  0.00    -0.572 OA
ATOM     94  N   SGN d 403     -13.860   3.764  42.226  0.00  0.00    -0.210 NA
ATOM     95  O4  SGN d 403     -10.892   5.543  45.570  0.00  0.00    -0.348 OA
ATOM     96  O6S SGN d 403      -7.288   8.660  43.021  0.00  0.00    -0.572 OA
ATOM     97  C4  SGN d 403     -11.114   5.457  44.192  0.00  0.00     0.095 C 
ATOM     98  C5  SGN d 403     -11.390   6.872  43.630  0.00  0.00     0.091 C 
ATOM     99  O6  SGN d 403      -9.372   7.481  42.427  0.00  0.00    -0.254 OA
ATOM    100  O1S SGN d 403     -12.952   3.479  39.962  0.00  0.00    -0.296 OA
ATOM    101  C1  SGN d 403     -13.009   6.006  42.079  0.00  0.00     0.150 C 
ATOM    102  O3S SGN d 403     -15.100   2.646  40.459  0.00  0.00    -0.296 OA
ATOM    103  O2S SGN d 403     -13.158   1.575  41.419  0.00  0.00    -0.296 OA
ATOM    104  C2  SGN d 403     -12.713   4.598  42.520  0.00  0.00     0.081 C 
ATOM    105  C6  SGN d 403     -10.156   7.802  43.570  0.00  0.00     0.067 C 
ATOM    106  S2  SGN d 403      -7.799   7.584  42.247  0.00  0.00     0.251 S 
ATOM    107  H   SGN d 403     -13.178   4.995  44.548  0.00  0.00     0.089 H 
ATOM    108  H   SGN d 403     -11.319   2.958  43.896  0.00  0.00     0.210 HD
ATOM    109  H   SGN d 403     -14.024   3.171  43.040  0.00  0.00     0.140 HD
ATOM    110  H   SGN d 403     -10.263   5.036  43.697  0.00  0.00     0.091 H 
ATOM    111  H   SGN d 403     -12.108   7.261  44.322  0.00  0.00     0.090 H 
ATOM    112  H   SGN d 403     -12.050   3.574  40.305  0.00  0.00     0.231 HD
ATOM    113  H   SGN d 403     -13.210   6.044  41.029  0.00  0.00     0.131 H 
ATOM    114  H   SGN d 403     -15.435   3.504  40.155  0.00  0.00     0.231 HD
ATOM    115  H   SGN d 403     -12.256   1.762  41.724  0.00  0.00     0.231 HD
ATOM    116  H   SGN d 403     -11.876   4.192  41.992  0.00  0.00     0.076 H 
ATOM    117  H   SGN d 403      -9.567   7.671  44.453  0.00  0.00     0.080 H 
ATOM    118  H   SGN d 403     -10.480   8.819  43.504  0.00  0.00     0.080 H 
ATOM    119  O62 IDS d 402     -13.104   9.913  43.967  0.00  0.00    -0.646 OA
ATOM    120  C1  IDS d 402     -17.321   8.002  43.548  0.00  0.00     0.161 C 
ATOM    121  O3S IDS d 402     -19.410   5.375  43.244  0.00  0.00    -0.572 OA
ATOM    122  O3  IDS d 402     -16.325   8.369  40.644  0.00  0.00    -0.390 OA
ATOM    123  O5  IDS d 402     -16.087   8.099  44.212  0.00  0.00    -0.340 OA
ATOM    124  O4  IDS d 402     -14.161   6.462  42.732  0.00  0.00    -0.348 OA
ATOM    125  O61 IDS d 402     -13.564   8.358  45.337  0.00  0.00    -0.646 OA
ATOM    126  O1S IDS d 402     -18.111   3.763  42.041  0.00  0.00    -0.572 OA
ATOM    127  O2S IDS d 402     -17.792   4.043  44.374  0.00  0.00    -0.572 OA
ATOM    128  C3  IDS d 402     -15.997   7.282  41.467  0.00  0.00     0.094 C 
ATOM    129  C5  IDS d 402     -15.033   8.603  43.400  0.00  0.00     0.152 C 
ATOM    130  S   IDS d 402     -18.159   4.662  43.162  0.00  0.00     0.252 S 
ATOM    131  C4  IDS d 402     -14.727   7.637  42.232  0.00  0.00     0.103 C 
ATOM    132  C2  IDS d 402     -17.195   7.010  42.393  0.00  0.00     0.134 C 
ATOM    133  C6  IDS d 402     -13.829   8.985  44.289  0.00  0.00     0.206 C 
ATOM    134  O2  IDS d 402     -17.041   5.719  42.913  0.00  0.00    -0.244 OA
ATOM    135  H   IDS d 402     -18.051   7.656  44.250  0.00  0.00     0.133 H 
ATOM    136  H   IDS d 402     -17.132   8.166  40.146  0.00  0.00     0.210 HD
ATOM    137  H   IDS d 402     -15.803   6.388  40.912  0.00  0.00     0.091 H 
ATOM    138  H   IDS d 402     -15.327   9.510  42.914  0.00  0.00     0.104 H 
ATOM    139  H   IDS d 402     -14.046   8.125  41.566  0.00  0.00     0.092 H 
ATOM    140  H   IDS d 402     -18.087   7.117  41.812  0.00  0.00     0.097 H 
ENDROOT
TORSDOF 45
ENDMDL
MODEL 24
REMARK VINA RESULT:      -2.9      4.032      5.688
REMARK  0 active torsions:
REMARK  status: ('A' for Active; 'I' for Inactive)
REMARK       I    between atoms: C5_1  and  C6_64 
REMARK       I    between atoms: C4_2  and  O4_32 
REMARK       I    between atoms: C1_3  and  O4_32 
REMARK       I    between atoms: S1_6  and  N_87 
REMARK       I    between atoms: S1_6  and  O1S_23 
REMARK       I    between atoms: S1_6  and  O2S_31 
REMARK       I    between atoms: S1_6  and  O3S_47 
REMARK       I    between atoms: N_7  and  C2_53 
REMARK       I    between atoms: N_7  and  S1_10 
REMARK       I    between atoms: C3_9  and  O3_14 
REMARK       I    between atoms: S1_10  and  O1S_52 
REMARK       I    between atoms: S1_10  and  O2S_17 
REMARK       I    between atoms: S1_10  and  O3S_80 
REMARK       I    between atoms: C5_12  and  C6_73 
REMARK       I    between atoms: S1_13  and  N_25 
REMARK       I    between atoms: S1_13  and  O1S_58 
REMARK       I    between atoms: S1_13  and  O2S_66 
REMARK       I    between atoms: S1_13  and  O3S_62 
REMARK       I    between atoms: S2_15  and  O6_41 
REMARK       I    between atoms: C3_16  and  O3_48 
REMARK       I    between atoms: C2_18  and  N_87 
REMARK       I    between atoms: C1_19  and  O4_39 
REMARK       I    between atoms: C3_20  and  O3_27 
REMARK       I    between atoms: C1_24  and  O1_84 
REMARK       I    between atoms: N_25  and  C2_78 
REMARK       I    between atoms: O4_28  and  C4_30 
REMARK       I    between atoms: O4_28  and  C1_86 
REMARK       I    between atoms: C2_34  and  O2_59 
REMARK       I    between atoms: O3_35  and  C3_60 
REMARK       I    between atoms: C5_37  and  C6_81 
REMARK       I    between atoms: O4_39  and  C4_79 
REMARK       I    between atoms: O4_40  and  C4_77 
REMARK       I    between atoms: O4_40  and  C1_61 
REMARK       I    between atoms: O6_41  and  C6_57 
REMARK       I    between atoms: O6_45  and  C6_81 
REMARK       I    between atoms: O6_45  and  S2_83 
REMARK       I    between atoms: C3_46  and  O3_72 
REMARK       I    between atoms: C5_50  and  C6_57 
REMARK       I    between atoms: O2_59  and  S_69 
REMARK       I    between atoms: O6_63  and  C6_64 
REMARK       I    between atoms: O6_63  and  S2_70 
REMARK       I    between atoms: C5_67  and  C6_88 
REMARK       I    between atoms: S_71  and  O2_89 
REMARK       I    between atoms: O4_75  and  C4_82 
REMARK       I    between atoms: C2_85  and  O2_89 
ROOT
ATOM      1  C5  SGN d 401      -7.199  -2.361  47.306  0.00  0.00     0.091 C 
ATOM      2  S1  SGN d 401     -12.159  -4.135  49.314  0.00  0.00     0.156 S 
ATOM      3  C3  SGN d 401      -9.682  -2.241  46.869  0.00  0.00     0.083 C 
ATOM      4  C2  SGN d 401      -9.856  -3.176  48.085  0.00  0.00     0.081 C 
ATOM      5  O1S SGN d 401     -11.435  -3.707  50.495  0.00  0.00    -0.296 OA
ATOM      6  C1  SGN d 401      -8.607  -4.070  48.165  0.00  0.00     0.147 C 
ATOM      7  O2S SGN d 401     -13.282  -3.279  49.037  0.00  0.00    -0.296 OA
ATOM      8  O4  SGN d 401      -8.174  -0.719  45.822  0.00  0.00    -0.348 OA
ATOM      9  O4S SGN d 401      -5.150   1.125  48.641  0.00  0.00    -0.572 OA
ATOM     10  O3S SGN d 401     -12.529  -5.533  49.379  0.00  0.00    -0.296 OA
ATOM     11  O3  SGN d 401     -10.770  -1.338  46.797  0.00  0.00    -0.391 OA
ATOM     12  O5  SGN d 401      -7.464  -3.292  48.356  0.00  0.00    -0.350 OA
ATOM     13  O6S SGN d 401      -4.555  -0.411  50.401  0.00  0.00    -0.572 OA
ATOM     14  O6  SGN d 401      -6.368  -0.911  48.925  0.00  0.00    -0.254 OA
ATOM     15  C6  SGN d 401      -5.965  -1.602  47.773  0.00  0.00     0.067 C 
ATOM     16  S2  SGN d 401      -5.620   0.231  49.650  0.00  0.00     0.251 S 
ATOM     17  O5S SGN d 401      -6.622   0.841  50.482  0.00  0.00    -0.572 OA
ATOM     18  C4  SGN d 401      -8.403  -1.413  47.023  0.00  0.00     0.095 C 
ATOM     19  O1  SGN d 401      -8.453  -4.842  46.963  0.00  0.00    -0.369 OA
ATOM     20  N   SGN d 401     -11.109  -4.005  47.998  0.00  0.00    -0.210 NA
ATOM     21  H   SGN d 401      -7.038  -2.856  46.371  0.00  0.00     0.090 H 
ATOM     22  H   SGN d 401      -9.634  -2.845  45.986  0.00  0.00     0.089 H 
ATOM     23  H   SGN d 401      -9.959  -2.587  48.972  0.00  0.00     0.076 H 
ATOM     24  H   SGN d 401     -11.208  -2.767  50.412  0.00  0.00     0.231 HD
ATOM     25  H   SGN d 401      -8.733  -4.733  48.995  0.00  0.00     0.131 H 
ATOM     26  H   SGN d 401     -12.983  -2.357  49.003  0.00  0.00     0.231 HD
ATOM     27  H   SGN d 401     -11.741  -6.068  49.567  0.00  0.00     0.231 HD
ATOM     28  H   SGN d 401     -10.798  -0.800  47.604  0.00  0.00     0.210 HD
ATOM     29  H   SGN d 401      -5.640  -0.915  47.019  0.00  0.00     0.080 H 
ATOM     30  H   SGN d 401      -5.143  -2.258  47.969  0.00  0.00     0.080 H 
ATOM     31  H   SGN d 401      -8.510  -0.725  47.836  0.00  0.00     0.091 H 
ATOM     32  H   SGN d 401      -8.338  -4.245  46.207  0.00  0.00     0.212 HD
ATOM     33  H   SGN d 401     -11.656  -3.623  47.226  0.00  0.00     0.140 HD
ATOM     34  C4  IDS d 404     -10.169  10.003  48.588  0.00  0.00     0.103 C 
ATOM     35  C5  IDS d 404      -9.889   9.795  47.103  0.00  0.00     0.152 C 
ATOM     36  O4  IDS d 404     -10.960  11.151  48.714  0.00  0.00    -0.348 OA
ATOM     37  O5  IDS d 404     -11.038   9.377  46.401  0.00  0.00    -0.340 OA
ATOM     38  C2  IDS d 404     -11.926   8.114  48.337  0.00  0.00     0.134 C 
ATOM     39  O62 IDS d 404      -8.153  11.178  46.231  0.00  0.00    -0.646 OA
ATOM     40  C3  IDS d 404     -10.888   8.792  49.245  0.00  0.00     0.094 C 
ATOM     41  O2  IDS d 404     -13.192   8.758  48.534  0.00  0.00    -0.244 OA
ATOM     42  O1S IDS d 404     -14.815   7.327  49.470  0.00  0.00    -0.572 OA
ATOM     43  O2S IDS d 404     -15.522   9.157  48.118  0.00  0.00    -0.572 OA
ATOM     44  S   IDS d 404     -14.586   8.095  48.314  0.00  0.00     0.252 S 
ATOM     45  O3  IDS d 404      -9.922   7.821  49.569  0.00  0.00    -0.390 OA
ATOM     46  C6  IDS d 404      -9.342  11.053  46.466  0.00  0.00     0.206 C 
ATOM     47  O3S IDS d 404     -14.458   7.244  47.189  0.00  0.00    -0.572 OA
ATOM     48  C1  IDS d 404     -11.561   8.113  46.826  0.00  0.00     0.161 C 
ATOM     49  O61 IDS d 404     -10.095  11.981  46.208  0.00  0.00    -0.646 OA
ATOM     50  H   IDS d 404      -9.235  10.108  49.099  0.00  0.00     0.092 H 
ATOM     51  H   IDS d 404      -9.154   9.020  47.040  0.00  0.00     0.104 H 
ATOM     52  H   IDS d 404     -11.958   7.083  48.620  0.00  0.00     0.097 H 
ATOM     53  H   IDS d 404     -11.404   9.176  50.099  0.00  0.00     0.091 H 
ATOM     54  H   IDS d 404      -9.489   7.511  48.757  0.00  0.00     0.210 HD
ATOM     55  H   IDS d 404     -12.454   7.959  46.258  0.00  0.00     0.133 H 
ATOM     56  C1  SGN d 405     -10.495  12.098  49.631  0.00  0.00     0.150 C 
ATOM     57  O6S SGN d 405      -7.383  14.409  50.736  0.00  0.00    -0.572 OA
ATOM     58  N   SGN d 405     -12.861  12.145  50.258  0.00  0.00    -0.210 NA
ATOM     59  S1  SGN d 405     -13.351  11.834  51.759  0.00  0.00     0.156 S 
ATOM     60  S2  SGN d 405      -6.867  15.449  49.852  0.00  0.00     0.251 S 
ATOM     61  O2S SGN d 405     -13.052  13.021  52.522  0.00  0.00    -0.296 OA
ATOM     62  C3  SGN d 405     -11.945  14.110  49.103  0.00  0.00     0.083 C 
ATOM     63  O5  SGN d 405      -9.357  12.857  49.162  0.00  0.00    -0.349 OA
ATOM     64  O3  SGN d 405     -12.932  14.966  49.647  0.00  0.00    -0.391 OA
ATOM     65  O6  SGN d 405      -7.901  15.597  48.642  0.00  0.00    -0.254 OA
ATOM     66  O5S SGN d 405      -6.801  16.748  50.476  0.00  0.00    -0.572 OA
ATOM     67  C5  SGN d 405      -9.666  13.937  48.238  0.00  0.00     0.090 C 
ATOM     68  O4S SGN d 405      -5.621  15.082  49.278  0.00  0.00    -0.572 OA
ATOM     69  O1S SGN d 405     -12.591  10.689  52.189  0.00  0.00    -0.296 OA
ATOM     70  C2  SGN d 405     -11.672  12.975  50.085  0.00  0.00     0.081 C 
ATOM     71  C6  SGN d 405      -8.346  14.587  47.744  0.00  0.00     0.067 C 
ATOM     72  O4  SGN d 405     -10.879  16.034  48.090  0.00  0.00    -0.390 OA
ATOM     73  O3S SGN d 405     -14.743  11.527  51.716  0.00  0.00    -0.296 OA
ATOM     74  C4  SGN d 405     -10.635  14.898  48.916  0.00  0.00     0.089 C 
ATOM     75  H   SGN d 405     -10.107  11.577  50.481  0.00  0.00     0.131 H 
ATOM     76  H   SGN d 405     -12.673  11.249  49.808  0.00  0.00     0.140 HD
ATOM     77  H   SGN d 405     -12.095  13.177  52.515  0.00  0.00     0.231 HD
ATOM     78  H   SGN d 405     -12.289  13.726  48.166  0.00  0.00     0.089 H 
ATOM     79  H   SGN d 405     -12.624  15.316  50.497  0.00  0.00     0.210 HD
ATOM     80  H   SGN d 405     -10.160  13.582  47.357  0.00  0.00     0.090 H 
ATOM     81  H   SGN d 405     -11.648  10.917  52.212  0.00  0.00     0.231 HD
ATOM     82  H   SGN d 405     -11.413  13.424  51.020  0.00  0.00     0.076 H 
ATOM     83  H   SGN d 405      -7.592  13.832  47.668  0.00  0.00     0.080 H 
ATOM     84  H   SGN d 405      -8.527  15.037  46.791  0.00  0.00     0.080 H 
ATOM     85  H   SGN d 405     -11.497  16.632  48.538  0.00  0.00     0.210 HD
ATOM     86  H   SGN d 405     -14.881  10.723  51.191  0.00  0.00     0.231 HD
ATOM     87  H   SGN d 405     -10.238  15.253  49.844  0.00  0.00     0.091 H 
ATOM     88  O5S SGN d 403     -14.983   6.387  42.174  0.00  0.00    -0.572 OA
ATOM     89  C3  SGN d 403      -9.083   6.366  44.973  0.00  0.00     0.083 C 
ATOM     90  O5  SGN d 403     -11.041   4.672  43.829  0.00  0.00    -0.349 OA
ATOM     91  S1  SGN d 403      -7.071   5.948  41.757  0.00  0.00     0.156 S 
ATOM     92  O3  SGN d 403      -8.410   7.587  45.033  0.00  0.00    -0.391 OA
ATOM     93  O4S SGN d 403     -14.081   8.146  43.589  0.00  0.00    -0.572 OA
ATOM     94  N   SGN d 403      -7.540   5.530  43.243  0.00  0.00    -0.210 NA
ATOM     95  O4  SGN d 403     -10.674   7.057  46.559  0.00  0.00    -0.348 OA
ATOM     96  O6S SGN d 403     -15.621   6.550  44.445  0.00  0.00    -0.572 OA
ATOM     97  C4  SGN d 403     -10.558   6.623  45.235  0.00  0.00     0.095 C 
ATOM     98  C5  SGN d 403     -11.328   5.292  45.065  0.00  0.00     0.091 C 
ATOM     99  O6  SGN d 403     -13.331   5.873  43.824  0.00  0.00    -0.254 OA
ATOM    100  O1S SGN d 403      -8.205   5.751  40.889  0.00  0.00    -0.296 OA
ATOM    101  C1  SGN d 403      -9.666   4.454  43.545  0.00  0.00     0.150 C 
ATOM    102  O3S SGN d 403      -6.011   5.064  41.411  0.00  0.00    -0.296 OA
ATOM    103  O2S SGN d 403      -6.683   7.342  41.859  0.00  0.00    -0.296 OA
ATOM    104  C2  SGN d 403      -8.925   5.762  43.598  0.00  0.00     0.081 C 
ATOM    105  C6  SGN d 403     -12.869   5.422  45.092  0.00  0.00     0.067 C 
ATOM    106  S2  SGN d 403     -14.589   6.784  43.498  0.00  0.00     0.251 S 
ATOM    107  H   SGN d 403      -8.682   5.691  45.700  0.00  0.00     0.089 H 
ATOM    108  H   SGN d 403      -8.778   8.192  44.372  0.00  0.00     0.210 HD
ATOM    109  H   SGN d 403      -6.963   6.052  43.903  0.00  0.00     0.140 HD
ATOM    110  H   SGN d 403     -10.954   7.354  44.560  0.00  0.00     0.091 H 
ATOM    111  H   SGN d 403     -10.995   4.721  45.907  0.00  0.00     0.090 H 
ATOM    112  H   SGN d 403      -8.915   6.361  41.141  0.00  0.00     0.231 HD
ATOM    113  H   SGN d 403      -9.622   4.027  42.564  0.00  0.00     0.131 H 
ATOM    114  H   SGN d 403      -6.350   4.157  41.362  0.00  0.00     0.231 HD
ATOM    115  H   SGN d 403      -7.456   7.877  42.096  0.00  0.00     0.231 HD
ATOM    116  H   SGN d 403      -9.323   6.464  42.896  0.00  0.00     0.076 H 
ATOM    117  H   SGN d 403     -13.154   6.126  45.845  0.00  0.00     0.080 H 
ATOM    118  H   SGN d 403     -13.303   4.469  45.310  0.00  0.00     0.080 H 
ATOM    119  O62 IDS d 402     -12.028   2.091  46.316  0.00  0.00    -0.646 OA
ATOM    120  C1  IDS d 402      -7.646   0.584  45.929  0.00  0.00     0.161 C 
ATOM    121  O3S IDS d 402      -4.375   1.009  45.240  0.00  0.00    -0.572 OA
ATOM    122  O3  IDS d 402      -8.858   0.236  43.105  0.00  0.00    -0.390 OA
ATOM    123  O5  IDS d 402      -8.582   1.492  46.453  0.00  0.00    -0.340 OA
ATOM    124  O4  IDS d 402      -9.056   3.541  44.415  0.00  0.00    -0.348 OA
ATOM    125  O61 IDS d 402     -10.552   3.245  47.314  0.00  0.00    -0.646 OA
ATOM    126  O1S IDS d 402      -4.375   2.700  43.545  0.00  0.00    -0.572 OA
ATOM    127  O2S IDS d 402      -4.619   3.304  45.825  0.00  0.00    -0.572 OA
ATOM    128  C3  IDS d 402      -8.322   1.434  43.600  0.00  0.00     0.094 C 
ATOM    129  C5  IDS d 402      -9.765   1.616  45.672  0.00  0.00     0.152 C 
ATOM    130  S   IDS d 402      -4.847   2.315  44.848  0.00  0.00     0.252 S 
ATOM    131  C4  IDS d 402      -9.446   2.207  44.279  0.00  0.00     0.103 C 
ATOM    132  C2  IDS d 402      -7.176   1.079  44.563  0.00  0.00     0.134 C 
ATOM    133  C6  IDS d 402     -10.848   2.358  46.485  0.00  0.00     0.206 C 
ATOM    134  O2  IDS d 402      -6.399   2.231  44.736  0.00  0.00    -0.244 OA
ATOM    135  H   IDS d 402      -6.819   0.532  46.605  0.00  0.00     0.133 H 
ATOM    136  H   IDS d 402      -8.159  -0.275  42.668  0.00  0.00     0.210 HD
ATOM    137  H   IDS d 402      -7.919   2.055  42.827  0.00  0.00     0.091 H 
ATOM    138  H   IDS d 402     -10.181   0.654  45.455  0.00  0.00     0.104 H 
ATOM    139  H   IDS d 402     -10.329   2.136  43.678  0.00  0.00     0.092 H 
ATOM    140  H   IDS d 402      -6.624   0.271  44.129  0.00  0.00     0.097 H 
ENDROOT
TORSDOF 45
ENDMDL
MODEL 25
REMARK VINA RESULT:      -2.8      3.273      4.835
REMARK  0 active torsions:
REMARK  status: ('A' for Active; 'I' for Inactive)
REMARK       I    between atoms: C5_1  and  C6_64 
REMARK       I    between atoms: C4_2  and  O4_32 
REMARK       I    between atoms: C1_3  and  O4_32 
REMARK       I    between atoms: S1_6  and  N_87 
REMARK       I    between atoms: S1_6  and  O1S_23 
REMARK       I    between atoms: S1_6  and  O2S_31 
REMARK       I    between atoms: S1_6  and  O3S_47 
REMARK       I    between atoms: N_7  and  C2_53 
REMARK       I    between atoms: N_7  and  S1_10 
REMARK       I    between atoms: C3_9  and  O3_14 
REMARK       I    between atoms: S1_10  and  O1S_52 
REMARK       I    between atoms: S1_10  and  O2S_17 
REMARK       I    between atoms: S1_10  and  O3S_80 
REMARK       I    between atoms: C5_12  and  C6_73 
REMARK       I    between atoms: S1_13  and  N_25 
REMARK       I    between atoms: S1_13  and  O1S_58 
REMARK       I    between atoms: S1_13  and  O2S_66 
REMARK       I    between atoms: S1_13  and  O3S_62 
REMARK       I    between atoms: S2_15  and  O6_41 
REMARK       I    between atoms: C3_16  and  O3_48 
REMARK       I    between atoms: C2_18  and  N_87 
REMARK       I    between atoms: C1_19  and  O4_39 
REMARK       I    between atoms: C3_20  and  O3_27 
REMARK       I    between atoms: C1_24  and  O1_84 
REMARK       I    between atoms: N_25  and  C2_78 
REMARK       I    between atoms: O4_28  and  C4_30 
REMARK       I    between atoms: O4_28  and  C1_86 
REMARK       I    between atoms: C2_34  and  O2_59 
REMARK       I    between atoms: O3_35  and  C3_60 
REMARK       I    between atoms: C5_37  and  C6_81 
REMARK       I    between atoms: O4_39  and  C4_79 
REMARK       I    between atoms: O4_40  and  C4_77 
REMARK       I    between atoms: O4_40  and  C1_61 
REMARK       I    between atoms: O6_41  and  C6_57 
REMARK       I    between atoms: O6_45  and  C6_81 
REMARK       I    between atoms: O6_45  and  S2_83 
REMARK       I    between atoms: C3_46  and  O3_72 
REMARK       I    between atoms: C5_50  and  C6_57 
REMARK       I    between atoms: O2_59  and  S_69 
REMARK       I    between atoms: O6_63  and  C6_64 
REMARK       I    between atoms: O6_63  and  S2_70 
REMARK       I    between atoms: C5_67  and  C6_88 
REMARK       I    between atoms: S_71  and  O2_89 
REMARK       I    between atoms: O4_75  and  C4_82 
REMARK       I    between atoms: C2_85  and  O2_89 
ROOT
ATOM      1  C5  SGN d 401     -17.293  -4.992  49.688  0.00  0.00     0.091 C 
ATOM      2  S1  SGN d 401     -20.325  -2.758  53.884  0.00  0.00     0.156 S 
ATOM      3  C3  SGN d 401     -19.000  -3.197  50.175  0.00  0.00     0.083 C 
ATOM      4  C2  SGN d 401     -18.996  -3.708  51.632  0.00  0.00     0.081 C 
ATOM      5  O1S SGN d 401     -18.999  -2.913  54.452  0.00  0.00    -0.296 OA
ATOM      6  C1  SGN d 401     -18.692  -5.214  51.594  0.00  0.00     0.147 C 
ATOM      7  O2S SGN d 401     -20.677  -1.373  53.724  0.00  0.00    -0.296 OA
ATOM      8  O4  SGN d 401     -17.746  -3.183  48.146  0.00  0.00    -0.348 OA
ATOM      9  O4S SGN d 401     -13.306  -3.861  48.710  0.00  0.00    -0.572 OA
ATOM     10  O3S SGN d 401     -21.323  -3.505  54.620  0.00  0.00    -0.296 OA
ATOM     11  O3  SGN d 401     -19.195  -1.795  50.158  0.00  0.00    -0.391 OA
ATOM     12  O5  SGN d 401     -17.433  -5.442  51.035  0.00  0.00    -0.350 OA
ATOM     13  O6S SGN d 401     -12.880  -5.320  50.581  0.00  0.00    -0.572 OA
ATOM     14  O6  SGN d 401     -15.081  -4.471  50.188  0.00  0.00    -0.254 OA
ATOM     15  C6  SGN d 401     -15.841  -5.286  49.337  0.00  0.00     0.067 C 
ATOM     16  S2  SGN d 401     -13.574  -4.144  50.083  0.00  0.00     0.251 S 
ATOM     17  O5S SGN d 401     -13.402  -2.982  50.912  0.00  0.00    -0.572 OA
ATOM     18  C4  SGN d 401     -17.647  -3.483  49.517  0.00  0.00     0.095 C 
ATOM     19  O1  SGN d 401     -19.681  -5.917  50.823  0.00  0.00    -0.369 OA
ATOM     20  N   SGN d 401     -20.298  -3.438  52.338  0.00  0.00    -0.210 NA
ATOM     21  H   SGN d 401     -17.976  -5.491  49.032  0.00  0.00     0.090 H 
ATOM     22  H   SGN d 401     -19.787  -3.694  49.647  0.00  0.00     0.089 H 
ATOM     23  H   SGN d 401     -18.249  -3.183  52.189  0.00  0.00     0.076 H 
ATOM     24  H   SGN d 401     -18.362  -2.398  53.932  0.00  0.00     0.231 HD
ATOM     25  H   SGN d 401     -18.709  -5.577  52.601  0.00  0.00     0.131 H 
ATOM     26  H   SGN d 401     -19.980  -0.918  53.227  0.00  0.00     0.231 HD
ATOM     27  H   SGN d 401     -21.040  -4.430  54.701  0.00  0.00     0.231 HD
ATOM     28  H   SGN d 401     -18.474  -1.361  50.641  0.00  0.00     0.210 HD
ATOM     29  H   SGN d 401     -15.646  -5.042  48.313  0.00  0.00     0.080 H 
ATOM     30  H   SGN d 401     -15.603  -6.322  49.460  0.00  0.00     0.080 H 
ATOM     31  H   SGN d 401     -16.885  -2.887  49.974  0.00  0.00     0.091 H 
ATOM     32  H   SGN d 401     -19.669  -5.593  49.909  0.00  0.00     0.212 HD
ATOM     33  H   SGN d 401     -20.830  -2.809  51.736  0.00  0.00     0.140 HD
ATOM     34  C4  IDS d 404     -11.352   6.006  47.025  0.00  0.00     0.103 C 
ATOM     35  C5  IDS d 404     -12.089   5.613  45.748  0.00  0.00     0.152 C 
ATOM     36  O4  IDS d 404     -11.117   7.385  46.970  0.00  0.00    -0.348 OA
ATOM     37  O5  IDS d 404     -13.417   6.086  45.736  0.00  0.00    -0.340 OA
ATOM     38  C2  IDS d 404     -13.663   5.858  48.189  0.00  0.00     0.134 C 
ATOM     39  O62 IDS d 404     -10.680   5.373  43.838  0.00  0.00    -0.646 OA
ATOM     40  C3  IDS d 404     -12.144   5.656  48.314  0.00  0.00     0.094 C 
ATOM     41  O2  IDS d 404     -13.974   7.206  48.565  0.00  0.00    -0.244 OA
ATOM     42  O1S IDS d 404     -15.306   7.335  50.506  0.00  0.00    -0.572 OA
ATOM     43  O2S IDS d 404     -15.415   9.096  48.906  0.00  0.00    -0.572 OA
ATOM     44  S   IDS d 404     -15.339   7.690  49.145  0.00  0.00     0.252 S 
ATOM     45  O3  IDS d 404     -11.930   4.298  48.616  0.00  0.00    -0.390 OA
ATOM     46  C6  IDS d 404     -11.366   6.116  44.519  0.00  0.00     0.206 C 
ATOM     47  O3S IDS d 404     -16.348   6.951  48.481  0.00  0.00    -0.572 OA
ATOM     48  C1  IDS d 404     -14.242   5.553  46.779  0.00  0.00     0.161 C 
ATOM     49  O61 IDS d 404     -11.438   7.297  44.213  0.00  0.00    -0.646 OA
ATOM     50  H   IDS d 404     -10.439   5.451  47.075  0.00  0.00     0.092 H 
ATOM     51  H   IDS d 404     -12.111   4.543  45.730  0.00  0.00     0.104 H 
ATOM     52  H   IDS d 404     -14.125   5.148  48.843  0.00  0.00     0.097 H 
ATOM     53  H   IDS d 404     -11.789   6.319  49.074  0.00  0.00     0.091 H 
ATOM     54  H   IDS d 404     -12.271   3.747  47.893  0.00  0.00     0.210 HD
ATOM     55  H   IDS d 404     -15.188   6.043  46.684  0.00  0.00     0.133 H 
ATOM     56  C1  SGN d 405      -9.795   7.774  47.206  0.00  0.00     0.150 C 
ATOM     57  O6S SGN d 405      -5.945   7.315  46.106  0.00  0.00    -0.572 OA
ATOM     58  N   SGN d 405     -10.904   9.471  48.580  0.00  0.00    -0.210 NA
ATOM     59  S1  SGN d 405     -10.588   9.637  50.148  0.00  0.00     0.156 S 
ATOM     60  S2  SGN d 405      -5.498   7.675  44.764  0.00  0.00     0.251 S 
ATOM     61  O2S SGN d 405      -9.314  10.309  50.222  0.00  0.00    -0.296 OA
ATOM     62  C3  SGN d 405      -9.821  10.210  46.502  0.00  0.00     0.083 C 
ATOM     63  O5  SGN d 405      -8.902   7.515  46.099  0.00  0.00    -0.349 OA
ATOM     64  O3  SGN d 405      -9.653  11.529  46.987  0.00  0.00    -0.391 OA
ATOM     65  O6  SGN d 405      -6.701   8.458  44.059  0.00  0.00    -0.254 OA
ATOM     66  O5S SGN d 405      -4.378   8.584  44.760  0.00  0.00    -0.572 OA
ATOM     67  C5  SGN d 405      -8.966   8.475  45.009  0.00  0.00     0.090 C 
ATOM     68  O4S SGN d 405      -5.241   6.527  43.968  0.00  0.00    -0.572 OA
ATOM     69  O1S SGN d 405     -10.544   8.300  50.683  0.00  0.00    -0.296 OA
ATOM     70  C2  SGN d 405      -9.781   9.237  47.676  0.00  0.00     0.081 C 
ATOM     71  C6  SGN d 405      -8.035   8.010  43.857  0.00  0.00     0.067 C 
ATOM     72  O4  SGN d 405      -8.594  10.820  44.506  0.00  0.00    -0.390 OA
ATOM     73  O3S SGN d 405     -11.652  10.381  50.738  0.00  0.00    -0.296 OA
ATOM     74  C4  SGN d 405      -8.655   9.862  45.559  0.00  0.00     0.089 C 
ATOM     75  H   SGN d 405      -9.400   7.159  47.988  0.00  0.00     0.131 H 
ATOM     76  H   SGN d 405     -11.542   8.681  48.481  0.00  0.00     0.140 HD
ATOM     77  H   SGN d 405      -8.632   9.757  49.806  0.00  0.00     0.231 HD
ATOM     78  H   SGN d 405     -10.755  10.141  45.985  0.00  0.00     0.089 H 
ATOM     79  H   SGN d 405      -8.808  11.595  47.457  0.00  0.00     0.210 HD
ATOM     80  H   SGN d 405      -9.946   8.533  44.582  0.00  0.00     0.090 H 
ATOM     81  H   SGN d 405      -9.815   7.811  50.270  0.00  0.00     0.231 HD
ATOM     82  H   SGN d 405      -8.863   9.412  48.197  0.00  0.00     0.076 H 
ATOM     83  H   SGN d 405      -8.041   6.941  43.813  0.00  0.00     0.080 H 
ATOM     84  H   SGN d 405      -8.397   8.427  42.941  0.00  0.00     0.080 H 
ATOM     85  H   SGN d 405      -8.395  11.694  44.876  0.00  0.00     0.210 HD
ATOM     86  H   SGN d 405     -12.479   9.880  50.659  0.00  0.00     0.231 HD
ATOM     87  H   SGN d 405      -7.710   9.873  46.061  0.00  0.00     0.091 H 
ATOM     88  O5S SGN d 403     -19.838   6.530  44.766  0.00  0.00    -0.572 OA
ATOM     89  C3  SGN d 403     -14.693   2.515  44.992  0.00  0.00     0.083 C 
ATOM     90  O5  SGN d 403     -17.492   2.617  45.399  0.00  0.00    -0.349 OA
ATOM     91  S1  SGN d 403     -15.397   0.711  41.704  0.00  0.00     0.156 S 
ATOM     92  O3  SGN d 403     -13.541   2.928  44.322  0.00  0.00    -0.391 OA
ATOM     93  O4S SGN d 403     -17.513   7.217  44.947  0.00  0.00    -0.572 OA
ATOM     94  N   SGN d 403     -15.136   0.785  43.294  0.00  0.00    -0.210 NA
ATOM     95  O4  SGN d 403     -14.439   4.169  46.643  0.00  0.00    -0.348 OA
ATOM     96  O6S SGN d 403     -18.931   7.166  46.854  0.00  0.00    -0.572 OA
ATOM     97  C4  SGN d 403     -15.322   3.732  45.651  0.00  0.00     0.095 C 
ATOM     98  C5  SGN d 403     -16.656   3.303  46.307  0.00  0.00     0.091 C 
ATOM     99  O6  SGN d 403     -18.228   5.070  45.760  0.00  0.00    -0.254 OA
ATOM    100  O1S SGN d 403     -16.677   1.326  41.460  0.00  0.00    -0.296 OA
ATOM    101  C1  SGN d 403     -16.915   1.497  44.744  0.00  0.00     0.150 C 
ATOM    102  O3S SGN d 403     -15.430  -0.672  41.371  0.00  0.00    -0.296 OA
ATOM    103  O2S SGN d 403     -14.300   1.447  41.104  0.00  0.00    -0.296 OA
ATOM    104  C2  SGN d 403     -15.674   1.925  44.008  0.00  0.00     0.081 C 
ATOM    105  C6  SGN d 403     -17.524   4.467  46.840  0.00  0.00     0.067 C 
ATOM    106  S2  SGN d 403     -18.660   6.587  45.586  0.00  0.00     0.251 S 
ATOM    107  H   SGN d 403     -14.444   1.776  45.725  0.00  0.00     0.089 H 
ATOM    108  H   SGN d 403     -13.775   3.597  43.660  0.00  0.00     0.210 HD
ATOM    109  H   SGN d 403     -14.126   0.783  43.439  0.00  0.00     0.140 HD
ATOM    110  H   SGN d 403     -15.508   4.510  44.939  0.00  0.00     0.091 H 
ATOM    111  H   SGN d 403     -16.328   2.690  47.121  0.00  0.00     0.090 H 
ATOM    112  H   SGN d 403     -16.634   2.267  41.693  0.00  0.00     0.231 HD
ATOM    113  H   SGN d 403     -17.655   1.126  44.066  0.00  0.00     0.131 H 
ATOM    114  H   SGN d 403     -16.188  -1.091  41.808  0.00  0.00     0.231 HD
ATOM    115  H   SGN d 403     -14.347   2.377  41.378  0.00  0.00     0.231 HD
ATOM    116  H   SGN d 403     -15.893   2.683  43.285  0.00  0.00     0.076 H 
ATOM    117  H   SGN d 403     -16.895   5.197  47.306  0.00  0.00     0.080 H 
ATOM    118  H   SGN d 403     -18.225   4.090  47.555  0.00  0.00     0.080 H 
ATOM    119  O62 IDS d 402     -18.263   1.529  48.870  0.00  0.00    -0.646 OA
ATOM    120  C1  IDS d 402     -16.613  -2.609  47.536  0.00  0.00     0.161 C 
ATOM    121  O3S IDS d 402     -14.703  -4.596  45.596  0.00  0.00    -0.572 OA
ATOM    122  O3  IDS d 402     -19.070  -2.113  45.726  0.00  0.00    -0.390 OA
ATOM    123  O5  IDS d 402     -16.393  -1.289  47.965  0.00  0.00    -0.340 OA
ATOM    124  O4  IDS d 402     -16.597   0.446  45.614  0.00  0.00    -0.348 OA
ATOM    125  O61 IDS d 402     -16.151   1.368  48.726  0.00  0.00    -0.646 OA
ATOM    126  O1S IDS d 402     -14.635  -3.436  43.503  0.00  0.00    -0.572 OA
ATOM    127  O2S IDS d 402     -13.224  -2.756  45.284  0.00  0.00    -0.572 OA
ATOM    128  C3  IDS d 402     -17.785  -1.606  45.480  0.00  0.00     0.094 C 
ATOM    129  C5  IDS d 402     -17.473  -0.405  47.687  0.00  0.00     0.152 C 
ATOM    130  S   IDS d 402     -14.455  -3.342  44.927  0.00  0.00     0.252 S 
ATOM    131  C4  IDS d 402     -17.678  -0.248  46.162  0.00  0.00     0.103 C 
ATOM    132  C2  IDS d 402     -16.764  -2.625  46.016  0.00  0.00     0.134 C 
ATOM    133  C6  IDS d 402     -17.286   0.908  48.479  0.00  0.00     0.206 C 
ATOM    134  O2  IDS d 402     -15.527  -2.329  45.430  0.00  0.00    -0.244 OA
ATOM    135  H   IDS d 402     -15.768  -3.198  47.827  0.00  0.00     0.133 H 
ATOM    136  H   IDS d 402     -19.162  -2.980  45.300  0.00  0.00     0.210 HD
ATOM    137  H   IDS d 402     -17.590  -1.465  44.438  0.00  0.00     0.091 H 
ATOM    138  H   IDS d 402     -18.400  -0.815  48.031  0.00  0.00     0.104 H 
ATOM    139  H   IDS d 402     -18.587   0.293  46.003  0.00  0.00     0.092 H 
ATOM    140  H   IDS d 402     -17.117  -3.603  45.764  0.00  0.00     0.097 H 
ENDROOT
TORSDOF 45
ENDMDL
MODEL 26
REMARK VINA RESULT:      -2.6      5.925     10.015
REMARK  0 active torsions:
REMARK  status: ('A' for Active; 'I' for Inactive)
REMARK       I    between atoms: C5_1  and  C6_64 
REMARK       I    between atoms: C4_2  and  O4_32 
REMARK       I    between atoms: C1_3  and  O4_32 
REMARK       I    between atoms: S1_6  and  N_87 
REMARK       I    between atoms: S1_6  and  O1S_23 
REMARK       I    between atoms: S1_6  and  O2S_31 
REMARK       I    between atoms: S1_6  and  O3S_47 
REMARK       I    between atoms: N_7  and  C2_53 
REMARK       I    between atoms: N_7  and  S1_10 
REMARK       I    between atoms: C3_9  and  O3_14 
REMARK       I    between atoms: S1_10  and  O1S_52 
REMARK       I    between atoms: S1_10  and  O2S_17 
REMARK       I    between atoms: S1_10  and  O3S_80 
REMARK       I    between atoms: C5_12  and  C6_73 
REMARK       I    between atoms: S1_13  and  N_25 
REMARK       I    between atoms: S1_13  and  O1S_58 
REMARK       I    between atoms: S1_13  and  O2S_66 
REMARK       I    between atoms: S1_13  and  O3S_62 
REMARK       I    between atoms: S2_15  and  O6_41 
REMARK       I    between atoms: C3_16  and  O3_48 
REMARK       I    between atoms: C2_18  and  N_87 
REMARK       I    between atoms: C1_19  and  O4_39 
REMARK       I    between atoms: C3_20  and  O3_27 
REMARK       I    between atoms: C1_24  and  O1_84 
REMARK       I    between atoms: N_25  and  C2_78 
REMARK       I    between atoms: O4_28  and  C4_30 
REMARK       I    between atoms: O4_28  and  C1_86 
REMARK       I    between atoms: C2_34  and  O2_59 
REMARK       I    between atoms: O3_35  and  C3_60 
REMARK       I    between atoms: C5_37  and  C6_81 
REMARK       I    between atoms: O4_39  and  C4_79 
REMARK       I    between atoms: O4_40  and  C4_77 
REMARK       I    between atoms: O4_40  and  C1_61 
REMARK       I    between atoms: O6_41  and  C6_57 
REMARK       I    between atoms: O6_45  and  C6_81 
REMARK       I    between atoms: O6_45  and  S2_83 
REMARK       I    between atoms: C3_46  and  O3_72 
REMARK       I    between atoms: C5_50  and  C6_57 
REMARK       I    between atoms: O2_59  and  S_69 
REMARK       I    between atoms: O6_63  and  C6_64 
REMARK       I    between atoms: O6_63  and  S2_70 
REMARK       I    between atoms: C5_67  and  C6_88 
REMARK       I    between atoms: S_71  and  O2_89 
REMARK       I    between atoms: O4_75  and  C4_82 
REMARK       I    between atoms: C2_85  and  O2_89 
ROOT
ATOM      1  C5  SGN d 401      -5.795  -5.176  49.433  0.00  0.00     0.091 C 
ATOM      2  S1  SGN d 401      -8.940  -7.134  53.683  0.00  0.00     0.156 S 
ATOM      3  C3  SGN d 401      -7.913  -6.463  49.915  0.00  0.00     0.083 C 
ATOM      4  C2  SGN d 401      -7.551  -6.332  51.410  0.00  0.00     0.081 C 
ATOM      5  O1S SGN d 401      -8.597  -5.785  54.092  0.00  0.00    -0.296 OA
ATOM      6  C1  SGN d 401      -6.017  -6.297  51.515  0.00  0.00     0.147 C 
ATOM      7  O2S SGN d 401     -10.345  -7.266  53.404  0.00  0.00    -0.296 OA
ATOM      8  O4  SGN d 401      -7.500  -5.538  47.756  0.00  0.00    -0.348 OA
ATOM      9  O4S SGN d 401      -6.070  -1.243  47.825  0.00  0.00    -0.572 OA
ATOM     10  O3S SGN d 401      -8.464  -8.125  54.625  0.00  0.00    -0.296 OA
ATOM     11  O3  SGN d 401      -9.318  -6.418  49.755  0.00  0.00    -0.391 OA
ATOM     12  O5  SGN d 401      -5.509  -5.191  50.831  0.00  0.00    -0.350 OA
ATOM     13  O6S SGN d 401      -4.743  -0.801  49.788  0.00  0.00    -0.572 OA
ATOM     14  O6  SGN d 401      -5.943  -2.859  49.580  0.00  0.00    -0.254 OA
ATOM     15  C6  SGN d 401      -5.205  -3.863  48.937  0.00  0.00     0.067 C 
ATOM     16  S2  SGN d 401      -5.974  -1.351  49.245  0.00  0.00     0.251 S 
ATOM     17  O5S SGN d 401      -7.158  -0.864  49.900  0.00  0.00    -0.572 OA
ATOM     18  C4  SGN d 401      -7.320  -5.291  49.129  0.00  0.00     0.095 C 
ATOM     19  O1  SGN d 401      -5.439  -7.494  50.967  0.00  0.00    -0.369 OA
ATOM     20  N   SGN d 401      -8.123  -7.451  52.240  0.00  0.00    -0.210 NA
ATOM     21  H   SGN d 401      -5.371  -6.023  48.935  0.00  0.00     0.090 H 
ATOM     22  H   SGN d 401      -7.521  -7.392  49.555  0.00  0.00     0.089 H 
ATOM     23  H   SGN d 401      -7.979  -5.433  51.800  0.00  0.00     0.076 H 
ATOM     24  H   SGN d 401      -8.934  -5.153  53.436  0.00  0.00     0.231 HD
ATOM     25  H   SGN d 401      -5.762  -6.227  52.552  0.00  0.00     0.131 H 
ATOM     26  H   SGN d 401     -10.614  -6.582  52.771  0.00  0.00     0.231 HD
ATOM     27  H   SGN d 401      -7.515  -7.995  54.780  0.00  0.00     0.231 HD
ATOM     28  H   SGN d 401      -9.655  -5.570  50.086  0.00  0.00     0.210 HD
ATOM     29  H   SGN d 401      -5.310  -3.783  47.875  0.00  0.00     0.080 H 
ATOM     30  H   SGN d 401      -4.159  -3.790  49.152  0.00  0.00     0.080 H 
ATOM     31  H   SGN d 401      -7.805  -4.380  49.410  0.00  0.00     0.091 H 
ATOM     32  H   SGN d 401      -5.667  -7.561  50.027  0.00  0.00     0.212 HD
ATOM     33  H   SGN d 401      -8.779  -7.951  51.639  0.00  0.00     0.140 HD
ATOM     34  C4  IDS d 404     -15.200   2.089  44.732  0.00  0.00     0.103 C 
ATOM     35  C5  IDS d 404     -14.830   1.116  43.616  0.00  0.00     0.152 C 
ATOM     36  O4  IDS d 404     -16.500   2.545  44.482  0.00  0.00    -0.348 OA
ATOM     37  O5  IDS d 404     -15.537  -0.100  43.717  0.00  0.00    -0.340 OA
ATOM     38  C2  IDS d 404     -15.593  -0.016  46.191  0.00  0.00     0.134 C 
ATOM     39  O62 IDS d 404     -14.153   2.167  41.585  0.00  0.00    -0.646 OA
ATOM     40  C3  IDS d 404     -15.126   1.447  46.144  0.00  0.00     0.094 C 
ATOM     41  O2  IDS d 404     -17.005  -0.036  46.439  0.00  0.00    -0.244 OA
ATOM     42  O1S IDS d 404     -17.562  -1.026  48.505  0.00  0.00    -0.572 OA
ATOM     43  O2S IDS d 404     -19.152  -1.068  46.732  0.00  0.00    -0.572 OA
ATOM     44  S   IDS d 404     -17.786  -1.198  47.126  0.00  0.00     0.252 S 
ATOM     45  O3  IDS d 404     -13.787   1.470  46.577  0.00  0.00    -0.390 OA
ATOM     46  C6  IDS d 404     -15.071   1.725  42.253  0.00  0.00     0.206 C 
ATOM     47  O3S IDS d 404     -17.186  -2.404  46.690  0.00  0.00    -0.572 OA
ATOM     48  C1  IDS d 404     -15.268  -0.840  44.914  0.00  0.00     0.161 C 
ATOM     49  O61 IDS d 404     -16.211   1.811  41.819  0.00  0.00    -0.646 OA
ATOM     50  H   IDS d 404     -14.493   2.891  44.731  0.00  0.00     0.092 H 
ATOM     51  H   IDS d 404     -13.786   0.910  43.729  0.00  0.00     0.104 H 
ATOM     52  H   IDS d 404     -15.047  -0.491  46.979  0.00  0.00     0.097 H 
ATOM     53  H   IDS d 404     -15.781   2.018  46.768  0.00  0.00     0.091 H 
ATOM     54  H   IDS d 404     -13.243   0.937  45.975  0.00  0.00     0.210 HD
ATOM     55  H   IDS d 404     -15.912  -1.693  44.881  0.00  0.00     0.133 H 
ATOM     56  C1  SGN d 405     -16.658   3.933  44.499  0.00  0.00     0.150 C 
ATOM     57  O6S SGN d 405     -15.392   7.445  42.979  0.00  0.00    -0.572 OA
ATOM     58  N   SGN d 405     -18.654   3.343  45.789  0.00  0.00    -0.210 NA
ATOM     59  S1  SGN d 405     -18.908   3.910  47.274  0.00  0.00     0.156 S 
ATOM     60  S2  SGN d 405     -15.534   7.744  41.558  0.00  0.00     0.251 S 
ATOM     61  O2S SGN d 405     -19.336   5.277  47.102  0.00  0.00    -0.296 OA
ATOM     62  C3  SGN d 405     -18.979   4.218  43.517  0.00  0.00     0.083 C 
ATOM     63  O5  SGN d 405     -16.134   4.597  43.327  0.00  0.00    -0.349 OA
ATOM     64  O3  SGN d 405     -20.284   4.677  43.815  0.00  0.00    -0.391 OA
ATOM     65  O6  SGN d 405     -16.455   6.602  40.923  0.00  0.00    -0.254 OA
ATOM     66  O5S SGN d 405     -16.216   8.989  41.302  0.00  0.00    -0.572 OA
ATOM     67  C5  SGN d 405     -16.982   4.536  42.146  0.00  0.00     0.090 C 
ATOM     68  O4S SGN d 405     -14.288   7.683  40.879  0.00  0.00    -0.572 OA
ATOM     69  O1S SGN d 405     -17.643   3.804  47.954  0.00  0.00    -0.296 OA
ATOM     70  C2  SGN d 405     -18.131   4.264  44.785  0.00  0.00     0.081 C 
ATOM     71  C6  SGN d 405     -16.245   5.195  40.949  0.00  0.00     0.067 C 
ATOM     72  O4  SGN d 405     -19.159   5.223  41.322  0.00  0.00    -0.390 OA
ATOM     73  O3S SGN d 405     -19.888   3.086  47.901  0.00  0.00    -0.296 OA
ATOM     74  C4  SGN d 405     -18.333   5.157  42.482  0.00  0.00     0.089 C 
ATOM     75  H   SGN d 405     -16.058   4.328  45.292  0.00  0.00     0.131 H 
ATOM     76  H   SGN d 405     -17.990   2.572  45.868  0.00  0.00     0.140 HD
ATOM     77  H   SGN d 405     -18.631   5.785  46.672  0.00  0.00     0.231 HD
ATOM     78  H   SGN d 405     -19.034   3.220  43.135  0.00  0.00     0.089 H 
ATOM     79  H   SGN d 405     -20.237   5.582  44.161  0.00  0.00     0.210 HD
ATOM     80  H   SGN d 405     -17.179   3.529  41.844  0.00  0.00     0.090 H 
ATOM     81  H   SGN d 405     -16.990   4.371  47.514  0.00  0.00     0.231 HD
ATOM     82  H   SGN d 405     -18.182   5.265  45.159  0.00  0.00     0.076 H 
ATOM     83  H   SGN d 405     -15.196   5.001  41.035  0.00  0.00     0.080 H 
ATOM     84  H   SGN d 405     -16.632   4.779  40.043  0.00  0.00     0.080 H 
ATOM     85  H   SGN d 405     -20.012   5.621  41.556  0.00  0.00     0.210 HD
ATOM     86  H   SGN d 405     -19.544   2.184  47.989  0.00  0.00     0.231 HD
ATOM     87  H   SGN d 405     -18.216   6.153  42.854  0.00  0.00     0.091 H 
ATOM     88  O5S SGN d 403     -17.066  -6.423  43.529  0.00  0.00    -0.572 OA
ATOM     89  C3  SGN d 403     -12.209  -2.059  43.577  0.00  0.00     0.083 C 
ATOM     90  O5  SGN d 403     -12.866  -4.709  44.323  0.00  0.00    -0.349 OA
ATOM     91  S1  SGN d 403     -10.262  -3.535  40.646  0.00  0.00     0.156 S 
ATOM     92  O3  SGN d 403     -12.337  -0.965  42.720  0.00  0.00    -0.391 OA
ATOM     93  O4S SGN d 403     -17.326  -4.015  43.328  0.00  0.00    -0.572 OA
ATOM     94  N   SGN d 403     -10.437  -3.034  42.169  0.00  0.00    -0.210 NA
ATOM     95  O4  SGN d 403     -13.938  -1.287  44.971  0.00  0.00    -0.348 OA
ATOM     96  O6S SGN d 403     -17.720  -5.124  45.393  0.00  0.00    -0.572 OA
ATOM     97  C4  SGN d 403     -13.579  -2.368  44.159  0.00  0.00     0.095 C 
ATOM     98  C5  SGN d 403     -13.468  -3.644  45.028  0.00  0.00     0.091 C 
ATOM     99  O6  SGN d 403     -15.435  -4.956  44.478  0.00  0.00    -0.254 OA
ATOM    100  O1S SGN d 403     -11.077  -4.714  40.495  0.00  0.00    -0.296 OA
ATOM    101  C1  SGN d 403     -11.600  -4.433  43.739  0.00  0.00     0.150 C 
ATOM    102  O3S SGN d 403      -8.883  -3.852  40.488  0.00  0.00    -0.296 OA
ATOM    103  O2S SGN d 403     -10.722  -2.430  39.827  0.00  0.00    -0.296 OA
ATOM    104  C2  SGN d 403     -11.720  -3.260  42.804  0.00  0.00     0.081 C 
ATOM    105  C6  SGN d 403     -14.818  -4.214  45.523  0.00  0.00     0.067 C 
ATOM    106  S2  SGN d 403     -16.982  -5.145  44.179  0.00  0.00     0.251 S 
ATOM    107  H   SGN d 403     -11.510  -1.834  44.355  0.00  0.00     0.089 H 
ATOM    108  H   SGN d 403     -12.971  -1.177  42.018  0.00  0.00     0.210 HD
ATOM    109  H   SGN d 403     -10.262  -2.029  42.183  0.00  0.00     0.140 HD
ATOM    110  H   SGN d 403     -14.306  -2.522  43.389  0.00  0.00     0.091 H 
ATOM    111  H   SGN d 403     -12.885  -3.309  45.860  0.00  0.00     0.090 H 
ATOM    112  H   SGN d 403     -12.011  -4.478  40.606  0.00  0.00     0.231 HD
ATOM    113  H   SGN d 403     -11.310  -5.317  43.209  0.00  0.00     0.131 H 
ATOM    114  H   SGN d 403      -8.655  -4.597  41.065  0.00  0.00     0.231 HD
ATOM    115  H   SGN d 403     -11.666  -2.277  39.990  0.00  0.00     0.231 HD
ATOM    116  H   SGN d 403     -12.433  -3.450  42.029  0.00  0.00     0.076 H 
ATOM    117  H   SGN d 403     -15.460  -3.409  45.814  0.00  0.00     0.080 H 
ATOM    118  H   SGN d 403     -14.647  -4.856  46.361  0.00  0.00     0.080 H 
ATOM    119  O62 IDS d 402     -12.274  -5.134  47.969  0.00  0.00    -0.646 OA
ATOM    120  C1  IDS d 402      -7.795  -4.426  46.942  0.00  0.00     0.161 C 
ATOM    121  O3S IDS d 402      -5.313  -3.188  45.026  0.00  0.00    -0.572 OA
ATOM    122  O3  IDS d 402      -8.562  -7.002  45.413  0.00  0.00    -0.390 OA
ATOM    123  O5  IDS d 402      -9.086  -3.924  47.177  0.00  0.00    -0.340 OA
ATOM    124  O4  IDS d 402     -10.596  -4.174  44.680  0.00  0.00    -0.348 OA
ATOM    125  O61 IDS d 402     -11.713  -3.125  47.577  0.00  0.00    -0.646 OA
ATOM    126  O1S IDS d 402      -6.236  -3.233  42.817  0.00  0.00    -0.572 OA
ATOM    127  O2S IDS d 402      -6.810  -1.480  44.309  0.00  0.00    -0.572 OA
ATOM    128  C3  IDS d 402      -8.796  -5.700  44.947  0.00  0.00     0.094 C 
ATOM    129  C5  IDS d 402     -10.124  -4.867  46.935  0.00  0.00     0.152 C 
ATOM    130  S   IDS d 402      -6.430  -2.832  44.185  0.00  0.00     0.252 S 
ATOM    131  C4  IDS d 402     -10.170  -5.265  45.441  0.00  0.00     0.103 C 
ATOM    132  C2  IDS d 402      -7.662  -4.800  45.466  0.00  0.00     0.134 C 
ATOM    133  C6  IDS d 402     -11.449  -4.346  47.534  0.00  0.00     0.206 C 
ATOM    134  O2  IDS d 402      -7.667  -3.630  44.695  0.00  0.00    -0.244 OA
ATOM    135  H   IDS d 402      -7.090  -3.660  47.191  0.00  0.00     0.133 H 
ATOM    136  H   IDS d 402      -7.690  -7.302  45.111  0.00  0.00     0.210 HD
ATOM    137  H   IDS d 402      -8.799  -5.639  43.879  0.00  0.00     0.091 H 
ATOM    138  H   IDS d 402      -9.927  -5.789  47.441  0.00  0.00     0.104 H 
ATOM    139  H   IDS d 402     -10.853  -6.082  45.336  0.00  0.00     0.092 H 
ATOM    140  H   IDS d 402      -6.746  -5.347  45.381  0.00  0.00     0.097 H 
ENDROOT
TORSDOF 45
ENDMDL
MODEL 27
REMARK VINA RESULT:      -2.5      5.249      8.455
REMARK  0 active torsions:
REMARK  status: ('A' for Active; 'I' for Inactive)
REMARK       I    between atoms: C5_1  and  C6_64 
REMARK       I    between atoms: C4_2  and  O4_32 
REMARK       I    between atoms: C1_3  and  O4_32 
REMARK       I    between atoms: S1_6  and  N_87 
REMARK       I    between atoms: S1_6  and  O1S_23 
REMARK       I    between atoms: S1_6  and  O2S_31 
REMARK       I    between atoms: S1_6  and  O3S_47 
REMARK       I    between atoms: N_7  and  C2_53 
REMARK       I    between atoms: N_7  and  S1_10 
REMARK       I    between atoms: C3_9  and  O3_14 
REMARK       I    between atoms: S1_10  and  O1S_52 
REMARK       I    between atoms: S1_10  and  O2S_17 
REMARK       I    between atoms: S1_10  and  O3S_80 
REMARK       I    between atoms: C5_12  and  C6_73 
REMARK       I    between atoms: S1_13  and  N_25 
REMARK       I    between atoms: S1_13  and  O1S_58 
REMARK       I    between atoms: S1_13  and  O2S_66 
REMARK       I    between atoms: S1_13  and  O3S_62 
REMARK       I    between atoms: S2_15  and  O6_41 
REMARK       I    between atoms: C3_16  and  O3_48 
REMARK       I    between atoms: C2_18  and  N_87 
REMARK       I    between atoms: C1_19  and  O4_39 
REMARK       I    between atoms: C3_20  and  O3_27 
REMARK       I    between atoms: C1_24  and  O1_84 
REMARK       I    between atoms: N_25  and  C2_78 
REMARK       I    between atoms: O4_28  and  C4_30 
REMARK       I    between atoms: O4_28  and  C1_86 
REMARK       I    between atoms: C2_34  and  O2_59 
REMARK       I    between atoms: O3_35  and  C3_60 
REMARK       I    between atoms: C5_37  and  C6_81 
REMARK       I    between atoms: O4_39  and  C4_79 
REMARK       I    between atoms: O4_40  and  C4_77 
REMARK       I    between atoms: O4_40  and  C1_61 
REMARK       I    between atoms: O6_41  and  C6_57 
REMARK       I    between atoms: O6_45  and  C6_81 
REMARK       I    between atoms: O6_45  and  S2_83 
REMARK       I    between atoms: C3_46  and  O3_72 
REMARK       I    between atoms: C5_50  and  C6_57 
REMARK       I    between atoms: O2_59  and  S_69 
REMARK       I    between atoms: O6_63  and  C6_64 
REMARK       I    between atoms: O6_63  and  S2_70 
REMARK       I    between atoms: C5_67  and  C6_88 
REMARK       I    between atoms: S_71  and  O2_89 
REMARK       I    between atoms: O4_75  and  C4_82 
REMARK       I    between atoms: C2_85  and  O2_89 
ROOT
ATOM      1  C5  SGN d 401      -5.271   2.818  49.983  0.00  0.00     0.091 C 
ATOM      2  S1  SGN d 401      -8.257  -1.760  51.364  0.00  0.00     0.156 S 
ATOM      3  C3  SGN d 401      -6.714   1.005  48.982  0.00  0.00     0.083 C 
ATOM      4  C2  SGN d 401      -6.816   0.417  50.406  0.00  0.00     0.081 C 
ATOM      5  O1S SGN d 401      -8.615  -0.788  52.380  0.00  0.00    -0.296 OA
ATOM      6  C1  SGN d 401      -5.511   0.760  51.143  0.00  0.00     0.147 C 
ATOM      7  O2S SGN d 401      -9.367  -2.060  50.500  0.00  0.00    -0.296 OA
ATOM      8  O4  SGN d 401      -6.209   2.990  47.759  0.00  0.00    -0.348 OA
ATOM      9  O4S SGN d 401      -6.748   6.810  50.127  0.00  0.00    -0.572 OA
ATOM     10  O3S SGN d 401      -7.659  -2.949  51.935  0.00  0.00    -0.296 OA
ATOM     11  O3  SGN d 401      -7.927   0.787  48.284  0.00  0.00    -0.391 OA
ATOM     12  O5  SGN d 401      -5.356   2.144  51.238  0.00  0.00    -0.350 OA
ATOM     13  O6S SGN d 401      -6.245   6.464  52.459  0.00  0.00    -0.572 OA
ATOM     14  O6  SGN d 401      -6.396   4.601  50.968  0.00  0.00    -0.254 OA
ATOM     15  C6  SGN d 401      -5.177   4.293  50.348  0.00  0.00     0.067 C 
ATOM     16  S2  SGN d 401      -6.965   6.003  51.285  0.00  0.00     0.251 S 
ATOM     17  O5S SGN d 401      -8.365   5.774  51.522  0.00  0.00    -0.572 OA
ATOM     18  C4  SGN d 401      -6.487   2.517  49.055  0.00  0.00     0.095 C 
ATOM     19  O1  SGN d 401      -4.375   0.207  50.457  0.00  0.00    -0.369 OA
ATOM     20  N   SGN d 401      -7.058  -1.069  50.398  0.00  0.00    -0.210 NA
ATOM     21  H   SGN d 401      -4.428   2.488  49.413  0.00  0.00     0.090 H 
ATOM     22  H   SGN d 401      -5.899   0.527  48.479  0.00  0.00     0.089 H 
ATOM     23  H   SGN d 401      -7.659   0.846  50.906  0.00  0.00     0.076 H 
ATOM     24  H   SGN d 401      -9.011  -0.010  51.957  0.00  0.00     0.231 HD
ATOM     25  H   SGN d 401      -5.569   0.336  52.124  0.00  0.00     0.131 H 
ATOM     26  H   SGN d 401      -9.731  -1.235  50.144  0.00  0.00     0.231 HD
ATOM     27  H   SGN d 401      -6.918  -2.695  52.508  0.00  0.00     0.231 HD
ATOM     28  H   SGN d 401      -8.653   1.227  48.754  0.00  0.00     0.210 HD
ATOM     29  H   SGN d 401      -5.042   4.889  49.469  0.00  0.00     0.080 H 
ATOM     30  H   SGN d 401      -4.342   4.492  50.988  0.00  0.00     0.080 H 
ATOM     31  H   SGN d 401      -7.359   2.999  49.447  0.00  0.00     0.091 H 
ATOM     32  H   SGN d 401      -4.318   0.588  49.567  0.00  0.00     0.212 HD
ATOM     33  H   SGN d 401      -7.279  -1.321  49.435  0.00  0.00     0.140 HD
ATOM     34  C4  IDS d 404     -15.379   8.957  45.138  0.00  0.00     0.103 C 
ATOM     35  C5  IDS d 404     -14.380   8.834  43.991  0.00  0.00     0.152 C 
ATOM     36  O4  IDS d 404     -16.648   9.148  44.576  0.00  0.00    -0.348 OA
ATOM     37  O5  IDS d 404     -14.522   7.617  43.294  0.00  0.00    -0.340 OA
ATOM     38  C2  IDS d 404     -15.210   6.378  45.324  0.00  0.00     0.134 C 
ATOM     39  O62 IDS d 404     -13.726  10.918  43.034  0.00  0.00    -0.646 OA
ATOM     40  C3  IDS d 404     -15.394   7.712  46.065  0.00  0.00     0.094 C 
ATOM     41  O2  IDS d 404     -16.500   5.893  44.932  0.00  0.00    -0.244 OA
ATOM     42  O1S IDS d 404     -17.084   3.870  45.992  0.00  0.00    -0.572 OA
ATOM     43  O2S IDS d 404     -18.029   4.380  43.866  0.00  0.00    -0.572 OA
ATOM     44  S   IDS d 404     -16.872   4.396  44.704  0.00  0.00     0.252 S 
ATOM     45  O3  IDS d 404     -14.334   7.826  46.985  0.00  0.00    -0.390 OA
ATOM     46  C6  IDS d 404     -14.512   9.987  43.021  0.00  0.00     0.206 C 
ATOM     47  O3S IDS d 404     -15.741   3.782  44.115  0.00  0.00    -0.572 OA
ATOM     48  C1  IDS d 404     -14.272   6.451  44.087  0.00  0.00     0.161 C 
ATOM     49  O61 IDS d 404     -15.440  10.010  42.227  0.00  0.00    -0.646 OA
ATOM     50  H   IDS d 404     -15.091   9.784  45.752  0.00  0.00     0.092 H 
ATOM     51  H   IDS d 404     -13.407   8.858  44.436  0.00  0.00     0.104 H 
ATOM     52  H   IDS d 404     -14.726   5.710  46.005  0.00  0.00     0.097 H 
ATOM     53  H   IDS d 404     -16.357   7.695  46.531  0.00  0.00     0.091 H 
ATOM     54  H   IDS d 404     -13.490   7.836  46.506  0.00  0.00     0.210 HD
ATOM     55  H   IDS d 404     -14.477   5.615  43.452  0.00  0.00     0.133 H 
ATOM     56  C1  SGN d 405     -17.365  10.237  45.079  0.00  0.00     0.150 C 
ATOM     57  O6S SGN d 405     -17.336  14.208  45.768  0.00  0.00    -0.572 OA
ATOM     58  N   SGN d 405     -19.186   8.601  45.067  0.00  0.00    -0.210 NA
ATOM     59  S1  SGN d 405     -20.005   8.227  46.401  0.00  0.00     0.156 S 
ATOM     60  S2  SGN d 405     -17.237  15.162  44.668  0.00  0.00     0.251 S 
ATOM     61  O2S SGN d 405     -20.905   9.331  46.629  0.00  0.00    -0.296 OA
ATOM     62  C3  SGN d 405     -19.279  10.425  43.426  0.00  0.00     0.083 C 
ATOM     63  O5  SGN d 405     -16.894  11.519  44.604  0.00  0.00    -0.349 OA
ATOM     64  O3  SGN d 405     -20.686  10.332  43.310  0.00  0.00    -0.391 OA
ATOM     65  O6  SGN d 405     -17.418  14.338  43.310  0.00  0.00    -0.254 OA
ATOM     66  O5S SGN d 405     -18.289  16.150  44.673  0.00  0.00    -0.572 OA
ATOM     67  C5  SGN d 405     -17.324  11.883  43.263  0.00  0.00     0.090 C 
ATOM     68  O4S SGN d 405     -15.954  15.766  44.607  0.00  0.00    -0.572 OA
ATOM     69  O1S SGN d 405     -19.018   8.089  47.440  0.00  0.00    -0.296 OA
ATOM     70  C2  SGN d 405     -18.864  10.005  44.832  0.00  0.00     0.081 C 
ATOM     71  C6  SGN d 405     -16.658  13.225  42.855  0.00  0.00     0.067 C 
ATOM     72  O4  SGN d 405     -19.317  12.352  41.960  0.00  0.00    -0.390 OA
ATOM     73  O3S SGN d 405     -20.677   6.990  46.177  0.00  0.00    -0.296 OA
ATOM     74  C4  SGN d 405     -18.848  11.890  43.224  0.00  0.00     0.089 C 
ATOM     75  H   SGN d 405     -17.195  10.290  46.134  0.00  0.00     0.131 H 
ATOM     76  H   SGN d 405     -18.304   8.088  45.100  0.00  0.00     0.140 HD
ATOM     77  H   SGN d 405     -20.391  10.142  46.775  0.00  0.00     0.231 HD
ATOM     78  H   SGN d 405     -18.821   9.795  42.692  0.00  0.00     0.089 H 
ATOM     79  H   SGN d 405     -21.104  10.902  43.974  0.00  0.00     0.210 HD
ATOM     80  H   SGN d 405     -17.006  11.169  42.532  0.00  0.00     0.090 H 
ATOM     81  H   SGN d 405     -18.572   8.940  47.578  0.00  0.00     0.231 HD
ATOM     82  H   SGN d 405     -19.414  10.615  45.517  0.00  0.00     0.076 H 
ATOM     83  H   SGN d 405     -15.679  13.273  43.284  0.00  0.00     0.080 H 
ATOM     84  H   SGN d 405     -16.605  13.264  41.788  0.00  0.00     0.080 H 
ATOM     85  H   SGN d 405     -20.287  12.350  41.955  0.00  0.00     0.210 HD
ATOM     86  H   SGN d 405     -20.024   6.288  46.030  0.00  0.00     0.231 HD
ATOM     87  H   SGN d 405     -19.248  12.538  43.975  0.00  0.00     0.091 H 
ATOM     88  O5S SGN d 403     -13.202   2.175  39.975  0.00  0.00    -0.572 OA
ATOM     89  C3  SGN d 403     -10.759   6.888  43.779  0.00  0.00     0.083 C 
ATOM     90  O5  SGN d 403     -10.420   4.172  43.056  0.00  0.00    -0.349 OA
ATOM     91  S1  SGN d 403      -7.725   7.681  41.604  0.00  0.00     0.156 S 
ATOM     92  O3  SGN d 403     -11.114   8.200  43.463  0.00  0.00    -0.391 OA
ATOM     93  O4S SGN d 403     -14.377   4.188  40.666  0.00  0.00    -0.572 OA
ATOM     94  N   SGN d 403      -8.458   7.252  42.976  0.00  0.00    -0.210 NA
ATOM     95  O4  SGN d 403     -12.934   6.375  44.508  0.00  0.00    -0.348 OA
ATOM     96  O6S SGN d 403     -14.767   2.107  41.746  0.00  0.00    -0.572 OA
ATOM     97  C4  SGN d 403     -11.974   6.001  43.562  0.00  0.00     0.095 C 
ATOM     98  C5  SGN d 403     -11.561   4.530  43.807  0.00  0.00     0.091 C 
ATOM     99  O6  SGN d 403     -12.609   3.272  42.015  0.00  0.00    -0.254 OA
ATOM    100  O1S SGN d 403      -7.916   6.599  40.671  0.00  0.00    -0.296 OA
ATOM    101  C1  SGN d 403      -9.282   5.007  43.215  0.00  0.00     0.150 C 
ATOM    102  O3S SGN d 403      -6.346   7.836  41.922  0.00  0.00    -0.296 OA
ATOM    103  O2S SGN d 403      -8.386   8.902  41.186  0.00  0.00    -0.296 OA
ATOM    104  C2  SGN d 403      -9.644   6.427  42.871  0.00  0.00     0.081 C 
ATOM    105  C6  SGN d 403     -12.631   3.481  43.422  0.00  0.00     0.067 C 
ATOM    106  S2  SGN d 403     -13.815   2.902  41.053  0.00  0.00     0.251 S 
ATOM    107  H   SGN d 403     -10.429   6.833  44.795  0.00  0.00     0.089 H 
ATOM    108  H   SGN d 403     -11.412   8.241  42.542  0.00  0.00     0.210 HD
ATOM    109  H   SGN d 403      -8.723   8.109  43.462  0.00  0.00     0.140 HD
ATOM    110  H   SGN d 403     -12.361   6.103  42.569  0.00  0.00     0.091 H 
ATOM    111  H   SGN d 403     -11.392   4.509  44.863  0.00  0.00     0.090 H 
ATOM    112  H   SGN d 403      -8.860   6.510  40.468  0.00  0.00     0.231 HD
ATOM    113  H   SGN d 403      -8.533   4.631  42.550  0.00  0.00     0.131 H 
ATOM    114  H   SGN d 403      -5.978   6.979  42.190  0.00  0.00     0.231 HD
ATOM    115  H   SGN d 403      -9.317   8.714  40.988  0.00  0.00     0.231 HD
ATOM    116  H   SGN d 403     -10.002   6.505  41.866  0.00  0.00     0.076 H 
ATOM    117  H   SGN d 403     -13.597   3.833  43.715  0.00  0.00     0.080 H 
ATOM    118  H   SGN d 403     -12.420   2.559  43.922  0.00  0.00     0.080 H 
ATOM    119  O62 IDS d 402     -10.615   2.061  46.110  0.00  0.00    -0.646 OA
ATOM    120  C1  IDS d 402      -6.728   4.254  47.416  0.00  0.00     0.161 C 
ATOM    121  O3S IDS d 402      -4.597   6.864  47.379  0.00  0.00    -0.572 OA
ATOM    122  O3  IDS d 402      -5.962   2.761  44.819  0.00  0.00    -0.390 OA
ATOM    123  O5  IDS d 402      -8.126   4.231  47.273  0.00  0.00    -0.340 OA
ATOM    124  O4  IDS d 402      -8.738   4.969  44.505  0.00  0.00    -0.348 OA
ATOM    125  O61 IDS d 402     -10.858   4.044  46.826  0.00  0.00    -0.646 OA
ATOM    126  O1S IDS d 402      -4.848   7.760  45.173  0.00  0.00    -0.572 OA
ATOM    127  O2S IDS d 402      -6.441   8.276  46.854  0.00  0.00    -0.572 OA
ATOM    128  C3  IDS d 402      -6.593   4.013  44.861  0.00  0.00     0.094 C 
ATOM    129  C5  IDS d 402      -8.587   3.336  46.266  0.00  0.00     0.152 C 
ATOM    130  S   IDS d 402      -5.518   7.327  46.370  0.00  0.00     0.252 S 
ATOM    131  C4  IDS d 402      -8.099   3.781  44.868  0.00  0.00     0.103 C 
ATOM    132  C2  IDS d 402      -6.098   4.751  46.117  0.00  0.00     0.134 C 
ATOM    133  C6  IDS d 402     -10.111   3.131  46.413  0.00  0.00     0.206 C 
ATOM    134  O2  IDS d 402      -6.397   6.110  45.953  0.00  0.00    -0.244 OA
ATOM    135  H   IDS d 402      -6.488   4.919  48.219  0.00  0.00     0.133 H 
ATOM    136  H   IDS d 402      -5.000   2.884  44.814  0.00  0.00     0.210 HD
ATOM    137  H   IDS d 402      -6.361   4.621  44.012  0.00  0.00     0.091 H 
ATOM    138  H   IDS d 402      -8.156   2.365  46.393  0.00  0.00     0.104 H 
ATOM    139  H   IDS d 402      -8.334   3.003  44.171  0.00  0.00     0.092 H 
ATOM    140  H   IDS d 402      -5.047   4.569  46.209  0.00  0.00     0.097 H 
ENDROOT
TORSDOF 45
ENDMDL
MODEL 28
REMARK VINA RESULT:      -2.3      3.191      4.163
REMARK  0 active torsions:
REMARK  status: ('A' for Active; 'I' for Inactive)
REMARK       I    between atoms: C5_1  and  C6_64 
REMARK       I    between atoms: C4_2  and  O4_32 
REMARK       I    between atoms: C1_3  and  O4_32 
REMARK       I    between atoms: S1_6  and  N_87 
REMARK       I    between atoms: S1_6  and  O1S_23 
REMARK       I    between atoms: S1_6  and  O2S_31 
REMARK       I    between atoms: S1_6  and  O3S_47 
REMARK       I    between atoms: N_7  and  C2_53 
REMARK       I    between atoms: N_7  and  S1_10 
REMARK       I    between atoms: C3_9  and  O3_14 
REMARK       I    between atoms: S1_10  and  O1S_52 
REMARK       I    between atoms: S1_10  and  O2S_17 
REMARK       I    between atoms: S1_10  and  O3S_80 
REMARK       I    between atoms: C5_12  and  C6_73 
REMARK       I    between atoms: S1_13  and  N_25 
REMARK       I    between atoms: S1_13  and  O1S_58 
REMARK       I    between atoms: S1_13  and  O2S_66 
REMARK       I    between atoms: S1_13  and  O3S_62 
REMARK       I    between atoms: S2_15  and  O6_41 
REMARK       I    between atoms: C3_16  and  O3_48 
REMARK       I    between atoms: C2_18  and  N_87 
REMARK       I    between atoms: C1_19  and  O4_39 
REMARK       I    between atoms: C3_20  and  O3_27 
REMARK       I    between atoms: C1_24  and  O1_84 
REMARK       I    between atoms: N_25  and  C2_78 
REMARK       I    between atoms: O4_28  and  C4_30 
REMARK       I    between atoms: O4_28  and  C1_86 
REMARK       I    between atoms: C2_34  and  O2_59 
REMARK       I    between atoms: O3_35  and  C3_60 
REMARK       I    between atoms: C5_37  and  C6_81 
REMARK       I    between atoms: O4_39  and  C4_79 
REMARK       I    between atoms: O4_40  and  C4_77 
REMARK       I    between atoms: O4_40  and  C1_61 
REMARK       I    between atoms: O6_41  and  C6_57 
REMARK       I    between atoms: O6_45  and  C6_81 
REMARK       I    between atoms: O6_45  and  S2_83 
REMARK       I    between atoms: C3_46  and  O3_72 
REMARK       I    between atoms: C5_50  and  C6_57 
REMARK       I    between atoms: O2_59  and  S_69 
REMARK       I    between atoms: O6_63  and  C6_64 
REMARK       I    between atoms: O6_63  and  S2_70 
REMARK       I    between atoms: C5_67  and  C6_88 
REMARK       I    between atoms: S_71  and  O2_89 
REMARK       I    between atoms: O4_75  and  C4_82 
REMARK       I    between atoms: C2_85  and  O2_89 
ROOT
ATOM      1  C5  SGN d 401     -17.016  -2.956  46.159  0.00  0.00     0.091 C 
ATOM      2  S1  SGN d 401     -15.991  -3.619  51.664  0.00  0.00     0.156 S 
ATOM      3  C3  SGN d 401     -17.219  -1.772  48.380  0.00  0.00     0.083 C 
ATOM      4  C2  SGN d 401     -16.651  -3.056  49.020  0.00  0.00     0.081 C 
ATOM      5  O1S SGN d 401     -14.791  -4.118  51.020  0.00  0.00    -0.296 OA
ATOM      6  C1  SGN d 401     -17.098  -4.245  48.153  0.00  0.00     0.147 C 
ATOM      7  O2S SGN d 401     -15.739  -2.407  52.397  0.00  0.00    -0.296 OA
ATOM      8  O4  SGN d 401     -17.399  -0.573  46.325  0.00  0.00    -0.348 OA
ATOM      9  O4S SGN d 401     -14.169  -1.568  43.313  0.00  0.00    -0.572 OA
ATOM     10  O3S SGN d 401     -16.639  -4.632  52.470  0.00  0.00    -0.296 OA
ATOM     11  O3  SGN d 401     -16.768  -0.637  49.095  0.00  0.00    -0.391 OA
ATOM     12  O5  SGN d 401     -16.584  -4.122  46.860  0.00  0.00    -0.350 OA
ATOM     13  O6S SGN d 401     -13.479  -3.869  43.508  0.00  0.00    -0.572 OA
ATOM     14  O6  SGN d 401     -14.920  -2.898  45.150  0.00  0.00    -0.254 OA
ATOM     15  C6  SGN d 401     -16.279  -3.018  44.828  0.00  0.00     0.067 C 
ATOM     16  S2  SGN d 401     -13.744  -2.613  44.188  0.00  0.00     0.251 S 
ATOM     17  O5S SGN d 401     -12.674  -2.189  45.049  0.00  0.00    -0.572 OA
ATOM     18  C4  SGN d 401     -16.717  -1.640  46.939  0.00  0.00     0.095 C 
ATOM     19  O1  SGN d 401     -18.532  -4.316  48.083  0.00  0.00    -0.369 OA
ATOM     20  N   SGN d 401     -17.097  -3.232  50.447  0.00  0.00    -0.210 NA
ATOM     21  H   SGN d 401     -18.078  -2.943  46.033  0.00  0.00     0.090 H 
ATOM     22  H   SGN d 401     -18.288  -1.831  48.400  0.00  0.00     0.089 H 
ATOM     23  H   SGN d 401     -15.584  -2.992  49.056  0.00  0.00     0.076 H 
ATOM     24  H   SGN d 401     -14.389  -3.410  50.492  0.00  0.00     0.231 HD
ATOM     25  H   SGN d 401     -16.723  -5.139  48.606  0.00  0.00     0.131 H 
ATOM     26  H   SGN d 401     -15.306  -1.762  51.815  0.00  0.00     0.231 HD
ATOM     27  H   SGN d 401     -16.787  -5.426  51.933  0.00  0.00     0.231 HD
ATOM     28  H   SGN d 401     -15.799  -0.600  49.066  0.00  0.00     0.210 HD
ATOM     29  H   SGN d 401     -16.586  -2.212  44.193  0.00  0.00     0.080 H 
ATOM     30  H   SGN d 401     -16.486  -3.925  44.300  0.00  0.00     0.080 H 
ATOM     31  H   SGN d 401     -15.663  -1.459  46.935  0.00  0.00     0.091 H 
ATOM     32  H   SGN d 401     -18.876  -3.508  47.673  0.00  0.00     0.212 HD
ATOM     33  H   SGN d 401     -17.537  -2.354  50.724  0.00  0.00     0.140 HD
ATOM     34  C4  IDS d 404      -9.424   7.273  45.137  0.00  0.00     0.103 C 
ATOM     35  C5  IDS d 404     -10.815   7.746  44.726  0.00  0.00     0.152 C 
ATOM     36  O4  IDS d 404      -8.690   8.401  45.524  0.00  0.00    -0.348 OA
ATOM     37  O5  IDS d 404     -11.581   8.166  45.833  0.00  0.00    -0.340 OA
ATOM     38  C2  IDS d 404     -10.534   6.515  47.352  0.00  0.00     0.134 C 
ATOM     39  O62 IDS d 404     -10.926   8.667  42.528  0.00  0.00    -0.646 OA
ATOM     40  C3  IDS d 404      -9.453   6.239  46.295  0.00  0.00     0.094 C 
ATOM     41  O2  IDS d 404      -9.978   7.373  48.357  0.00  0.00    -0.244 OA
ATOM     42  O1S IDS d 404      -9.841   6.343  50.473  0.00  0.00    -0.572 OA
ATOM     43  O2S IDS d 404     -10.026   8.714  50.347  0.00  0.00    -0.572 OA
ATOM     44  S   IDS d 404     -10.446   7.445  49.843  0.00  0.00     0.252 S 
ATOM     45  O3  IDS d 404      -9.718   4.967  45.752  0.00  0.00    -0.390 OA
ATOM     46  C6  IDS d 404     -10.737   8.869  43.715  0.00  0.00     0.206 C 
ATOM     47  O3S IDS d 404     -11.853   7.281  49.834  0.00  0.00    -0.572 OA
ATOM     48  C1  IDS d 404     -11.844   7.134  46.791  0.00  0.00     0.161 C 
ATOM     49  O61 IDS d 404     -10.447   9.998  44.082  0.00  0.00    -0.646 OA
ATOM     50  H   IDS d 404      -8.974   6.776  44.303  0.00  0.00     0.092 H 
ATOM     51  H   IDS d 404     -11.300   6.904  44.278  0.00  0.00     0.104 H 
ATOM     52  H   IDS d 404     -10.821   5.567  47.756  0.00  0.00     0.097 H 
ATOM     53  H   IDS d 404      -8.501   6.301  46.778  0.00  0.00     0.091 H 
ATOM     54  H   IDS d 404     -10.592   4.971  45.329  0.00  0.00     0.210 HD
ATOM     55  H   IDS d 404     -12.371   7.607  47.593  0.00  0.00     0.133 H 
ATOM     56  C1  SGN d 405      -7.439   8.536  44.917  0.00  0.00     0.150 C 
ATOM     57  O6S SGN d 405      -5.439   8.731  41.423  0.00  0.00    -0.572 OA
ATOM     58  N   SGN d 405      -6.773   9.093  47.206  0.00  0.00    -0.210 NA
ATOM     59  S1  SGN d 405      -5.627   8.274  47.984  0.00  0.00     0.156 S 
ATOM     60  S2  SGN d 405      -5.684   9.814  40.475  0.00  0.00     0.251 S 
ATOM     61  O2S SGN d 405      -4.375   8.734  47.433  0.00  0.00    -0.296 OA
ATOM     62  C3  SGN d 405      -6.791  10.905  45.548  0.00  0.00     0.083 C 
ATOM     63  O5  SGN d 405      -7.499   8.972  43.540  0.00  0.00    -0.349 OA
ATOM     64  O3  SGN d 405      -5.841  11.662  46.274  0.00  0.00    -0.391 OA
ATOM     65  O6  SGN d 405      -6.599  10.895  41.218  0.00  0.00    -0.254 OA
ATOM     66  O5S SGN d 405      -4.484  10.514  40.085  0.00  0.00    -0.572 OA
ATOM     67  C5  SGN d 405      -7.721  10.396  43.346  0.00  0.00     0.090 C 
ATOM     68  O4S SGN d 405      -6.419   9.369  39.345  0.00  0.00    -0.572 OA
ATOM     69  O1S SGN d 405      -5.881   6.884  47.705  0.00  0.00    -0.296 OA
ATOM     70  C2  SGN d 405      -6.547   9.420  45.802  0.00  0.00     0.081 C 
ATOM     71  C6  SGN d 405      -7.867  10.693  41.830  0.00  0.00     0.067 C 
ATOM     72  O4  SGN d 405      -6.715  12.561  43.783  0.00  0.00    -0.390 OA
ATOM     73  O3S SGN d 405      -5.760   8.540  49.378  0.00  0.00    -0.296 OA
ATOM     74  C4  SGN d 405      -6.603  11.163  44.041  0.00  0.00     0.089 C 
ATOM     75  H   SGN d 405      -6.995   7.564  44.846  0.00  0.00     0.131 H 
ATOM     76  H   SGN d 405      -7.628   8.538  47.255  0.00  0.00     0.140 HD
ATOM     77  H   SGN d 405      -4.343   8.525  46.486  0.00  0.00     0.231 HD
ATOM     78  H   SGN d 405      -7.776  11.185  45.857  0.00  0.00     0.089 H 
ATOM     79  H   SGN d 405      -4.946  11.410  45.997  0.00  0.00     0.210 HD
ATOM     80  H   SGN d 405      -8.636  10.724  43.794  0.00  0.00     0.090 H 
ATOM     81  H   SGN d 405      -5.785   6.723  46.753  0.00  0.00     0.231 HD
ATOM     82  H   SGN d 405      -5.526   9.223  45.551  0.00  0.00     0.076 H 
ATOM     83  H   SGN d 405      -8.354   9.866  41.357  0.00  0.00     0.080 H 
ATOM     84  H   SGN d 405      -8.444  11.587  41.715  0.00  0.00     0.080 H 
ATOM     85  H   SGN d 405      -5.996  13.031  44.233  0.00  0.00     0.210 HD
ATOM     86  H   SGN d 405      -6.617   8.210  49.690  0.00  0.00     0.231 HD
ATOM     87  H   SGN d 405      -5.643  10.846  43.691  0.00  0.00     0.091 H 
ATOM     88  O5S SGN d 403     -16.565   9.270  49.870  0.00  0.00    -0.572 OA
ATOM     89  C3  SGN d 403     -14.439   5.795  44.767  0.00  0.00     0.083 C 
ATOM     90  O5  SGN d 403     -16.204   5.704  46.978  0.00  0.00    -0.349 OA
ATOM     91  S1  SGN d 403     -17.497   6.350  42.551  0.00  0.00     0.156 S 
ATOM     92  O3  SGN d 403     -13.789   6.498  43.752  0.00  0.00    -0.391 OA
ATOM     93  O4S SGN d 403     -14.488   9.649  48.666  0.00  0.00    -0.572 OA
ATOM     94  N   SGN d 403     -16.418   5.446  43.341  0.00  0.00    -0.210 NA
ATOM     95  O4  SGN d 403     -12.655   6.116  46.263  0.00  0.00    -0.348 OA
ATOM     96  O6S SGN d 403     -14.509   8.498  50.745  0.00  0.00    -0.572 OA
ATOM     97  C4  SGN d 403     -14.017   6.387  46.101  0.00  0.00     0.095 C 
ATOM     98  C5  SGN d 403     -14.814   5.684  47.226  0.00  0.00     0.091 C 
ATOM     99  O6  SGN d 403     -15.489   7.464  48.732  0.00  0.00    -0.254 OA
ATOM    100  O1S SGN d 403     -18.291   7.021  43.549  0.00  0.00    -0.296 OA
ATOM    101  C1  SGN d 403     -16.620   5.188  45.721  0.00  0.00     0.150 C 
ATOM    102  O3S SGN d 403     -18.295   5.447  41.794  0.00  0.00    -0.296 OA
ATOM    103  O2S SGN d 403     -16.709   7.271  41.753  0.00  0.00    -0.296 OA
ATOM    104  C2  SGN d 403     -15.934   5.941  44.613  0.00  0.00     0.081 C 
ATOM    105  C6  SGN d 403     -14.656   6.315  48.629  0.00  0.00     0.067 C 
ATOM    106  S2  SGN d 403     -15.244   8.791  49.566  0.00  0.00     0.251 S 
ATOM    107  H   SGN d 403     -14.181   4.757  44.716  0.00  0.00     0.089 H 
ATOM    108  H   SGN d 403     -14.028   7.436  43.805  0.00  0.00     0.210 HD
ATOM    109  H   SGN d 403     -15.610   5.331  42.729  0.00  0.00     0.140 HD
ATOM    110  H   SGN d 403     -14.202   7.441  46.138  0.00  0.00     0.091 H 
ATOM    111  H   SGN d 403     -14.401   4.696  47.221  0.00  0.00     0.090 H 
ATOM    112  H   SGN d 403     -17.730   7.631  44.053  0.00  0.00     0.231 HD
ATOM    113  H   SGN d 403     -17.681   5.320  45.674  0.00  0.00     0.131 H 
ATOM    114  H   SGN d 403     -18.788   4.869  42.397  0.00  0.00     0.231 HD
ATOM    115  H   SGN d 403     -16.196   7.849  42.339  0.00  0.00     0.231 HD
ATOM    116  H   SGN d 403     -16.156   6.987  44.657  0.00  0.00     0.076 H 
ATOM    117  H   SGN d 403     -13.636   6.601  48.779  0.00  0.00     0.080 H 
ATOM    118  H   SGN d 403     -14.940   5.603  49.374  0.00  0.00     0.080 H 
ATOM    119  O62 IDS d 402     -15.359   2.767  49.095  0.00  0.00    -0.646 OA
ATOM    120  C1  IDS d 402     -16.660   0.223  45.427  0.00  0.00     0.161 C 
ATOM    121  O3S IDS d 402     -17.175  -0.246  42.130  0.00  0.00    -0.572 OA
ATOM    122  O3  IDS d 402     -19.203   1.771  46.261  0.00  0.00    -0.390 OA
ATOM    123  O5  IDS d 402     -15.702   1.013  46.086  0.00  0.00    -0.340 OA
ATOM    124  O4  IDS d 402     -16.372   3.818  45.571  0.00  0.00    -0.348 OA
ATOM    125  O61 IDS d 402     -13.976   2.671  47.489  0.00  0.00    -0.646 OA
ATOM    126  O1S IDS d 402     -17.756   1.937  41.338  0.00  0.00    -0.572 OA
ATOM    127  O2S IDS d 402     -15.482   1.372  41.703  0.00  0.00    -0.572 OA
ATOM    128  C3  IDS d 402     -18.187   2.290  45.446  0.00  0.00     0.094 C 
ATOM    129  C5  IDS d 402     -16.255   1.914  47.038  0.00  0.00     0.152 C 
ATOM    130  S   IDS d 402     -16.818   1.151  42.093  0.00  0.00     0.252 S 
ATOM    131  C4  IDS d 402     -17.158   2.962  46.347  0.00  0.00     0.103 C 
ATOM    132  C2  IDS d 402     -17.596   1.128  44.629  0.00  0.00     0.134 C 
ATOM    133  C6  IDS d 402     -15.129   2.481  47.931  0.00  0.00     0.206 C 
ATOM    134  O2  IDS d 402     -16.888   1.685  43.555  0.00  0.00    -0.244 OA
ATOM    135  H   IDS d 402     -16.144  -0.444  44.769  0.00  0.00     0.133 H 
ATOM    136  H   IDS d 402     -19.872   1.337  45.708  0.00  0.00     0.210 HD
ATOM    137  H   IDS d 402     -18.546   3.025  44.756  0.00  0.00     0.091 H 
ATOM    138  H   IDS d 402     -16.918   1.404  47.706  0.00  0.00     0.104 H 
ATOM    139  H   IDS d 402     -17.670   3.513  47.108  0.00  0.00     0.092 H 
ATOM    140  H   IDS d 402     -18.407   0.508  44.310  0.00  0.00     0.097 H 
ENDROOT
TORSDOF 45
ENDMDL
MODEL 29
REMARK VINA RESULT:      -1.5      3.711      5.463
REMARK  0 active torsions:
REMARK  status: ('A' for Active; 'I' for Inactive)
REMARK       I    between atoms: C5_1  and  C6_64 
REMARK       I    between atoms: C4_2  and  O4_32 
REMARK       I    between atoms: C1_3  and  O4_32 
REMARK       I    between atoms: S1_6  and  N_87 
REMARK       I    between atoms: S1_6  and  O1S_23 
REMARK       I    between atoms: S1_6  and  O2S_31 
REMARK       I    between atoms: S1_6  and  O3S_47 
REMARK       I    between atoms: N_7  and  C2_53 
REMARK       I    between atoms: N_7  and  S1_10 
REMARK       I    between atoms: C3_9  and  O3_14 
REMARK       I    between atoms: S1_10  and  O1S_52 
REMARK       I    between atoms: S1_10  and  O2S_17 
REMARK       I    between atoms: S1_10  and  O3S_80 
REMARK       I    between atoms: C5_12  and  C6_73 
REMARK       I    between atoms: S1_13  and  N_25 
REMARK       I    between atoms: S1_13  and  O1S_58 
REMARK       I    between atoms: S1_13  and  O2S_66 
REMARK       I    between atoms: S1_13  and  O3S_62 
REMARK       I    between atoms: S2_15  and  O6_41 
REMARK       I    between atoms: C3_16  and  O3_48 
REMARK       I    between atoms: C2_18  and  N_87 
REMARK       I    between atoms: C1_19  and  O4_39 
REMARK       I    between atoms: C3_20  and  O3_27 
REMARK       I    between atoms: C1_24  and  O1_84 
REMARK       I    between atoms: N_25  and  C2_78 
REMARK       I    between atoms: O4_28  and  C4_30 
REMARK       I    between atoms: O4_28  and  C1_86 
REMARK       I    between atoms: C2_34  and  O2_59 
REMARK       I    between atoms: O3_35  and  C3_60 
REMARK       I    between atoms: C5_37  and  C6_81 
REMARK       I    between atoms: O4_39  and  C4_79 
REMARK       I    between atoms: O4_40  and  C4_77 
REMARK       I    between atoms: O4_40  and  C1_61 
REMARK       I    between atoms: O6_41  and  C6_57 
REMARK       I    between atoms: O6_45  and  C6_81 
REMARK       I    between atoms: O6_45  and  S2_83 
REMARK       I    between atoms: C3_46  and  O3_72 
REMARK       I    between atoms: C5_50  and  C6_57 
REMARK       I    between atoms: O2_59  and  S_69 
REMARK       I    between atoms: O6_63  and  C6_64 
REMARK       I    between atoms: O6_63  and  S2_70 
REMARK       I    between atoms: C5_67  and  C6_88 
REMARK       I    between atoms: S_71  and  O2_89 
REMARK       I    between atoms: O4_75  and  C4_82 
REMARK       I    between atoms: C2_85  and  O2_89 
ROOT
ATOM      1  C5  SGN d 401      -9.019  -0.644  45.833  0.00  0.00     0.091 C 
ATOM      2  S1  SGN d 401      -7.153  -1.222  51.122  0.00  0.00     0.156 S 
ATOM      3  C3  SGN d 401      -9.549   0.006  48.214  0.00  0.00     0.083 C 
ATOM      4  C2  SGN d 401      -8.319  -0.830  48.627  0.00  0.00     0.081 C 
ATOM      5  O1S SGN d 401      -5.956  -0.927  50.357  0.00  0.00    -0.296 OA
ATOM      6  C1  SGN d 401      -8.173  -1.974  47.610  0.00  0.00     0.147 C 
ATOM      7  O2S SGN d 401      -7.490  -0.149  52.018  0.00  0.00    -0.296 OA
ATOM      8  O4  SGN d 401     -10.576   1.127  46.376  0.00  0.00    -0.348 OA
ATOM      9  O4S SGN d 401      -7.691   2.345  43.107  0.00  0.00    -0.572 OA
ATOM     10  O3S SGN d 401      -7.069  -2.502  51.793  0.00  0.00    -0.296 OA
ATOM     11  O3  SGN d 401      -9.681   1.123  49.073  0.00  0.00    -0.391 OA
ATOM     12  O5  SGN d 401      -7.959  -1.461  46.329  0.00  0.00    -0.350 OA
ATOM     13  O6S SGN d 401      -5.876   0.771  42.919  0.00  0.00    -0.572 OA
ATOM     14  O6  SGN d 401      -7.405   0.637  44.752  0.00  0.00    -0.254 OA
ATOM     15  C6  SGN d 401      -8.525  -0.160  44.477  0.00  0.00     0.067 C 
ATOM     16  S2  SGN d 401      -6.680   1.608  43.793  0.00  0.00     0.251 S 
ATOM     17  O5S SGN d 401      -5.899   2.449  44.660  0.00  0.00    -0.572 OA
ATOM     18  C4  SGN d 401      -9.367   0.537  46.790  0.00  0.00     0.095 C 
ATOM     19  O1  SGN d 401      -9.351  -2.798  47.593  0.00  0.00    -0.369 OA
ATOM     20  N   SGN d 401      -8.432  -1.366  50.029  0.00  0.00    -0.210 NA
ATOM     21  H   SGN d 401      -9.936  -1.191  45.758  0.00  0.00     0.090 H 
ATOM     22  H   SGN d 401     -10.415  -0.620  48.274  0.00  0.00     0.089 H 
ATOM     23  H   SGN d 401      -7.450  -0.206  48.624  0.00  0.00     0.076 H 
ATOM     24  H   SGN d 401      -6.052  -0.063  49.925  0.00  0.00     0.231 HD
ATOM     25  H   SGN d 401      -7.333  -2.568  47.904  0.00  0.00     0.131 H 
ATOM     26  H   SGN d 401      -7.534   0.684  51.523  0.00  0.00     0.231 HD
ATOM     27  H   SGN d 401      -6.840  -3.190  51.148  0.00  0.00     0.231 HD
ATOM     28  H   SGN d 401      -8.888   1.678  49.007  0.00  0.00     0.210 HD
ATOM     29  H   SGN d 401      -9.283   0.415  43.986  0.00  0.00     0.080 H 
ATOM     30  H   SGN d 401      -8.284  -0.976  43.826  0.00  0.00     0.080 H 
ATOM     31  H   SGN d 401      -8.575   1.256  46.766  0.00  0.00     0.091 H 
ATOM     32  H   SGN d 401     -10.115  -2.264  47.327  0.00  0.00     0.212 HD
ATOM     33  H   SGN d 401      -9.232  -0.897  50.455  0.00  0.00     0.140 HD
ATOM     34  C4  IDS d 404      -8.132  12.104  46.038  0.00  0.00     0.103 C 
ATOM     35  C5  IDS d 404      -9.600  11.794  45.766  0.00  0.00     0.152 C 
ATOM     36  O4  IDS d 404      -8.061  13.401  46.559  0.00  0.00    -0.348 OA
ATOM     37  O5  IDS d 404     -10.334  11.618  46.957  0.00  0.00    -0.340 OA
ATOM     38  C2  IDS d 404      -8.403  10.641  48.160  0.00  0.00     0.134 C 
ATOM     39  O62 IDS d 404     -10.440  12.734  43.741  0.00  0.00    -0.646 OA
ATOM     40  C3  IDS d 404      -7.474  11.101  47.026  0.00  0.00     0.094 C 
ATOM     41  O2  IDS d 404      -8.267  11.553  49.258  0.00  0.00    -0.244 OA
ATOM     42  O1S IDS d 404      -7.358  10.544  51.185  0.00  0.00    -0.572 OA
ATOM     43  O2S IDS d 404      -8.776  12.441  51.429  0.00  0.00    -0.572 OA
ATOM     44  S   IDS d 404      -8.523  11.207  50.757  0.00  0.00     0.252 S 
ATOM     45  O3  IDS d 404      -7.093   9.952  46.309  0.00  0.00    -0.390 OA
ATOM     46  C6  IDS d 404     -10.246  12.881  44.936  0.00  0.00     0.206 C 
ATOM     47  O3S IDS d 404      -9.621  10.314  50.786  0.00  0.00    -0.572 OA
ATOM     48  C1  IDS d 404      -9.899  10.513  47.759  0.00  0.00     0.161 C 
ATOM     49  O61 IDS d 404     -10.552  13.943  45.457  0.00  0.00    -0.646 OA
ATOM     50  H   IDS d 404      -7.590  12.017  45.120  0.00  0.00     0.092 H 
ATOM     51  H   IDS d 404      -9.619  10.875  45.218  0.00  0.00     0.104 H 
ATOM     52  H   IDS d 404      -8.098   9.651  48.428  0.00  0.00     0.097 H 
ATOM     53  H   IDS d 404      -6.648  11.615  47.470  0.00  0.00     0.091 H 
ATOM     54  H   IDS d 404      -7.881   9.530  45.931  0.00  0.00     0.210 HD
ATOM     55  H   IDS d 404     -10.496  10.542  48.646  0.00  0.00     0.133 H 
ATOM     56  C1  SGN d 405      -7.150  14.250  45.925  0.00  0.00     0.150 C 
ATOM     57  O6S SGN d 405      -5.986  15.853  42.414  0.00  0.00    -0.572 OA
ATOM     58  N   SGN d 405      -6.610  14.835  48.240  0.00  0.00    -0.210 NA
ATOM     59  S1  SGN d 405      -5.122  14.685  48.832  0.00  0.00     0.156 S 
ATOM     60  S2  SGN d 405      -6.875  16.727  41.655  0.00  0.00     0.251 S 
ATOM     61  O2S SGN d 405      -4.376  15.800  48.302  0.00  0.00    -0.296 OA
ATOM     62  C3  SGN d 405      -7.776  16.515  46.878  0.00  0.00     0.083 C 
ATOM     63  O5  SGN d 405      -7.594  14.726  44.634  0.00  0.00    -0.349 OA
ATOM     64  O3  SGN d 405      -7.288  17.583  47.668  0.00  0.00    -0.391 OA
ATOM     65  O6  SGN d 405      -8.125  17.061  42.593  0.00  0.00    -0.254 OA
ATOM     66  O5S SGN d 405      -6.278  17.998  41.322  0.00  0.00    -0.572 OA
ATOM     67  C5  SGN d 405      -8.554  15.818  44.669  0.00  0.00     0.090 C 
ATOM     68  O4S SGN d 405      -7.394  16.077  40.504  0.00  0.00    -0.572 OA
ATOM     69  O1S SGN d 405      -4.638  13.415  48.357  0.00  0.00    -0.296 OA
ATOM     70  C2  SGN d 405      -6.760  15.378  46.893  0.00  0.00     0.081 C 
ATOM     71  C6  SGN d 405      -9.014  16.147  43.223  0.00  0.00     0.067 C 
ATOM     72  O4  SGN d 405      -8.794  18.125  45.384  0.00  0.00    -0.390 OA
ATOM     73  O3S SGN d 405      -5.209  14.691  50.255  0.00  0.00    -0.296 OA
ATOM     74  C4  SGN d 405      -7.934  16.989  45.422  0.00  0.00     0.089 C 
ATOM     75  H   SGN d 405      -6.274  13.683  45.687  0.00  0.00     0.131 H 
ATOM     76  H   SGN d 405      -7.033  13.907  48.241  0.00  0.00     0.140 HD
ATOM     77  H   SGN d 405      -4.351  15.742  47.334  0.00  0.00     0.231 HD
ATOM     78  H   SGN d 405      -8.717  16.187  47.270  0.00  0.00     0.089 H 
ATOM     79  H   SGN d 405      -6.436  17.883  47.316  0.00  0.00     0.210 HD
ATOM     80  H   SGN d 405      -9.444  15.554  45.202  0.00  0.00     0.090 H 
ATOM     81  H   SGN d 405      -4.586  13.431  47.388  0.00  0.00     0.231 HD
ATOM     82  H   SGN d 405      -5.826  15.788  46.569  0.00  0.00     0.076 H 
ATOM     83  H   SGN d 405      -9.045  15.242  42.653  0.00  0.00     0.080 H 
ATOM     84  H   SGN d 405      -9.984  16.596  43.271  0.00  0.00     0.080 H 
ATOM     85  H   SGN d 405      -8.383  18.858  45.867  0.00  0.00     0.210 HD
ATOM     86  H   SGN d 405      -5.719  13.921  50.551  0.00  0.00     0.231 HD
ATOM     87  H   SGN d 405      -7.000  17.276  44.985  0.00  0.00     0.091 H 
ATOM     88  O5S SGN d 403     -14.631   9.440  51.334  0.00  0.00    -0.572 OA
ATOM     89  C3  SGN d 403     -11.620   8.208  45.672  0.00  0.00     0.083 C 
ATOM     90  O5  SGN d 403     -12.795   6.953  47.921  0.00  0.00    -0.349 OA
ATOM     91  S1  SGN d 403     -14.751   7.261  43.706  0.00  0.00     0.156 S 
ATOM     92  O3  SGN d 403     -11.564   9.253  44.748  0.00  0.00    -0.391 OA
ATOM     93  O4S SGN d 403     -13.225  11.000  50.110  0.00  0.00    -0.572 OA
ATOM     94  N   SGN d 403     -13.273   7.002  44.300  0.00  0.00    -0.210 NA
ATOM     95  O4  SGN d 403     -10.109   9.281  47.119  0.00  0.00    -0.348 OA
ATOM     96  O6S SGN d 403     -12.390   9.809  51.989  0.00  0.00    -0.572 OA
ATOM     97  C4  SGN d 403     -11.418   8.792  47.061  0.00  0.00     0.095 C 
ATOM     98  C5  SGN d 403     -11.585   7.657  48.101  0.00  0.00     0.091 C 
ATOM     99  O6  SGN d 403     -12.911   8.627  49.888  0.00  0.00    -0.254 OA
ATOM    100  O1S SGN d 403     -15.654   7.291  44.828  0.00  0.00    -0.296 OA
ATOM    101  C1  SGN d 403     -13.024   6.429  46.620  0.00  0.00     0.150 C 
ATOM    102  O3S SGN d 403     -15.037   6.155  42.857  0.00  0.00    -0.296 OA
ATOM    103  O2S SGN d 403     -14.667   8.538  43.022  0.00  0.00    -0.296 OA
ATOM    104  C2  SGN d 403     -12.974   7.543  45.609  0.00  0.00     0.081 C 
ATOM    105  C6  SGN d 403     -11.617   8.124  49.575  0.00  0.00     0.067 C 
ATOM    106  S2  SGN d 403     -13.304   9.782  50.903  0.00  0.00     0.251 S 
ATOM    107  H   SGN d 403     -10.863   7.485  45.453  0.00  0.00     0.089 H 
ATOM    108  H   SGN d 403     -12.252   9.904  44.954  0.00  0.00     0.210 HD
ATOM    109  H   SGN d 403     -12.604   7.404  43.643  0.00  0.00     0.140 HD
ATOM    110  H   SGN d 403     -12.123   9.570  47.266  0.00  0.00     0.091 H 
ATOM    111  H   SGN d 403     -10.718   7.054  47.928  0.00  0.00     0.090 H 
ATOM    112  H   SGN d 403     -15.443   8.050  45.394  0.00  0.00     0.231 HD
ATOM    113  H   SGN d 403     -13.992   5.973  46.641  0.00  0.00     0.131 H 
ATOM    114  H   SGN d 403     -15.077   5.343  43.386  0.00  0.00     0.231 HD
ATOM    115  H   SGN d 403     -14.470   9.236  43.666  0.00  0.00     0.231 HD
ATOM    116  H   SGN d 403     -13.706   8.294  45.822  0.00  0.00     0.076 H 
ATOM    117  H   SGN d 403     -10.891   8.896  49.720  0.00  0.00     0.080 H 
ATOM    118  H   SGN d 403     -11.393   7.297  50.215  0.00  0.00     0.080 H 
ATOM    119  O62 IDS d 402     -10.286   4.729  49.528  0.00  0.00    -0.646 OA
ATOM    120  C1  IDS d 402     -10.479   2.284  45.578  0.00  0.00     0.161 C 
ATOM    121  O3S IDS d 402     -11.059   1.959  42.274  0.00  0.00    -0.572 OA
ATOM    122  O3  IDS d 402     -13.336   2.125  46.750  0.00  0.00    -0.390 OA
ATOM    123  O5  IDS d 402     -10.011   3.391  46.305  0.00  0.00    -0.340 OA
ATOM    124  O4  IDS d 402     -12.112   5.431  46.253  0.00  0.00    -0.348 OA
ATOM    125  O61 IDS d 402      -9.262   5.560  47.865  0.00  0.00    -0.646 OA
ATOM    126  O1S IDS d 402     -12.791   3.556  41.849  0.00  0.00    -0.572 OA
ATOM    127  O2S IDS d 402     -10.536   4.268  42.022  0.00  0.00    -0.572 OA
ATOM    128  C3  IDS d 402     -12.851   3.191  45.978  0.00  0.00     0.094 C 
ATOM    129  C5  IDS d 402     -10.837   3.748  47.407  0.00  0.00     0.152 C 
ATOM    130  S   IDS d 402     -11.498   3.324  42.433  0.00  0.00     0.252 S 
ATOM    131  C4  IDS d 402     -12.231   4.212  46.924  0.00  0.00     0.103 C 
ATOM    132  C2  IDS d 402     -11.839   2.621  44.968  0.00  0.00     0.134 C 
ATOM    133  C6  IDS d 402     -10.081   4.735  48.324  0.00  0.00     0.206 C 
ATOM    134  O2  IDS d 402     -11.664   3.580  43.961  0.00  0.00    -0.244 OA
ATOM    135  H   IDS d 402      -9.773   2.072  44.803  0.00  0.00     0.133 H 
ATOM    136  H   IDS d 402     -13.737   1.460  46.168  0.00  0.00     0.210 HD
ATOM    137  H   IDS d 402     -13.622   3.684  45.425  0.00  0.00     0.091 H 
ATOM    138  H   IDS d 402     -11.047   2.896  48.019  0.00  0.00     0.104 H 
ATOM    139  H   IDS d 402     -12.862   4.318  47.782  0.00  0.00     0.092 H 
ATOM    140  H   IDS d 402     -12.234   1.699  44.596  0.00  0.00     0.097 H 
ENDROOT
TORSDOF 45
ENDMDL
MODEL 30
REMARK VINA RESULT:      -0.9      4.497     14.099
REMARK  0 active torsions:
REMARK  status: ('A' for Active; 'I' for Inactive)
REMARK       I    between atoms: C5_1  and  C6_64 
REMARK       I    between atoms: C4_2  and  O4_32 
REMARK       I    between atoms: C1_3  and  O4_32 
REMARK       I    between atoms: S1_6  and  N_87 
REMARK       I    between atoms: S1_6  and  O1S_23 
REMARK       I    between atoms: S1_6  and  O2S_31 
REMARK       I    between atoms: S1_6  and  O3S_47 
REMARK       I    between atoms: N_7  and  C2_53 
REMARK       I    between atoms: N_7  and  S1_10 
REMARK       I    between atoms: C3_9  and  O3_14 
REMARK       I    between atoms: S1_10  and  O1S_52 
REMARK       I    between atoms: S1_10  and  O2S_17 
REMARK       I    between atoms: S1_10  and  O3S_80 
REMARK       I    between atoms: C5_12  and  C6_73 
REMARK       I    between atoms: S1_13  and  N_25 
REMARK       I    between atoms: S1_13  and  O1S_58 
REMARK       I    between atoms: S1_13  and  O2S_66 
REMARK       I    between atoms: S1_13  and  O3S_62 
REMARK       I    between atoms: S2_15  and  O6_41 
REMARK       I    between atoms: C3_16  and  O3_48 
REMARK       I    between atoms: C2_18  and  N_87 
REMARK       I    between atoms: C1_19  and  O4_39 
REMARK       I    between atoms: C3_20  and  O3_27 
REMARK       I    between atoms: C1_24  and  O1_84 
REMARK       I    between atoms: N_25  and  C2_78 
REMARK       I    between atoms: O4_28  and  C4_30 
REMARK       I    between atoms: O4_28  and  C1_86 
REMARK       I    between atoms: C2_34  and  O2_59 
REMARK       I    between atoms: O3_35  and  C3_60 
REMARK       I    between atoms: C5_37  and  C6_81 
REMARK       I    between atoms: O4_39  and  C4_79 
REMARK       I    between atoms: O4_40  and  C4_77 
REMARK       I    between atoms: O4_40  and  C1_61 
REMARK       I    between atoms: O6_41  and  C6_57 
REMARK       I    between atoms: O6_45  and  C6_81 
REMARK       I    between atoms: O6_45  and  S2_83 
REMARK       I    between atoms: C3_46  and  O3_72 
REMARK       I    between atoms: C5_50  and  C6_57 
REMARK       I    between atoms: O2_59  and  S_69 
REMARK       I    between atoms: O6_63  and  C6_64 
REMARK       I    between atoms: O6_63  and  S2_70 
REMARK       I    between atoms: C5_67  and  C6_88 
REMARK       I    between atoms: S_71  and  O2_89 
REMARK       I    between atoms: O4_75  and  C4_82 
REMARK       I    between atoms: C2_85  and  O2_89 
ROOT
ATOM      1  C5  SGN d 401      -8.443  15.888  48.213  0.00  0.00     0.091 C 
ATOM      2  S1  SGN d 401      -6.882  16.637  42.847  0.00  0.00     0.156 S 
ATOM      3  C3  SGN d 401      -9.130  15.348  45.844  0.00  0.00     0.083 C 
ATOM      4  C2  SGN d 401      -7.906  16.171  45.391  0.00  0.00     0.081 C 
ATOM      5  O1S SGN d 401      -5.649  16.284  43.526  0.00  0.00    -0.296 OA
ATOM      6  C1  SGN d 401      -7.671  17.269  46.441  0.00  0.00     0.147 C 
ATOM      7  O2S SGN d 401      -7.300  15.609  41.931  0.00  0.00    -0.296 OA
ATOM      8  O4  SGN d 401     -10.073  14.177  47.697  0.00  0.00    -0.348 OA
ATOM      9  O4S SGN d 401      -7.031  12.761  50.734  0.00  0.00    -0.572 OA
ATOM     10  O3S SGN d 401      -6.806  17.941  42.223  0.00  0.00    -0.296 OA
ATOM     11  O3  SGN d 401      -9.342  14.270  44.952  0.00  0.00    -0.391 OA
ATOM     12  O5  SGN d 401      -7.393  16.699  47.685  0.00  0.00    -0.350 OA
ATOM     13  O6S SGN d 401      -5.168  14.284  50.873  0.00  0.00    -0.572 OA
ATOM     14  O6  SGN d 401      -6.800  14.527  49.143  0.00  0.00    -0.254 OA
ATOM     15  C6  SGN d 401      -7.881  15.338  49.516  0.00  0.00     0.067 C 
ATOM     16  S2  SGN d 401      -6.044  13.502  50.017  0.00  0.00     0.251 S 
ATOM     17  O5S SGN d 401      -5.338  12.679  49.072  0.00  0.00    -0.572 OA
ATOM     18  C4  SGN d 401      -8.877  14.755  47.234  0.00  0.00     0.095 C 
ATOM     19  O1  SGN d 401      -8.824  18.118  46.561  0.00  0.00    -0.369 OA
ATOM     20  N   SGN d 401      -8.090  16.766  44.020  0.00  0.00    -0.210 NA
ATOM     21  H   SGN d 401      -9.339  16.452  48.365  0.00  0.00     0.090 H 
ATOM     22  H   SGN d 401      -9.983  15.995  45.863  0.00  0.00     0.089 H 
ATOM     23  H   SGN d 401      -7.055  15.528  45.317  0.00  0.00     0.076 H 
ATOM     24  H   SGN d 401      -5.742  15.406  43.928  0.00  0.00     0.231 HD
ATOM     25  H   SGN d 401      -6.835  17.855  46.120  0.00  0.00     0.131 H 
ATOM     26  H   SGN d 401      -7.335  14.758  42.395  0.00  0.00     0.231 HD
ATOM     27  H   SGN d 401      -6.521  18.597  42.878  0.00  0.00     0.231 HD
ATOM     28  H   SGN d 401      -8.561  13.694  44.949  0.00  0.00     0.210 HD
ATOM     29  H   SGN d 401      -8.622  14.761  50.030  0.00  0.00     0.080 H 
ATOM     30  H   SGN d 401      -7.581  16.121  50.183  0.00  0.00     0.080 H 
ATOM     31  H   SGN d 401      -8.104  14.018  47.181  0.00  0.00     0.091 H 
ATOM     32  H   SGN d 401      -9.585  17.592  46.853  0.00  0.00     0.212 HD
ATOM     33  H   SGN d 401      -8.925  16.333  43.626  0.00  0.00     0.140 HD
ATOM     34  C4  IDS d 404      -7.893   3.142  47.455  0.00  0.00     0.103 C 
ATOM     35  C5  IDS d 404      -9.335   3.474  47.828  0.00  0.00     0.152 C 
ATOM     36  O4  IDS d 404      -7.887   1.865  46.881  0.00  0.00    -0.348 OA
ATOM     37  O5  IDS d 404     -10.134   3.715  46.692  0.00  0.00    -0.340 OA
ATOM     38  C2  IDS d 404      -8.254   4.695  45.413  0.00  0.00     0.134 C 
ATOM     39  O62 IDS d 404     -10.076   2.472  49.862  0.00  0.00    -0.646 OA
ATOM     40  C3  IDS d 404      -7.271   4.168  46.470  0.00  0.00     0.094 C 
ATOM     41  O2  IDS d 404      -8.207   3.826  44.274  0.00  0.00    -0.244 OA
ATOM     42  O1S IDS d 404      -7.389   4.891  42.336  0.00  0.00    -0.572 OA
ATOM     43  O2S IDS d 404      -8.868   3.038  42.105  0.00  0.00    -0.572 OA
ATOM     44  S   IDS d 404      -8.543   4.238  42.808  0.00  0.00     0.252 S 
ATOM     45  O3  IDS d 404      -6.818   5.279  47.207  0.00  0.00    -0.390 OA
ATOM     46  C6  IDS d 404      -9.957   2.370  48.653  0.00  0.00     0.206 C 
ATOM     47  O3S IDS d 404      -9.619   5.157  42.881  0.00  0.00    -0.572 OA
ATOM     48  C1  IDS d 404      -9.720   4.841  45.909  0.00  0.00     0.161 C 
ATOM     49  O61 IDS d 404     -10.321   1.337  48.111  0.00  0.00    -0.646 OA
ATOM     50  H   IDS d 404      -7.296   3.179  48.342  0.00  0.00     0.092 H 
ATOM     51  H   IDS d 404      -9.297   4.370  48.412  0.00  0.00     0.104 H 
ATOM     52  H   IDS d 404      -7.941   5.688  45.166  0.00  0.00     0.097 H 
ATOM     53  H   IDS d 404      -6.486   3.654  45.956  0.00  0.00     0.091 H 
ATOM     54  H   IDS d 404      -7.571   5.703  47.648  0.00  0.00     0.210 HD
ATOM     55  H   IDS d 404     -10.369   4.862  45.060  0.00  0.00     0.133 H 
ATOM     56  C1  SGN d 405      -6.962   0.971  47.425  0.00  0.00     0.150 C 
ATOM     57  O6S SGN d 405      -5.631  -0.800  50.793  0.00  0.00    -0.572 OA
ATOM     58  N   SGN d 405      -6.577   0.468  45.061  0.00  0.00    -0.210 NA
ATOM     59  S1  SGN d 405      -5.123   0.607  44.385  0.00  0.00     0.156 S 
ATOM     60  S2  SGN d 405      -6.495  -1.683  51.570  0.00  0.00     0.251 S 
ATOM     61  O2S SGN d 405      -4.375  -0.545  44.825  0.00  0.00    -0.296 OA
ATOM     62  C3  SGN d 405      -7.702  -1.239  46.424  0.00  0.00     0.083 C 
ATOM     63  O5  SGN d 405      -7.340   0.453  48.721  0.00  0.00    -0.349 OA
ATOM     64  O3  SGN d 405      -7.289  -2.285  45.564  0.00  0.00    -0.391 OA
ATOM     65  O6  SGN d 405      -7.807  -1.950  50.697  0.00  0.00    -0.254 OA
ATOM     66  O5S SGN d 405      -5.912  -2.980  51.816  0.00  0.00    -0.572 OA
ATOM     67  C5  SGN d 405      -8.328  -0.615  48.702  0.00  0.00     0.090 C 
ATOM     68  O4S SGN d 405      -6.928  -1.069  52.775  0.00  0.00    -0.572 OA
ATOM     69  O1S SGN d 405      -4.580   1.846  44.879  0.00  0.00    -0.296 OA
ATOM     70  C2  SGN d 405      -6.659  -0.125  46.392  0.00  0.00     0.081 C 
ATOM     71  C6  SGN d 405      -8.709  -0.991  50.159  0.00  0.00     0.067 C 
ATOM     72  O4  SGN d 405      -8.669  -2.884  47.913  0.00  0.00    -0.390 OA
ATOM     73  O3S SGN d 405      -5.295   0.662  42.971  0.00  0.00    -0.296 OA
ATOM     74  C4  SGN d 405      -7.784  -1.768  47.867  0.00  0.00     0.089 C 
ATOM     75  H   SGN d 405      -6.059   1.507  47.631  0.00  0.00     0.131 H 
ATOM     76  H   SGN d 405      -6.975   1.405  45.121  0.00  0.00     0.140 HD
ATOM     77  H   SGN d 405      -4.291  -0.527  45.791  0.00  0.00     0.231 HD
ATOM     78  H   SGN d 405      -8.655  -0.873  46.103  0.00  0.00     0.089 H 
ATOM     79  H   SGN d 405      -6.425  -2.618  45.852  0.00  0.00     0.210 HD
ATOM     80  H   SGN d 405      -9.241  -0.309  48.235  0.00  0.00     0.090 H 
ATOM     81  H   SGN d 405      -4.470   1.790  45.842  0.00  0.00     0.231 HD
ATOM     82  H   SGN d 405      -5.718  -0.570  46.642  0.00  0.00     0.076 H 
ATOM     83  H   SGN d 405      -8.683  -0.110  50.765  0.00  0.00     0.080 H 
ATOM     84  H   SGN d 405      -9.690  -1.416  50.153  0.00  0.00     0.080 H 
ATOM     85  H   SGN d 405      -8.306  -3.607  47.377  0.00  0.00     0.210 HD
ATOM     86  H   SGN d 405      -5.802   1.454  42.736  0.00  0.00     0.231 HD
ATOM     87  H   SGN d 405      -6.833  -2.094  48.235  0.00  0.00     0.091 H 
ATOM     88  O5S SGN d 403     -14.628   6.167  42.672  0.00  0.00    -0.572 OA
ATOM     89  C3  SGN d 403     -11.254   7.099  48.185  0.00  0.00     0.083 C 
ATOM     90  O5  SGN d 403     -12.529   8.471  46.063  0.00  0.00    -0.349 OA
ATOM     91  S1  SGN d 403     -14.236   8.037  50.374  0.00  0.00     0.156 S 
ATOM     92  O3  SGN d 403     -11.169   6.016  49.062  0.00  0.00    -0.391 OA
ATOM     93  O4S SGN d 403     -13.192   4.526  43.747  0.00  0.00    -0.572 OA
ATOM     94  N   SGN d 403     -12.790   8.286  49.701  0.00  0.00    -0.210 NA
ATOM     95  O4  SGN d 403      -9.860   6.051  46.608  0.00  0.00    -0.348 OA
ATOM     96  O6S SGN d 403     -12.440   5.774  41.868  0.00  0.00    -0.572 OA
ATOM     97  C4  SGN d 403     -11.150   6.568  46.764  0.00  0.00     0.095 C 
ATOM     98  C5  SGN d 403     -11.350   7.747  45.782  0.00  0.00     0.091 C 
ATOM     99  O6  SGN d 403     -12.804   6.881  44.043  0.00  0.00    -0.254 OA
ATOM    100  O1S SGN d 403     -15.205   8.074  49.308  0.00  0.00    -0.296 OA
ATOM    101  C1  SGN d 403     -12.666   8.947  47.395  0.00  0.00     0.150 C 
ATOM    102  O3S SGN d 403     -14.443   9.114  51.281  0.00  0.00    -0.296 OA
ATOM    103  O2S SGN d 403     -14.144   6.732  51.000  0.00  0.00    -0.296 OA
ATOM    104  C2  SGN d 403     -12.584   7.792  48.356  0.00  0.00     0.081 C 
ATOM    105  C6  SGN d 403     -11.482   7.341  44.295  0.00  0.00     0.067 C 
ATOM    106  S2  SGN d 403     -13.287   5.778  43.009  0.00  0.00     0.251 S 
ATOM    107  H   SGN d 403     -10.467   7.795  48.386  0.00  0.00     0.089 H 
ATOM    108  H   SGN d 403     -11.884   5.390  48.873  0.00  0.00     0.210 HD
ATOM    109  H   SGN d 403     -12.094   7.842  50.301  0.00  0.00     0.140 HD
ATOM    110  H   SGN d 403     -11.885   5.814  46.573  0.00  0.00     0.091 H 
ATOM    111  H   SGN d 403     -10.459   8.323  45.926  0.00  0.00     0.090 H 
ATOM    112  H   SGN d 403     -15.047   7.334  48.701  0.00  0.00     0.231 HD
ATOM    113  H   SGN d 403     -13.622   9.425  47.450  0.00  0.00     0.131 H 
ATOM    114  H   SGN d 403     -14.494   9.947  50.787  0.00  0.00     0.231 HD
ATOM    115  H   SGN d 403     -14.004   6.056  50.319  0.00  0.00     0.231 HD
ATOM    116  H   SGN d 403     -13.347   7.067  48.159  0.00  0.00     0.076 H 
ATOM    117  H   SGN d 403     -10.786   6.559  44.076  0.00  0.00     0.080 H 
ATOM    118  H   SGN d 403     -11.275   8.188  43.676  0.00  0.00     0.080 H 
ATOM    119  O62 IDS d 402     -10.065  10.700  44.395  0.00  0.00    -0.646 OA
ATOM    120  C1  IDS d 402      -9.959  12.986  48.442  0.00  0.00     0.161 C 
ATOM    121  O3S IDS d 402     -10.331  13.191  51.785  0.00  0.00    -0.572 OA
ATOM    122  O3  IDS d 402     -12.876  13.259  47.453  0.00  0.00    -0.390 OA
ATOM    123  O5  IDS d 402      -9.563  11.899  47.645  0.00  0.00    -0.340 OA
ATOM    124  O4  IDS d 402     -11.708   9.907  47.745  0.00  0.00    -0.348 OA
ATOM    125  O61 IDS d 402      -8.965   9.779  45.958  0.00  0.00    -0.646 OA
ATOM    126  O1S IDS d 402     -12.075  11.618  52.251  0.00  0.00    -0.572 OA
ATOM    127  O2S IDS d 402      -9.853  10.862  51.914  0.00  0.00    -0.572 OA
ATOM    128  C3  IDS d 402     -12.372  12.152  48.151  0.00  0.00     0.094 C 
ATOM    129  C5  IDS d 402     -10.462  11.606  46.582  0.00  0.00     0.152 C 
ATOM    130  S   IDS d 402     -10.814  11.844  51.599  0.00  0.00     0.252 S 
ATOM    131  C4  IDS d 402     -11.836  11.155  47.130  0.00  0.00     0.103 C 
ATOM    132  C2  IDS d 402     -11.288  12.656  49.119  0.00  0.00     0.134 C 
ATOM    133  C6  IDS d 402      -9.788  10.640  45.582  0.00  0.00     0.206 C 
ATOM    134  O2  IDS d 402     -11.077  11.654  50.075  0.00  0.00    -0.244 OA
ATOM    135  H   IDS d 402      -9.202  13.151  49.180  0.00  0.00     0.133 H 
ATOM    136  H   IDS d 402     -13.224  13.909  48.084  0.00  0.00     0.210 HD
ATOM    137  H   IDS d 402     -13.121  11.654  48.731  0.00  0.00     0.091 H 
ATOM    138  H   IDS d 402     -10.687  12.488  46.018  0.00  0.00     0.104 H 
ATOM    139  H   IDS d 402     -12.520  11.099  46.309  0.00  0.00     0.092 H 
ATOM    140  H   IDS d 402     -11.636  13.571  49.551  0.00  0.00     0.097 H 
ENDROOT
TORSDOF 45
ENDMDL
MODEL 31
REMARK VINA RESULT:      -0.9      4.021      6.357
REMARK  0 active torsions:
REMARK  status: ('A' for Active; 'I' for Inactive)
REMARK       I    between atoms: C5_1  and  C6_64 
REMARK       I    between atoms: C4_2  and  O4_32 
REMARK       I    between atoms: C1_3  and  O4_32 
REMARK       I    between atoms: S1_6  and  N_87 
REMARK       I    between atoms: S1_6  and  O1S_23 
REMARK       I    between atoms: S1_6  and  O2S_31 
REMARK       I    between atoms: S1_6  and  O3S_47 
REMARK       I    between atoms: N_7  and  C2_53 
REMARK       I    between atoms: N_7  and  S1_10 
REMARK       I    between atoms: C3_9  and  O3_14 
REMARK       I    between atoms: S1_10  and  O1S_52 
REMARK       I    between atoms: S1_10  and  O2S_17 
REMARK       I    between atoms: S1_10  and  O3S_80 
REMARK       I    between atoms: C5_12  and  C6_73 
REMARK       I    between atoms: S1_13  and  N_25 
REMARK       I    between atoms: S1_13  and  O1S_58 
REMARK       I    between atoms: S1_13  and  O2S_66 
REMARK       I    between atoms: S1_13  and  O3S_62 
REMARK       I    between atoms: S2_15  and  O6_41 
REMARK       I    between atoms: C3_16  and  O3_48 
REMARK       I    between atoms: C2_18  and  N_87 
REMARK       I    between atoms: C1_19  and  O4_39 
REMARK       I    between atoms: C3_20  and  O3_27 
REMARK       I    between atoms: C1_24  and  O1_84 
REMARK       I    between atoms: N_25  and  C2_78 
REMARK       I    between atoms: O4_28  and  C4_30 
REMARK       I    between atoms: O4_28  and  C1_86 
REMARK       I    between atoms: C2_34  and  O2_59 
REMARK       I    between atoms: O3_35  and  C3_60 
REMARK       I    between atoms: C5_37  and  C6_81 
REMARK       I    between atoms: O4_39  and  C4_79 
REMARK       I    between atoms: O4_40  and  C4_77 
REMARK       I    between atoms: O4_40  and  C1_61 
REMARK       I    between atoms: O6_41  and  C6_57 
REMARK       I    between atoms: O6_45  and  C6_81 
REMARK       I    between atoms: O6_45  and  S2_83 
REMARK       I    between atoms: C3_46  and  O3_72 
REMARK       I    between atoms: C5_50  and  C6_57 
REMARK       I    between atoms: O2_59  and  S_69 
REMARK       I    between atoms: O6_63  and  C6_64 
REMARK       I    between atoms: O6_63  and  S2_70 
REMARK       I    between atoms: C5_67  and  C6_88 
REMARK       I    between atoms: S_71  and  O2_89 
REMARK       I    between atoms: O4_75  and  C4_82 
REMARK       I    between atoms: C2_85  and  O2_89 
ROOT
ATOM      1  C5  SGN d 401      -9.318   0.482  46.466  0.00  0.00     0.091 C 
ATOM      2  S1  SGN d 401      -5.222   2.180  49.949  0.00  0.00     0.156 S 
ATOM      3  C3  SGN d 401      -8.928   1.756  48.611  0.00  0.00     0.083 C 
ATOM      4  C2  SGN d 401      -7.431   1.421  48.438  0.00  0.00     0.081 C 
ATOM      5  O1S SGN d 401      -4.702   2.471  48.626  0.00  0.00    -0.296 OA
ATOM      6  C1  SGN d 401      -7.339   0.069  47.712  0.00  0.00     0.147 C 
ATOM      7  O2S SGN d 401      -5.497   3.383  50.689  0.00  0.00    -0.296 OA
ATOM      8  O4  SGN d 401     -11.003   1.915  47.446  0.00  0.00    -0.348 OA
ATOM      9  O4S SGN d 401     -10.577   2.597  42.991  0.00  0.00    -0.572 OA
ATOM     10  O3S SGN d 401      -4.375   1.260  50.677  0.00  0.00    -0.296 OA
ATOM     11  O3  SGN d 401      -9.070   3.033  49.204  0.00  0.00    -0.391 OA
ATOM     12  O5  SGN d 401      -7.929   0.154  46.450  0.00  0.00    -0.350 OA
ATOM     13  O6S SGN d 401      -8.596   1.523  42.134  0.00  0.00    -0.572 OA
ATOM     14  O6  SGN d 401      -8.969   1.662  44.492  0.00  0.00    -0.254 OA
ATOM     15  C6  SGN d 401      -9.704   0.581  44.997  0.00  0.00     0.067 C 
ATOM     16  S2  SGN d 401      -9.172   2.393  43.145  0.00  0.00     0.251 S 
ATOM     17  O5S SGN d 401      -8.465   3.636  43.303  0.00  0.00    -0.572 OA
ATOM     18  C4  SGN d 401      -9.616   1.801  47.244  0.00  0.00     0.095 C 
ATOM     19  O1  SGN d 401      -7.995  -0.964  48.468  0.00  0.00    -0.369 OA
ATOM     20  N   SGN d 401      -6.696   1.380  49.751  0.00  0.00    -0.210 NA
ATOM     21  H   SGN d 401      -9.892  -0.256  46.986  0.00  0.00     0.090 H 
ATOM     22  H   SGN d 401      -9.371   1.002  49.229  0.00  0.00     0.089 H 
ATOM     23  H   SGN d 401      -6.960   2.192  47.866  0.00  0.00     0.076 H 
ATOM     24  H   SGN d 401      -5.297   3.089  48.173  0.00  0.00     0.231 HD
ATOM     25  H   SGN d 401      -6.302  -0.177  47.609  0.00  0.00     0.131 H 
ATOM     26  H   SGN d 401      -6.066   3.964  50.161  0.00  0.00     0.231 HD
ATOM     27  H   SGN d 401      -4.219   0.468  50.139  0.00  0.00     0.231 HD
ATOM     28  H   SGN d 401      -8.663   3.703  48.630  0.00  0.00     0.210 HD
ATOM     29  H   SGN d 401     -10.754   0.761  44.897  0.00  0.00     0.080 H 
ATOM     30  H   SGN d 401      -9.494  -0.326  44.468  0.00  0.00     0.080 H 
ATOM     31  H   SGN d 401      -9.252   2.633  46.679  0.00  0.00     0.091 H 
ATOM     32  H   SGN d 401      -8.935  -0.746  48.564  0.00  0.00     0.212 HD
ATOM     33  H   SGN d 401      -7.331   1.764  50.451  0.00  0.00     0.140 HD
ATOM     34  C4  IDS d 404     -13.278  12.380  43.996  0.00  0.00     0.103 C 
ATOM     35  C5  IDS d 404     -14.477  11.662  44.607  0.00  0.00     0.152 C 
ATOM     36  O4  IDS d 404     -13.474  13.755  44.169  0.00  0.00    -0.348 OA
ATOM     37  O5  IDS d 404     -14.475  11.732  46.015  0.00  0.00    -0.340 OA
ATOM     38  C2  IDS d 404     -12.003  11.700  46.147  0.00  0.00     0.134 C 
ATOM     39  O62 IDS d 404     -16.417  11.638  43.218  0.00  0.00    -0.646 OA
ATOM     40  C3  IDS d 404     -11.927  11.954  44.633  0.00  0.00     0.094 C 
ATOM     41  O2  IDS d 404     -11.743  12.934  46.829  0.00  0.00    -0.244 OA
ATOM     42  O1S IDS d 404      -9.765  12.878  48.111  0.00  0.00    -0.572 OA
ATOM     43  O2S IDS d 404     -11.519  14.359  48.747  0.00  0.00    -0.572 OA
ATOM     44  S   IDS d 404     -11.151  13.065  48.265  0.00  0.00     0.252 S 
ATOM     45  O3  IDS d 404     -11.507  10.753  44.031  0.00  0.00    -0.390 OA
ATOM     46  C6  IDS d 404     -15.780  12.220  44.079  0.00  0.00     0.206 C 
ATOM     47  O3S IDS d 404     -11.697  12.004  49.028  0.00  0.00    -0.572 OA
ATOM     48  C1  IDS d 404     -13.350  11.098  46.635  0.00  0.00     0.161 C 
ATOM     49  O61 IDS d 404     -16.194  13.293  44.494  0.00  0.00    -0.646 OA
ATOM     50  H   IDS d 404     -13.216  12.117  42.960  0.00  0.00     0.092 H 
ATOM     51  H   IDS d 404     -14.393  10.635  44.319  0.00  0.00     0.104 H 
ATOM     52  H   IDS d 404     -11.265  10.960  46.374  0.00  0.00     0.097 H 
ATOM     53  H   IDS d 404     -11.250  12.766  44.472  0.00  0.00     0.091 H 
ATOM     54  H   IDS d 404     -12.159  10.056  44.210  0.00  0.00     0.210 HD
ATOM     55  H   IDS d 404     -13.449  11.284  47.683  0.00  0.00     0.133 H 
ATOM     56  C1  SGN d 405     -13.335  14.528  43.013  0.00  0.00     0.150 C 
ATOM     57  O6S SGN d 405     -14.558  15.075  39.211  0.00  0.00    -0.572 OA
ATOM     58  N   SGN d 405     -12.081  15.970  44.542  0.00  0.00    -0.210 NA
ATOM     59  S1  SGN d 405     -10.551  16.382  44.264  0.00  0.00     0.156 S 
ATOM     60  S2  SGN d 405     -15.947  15.406  38.908  0.00  0.00     0.251 S 
ATOM     61  O2S SGN d 405     -10.599  17.394  43.237  0.00  0.00    -0.296 OA
ATOM     62  C3  SGN d 405     -14.266  16.768  43.752  0.00  0.00     0.083 C 
ATOM     63  O5  SGN d 405     -14.451  14.421  42.100  0.00  0.00    -0.349 OA
ATOM     64  O3  SGN d 405     -13.916  18.123  43.964  0.00  0.00    -0.391 OA
ATOM     65  O6  SGN d 405     -16.668  15.736  40.296  0.00  0.00    -0.254 OA
ATOM     66  O5S SGN d 405     -16.087  16.593  38.098  0.00  0.00    -0.572 OA
ATOM     67  C5  SGN d 405     -15.624  15.204  42.455  0.00  0.00     0.090 C 
ATOM     68  O4S SGN d 405     -16.640  14.304  38.342  0.00  0.00    -0.572 OA
ATOM     69  O1S SGN d 405      -9.895  15.176  43.828  0.00  0.00    -0.296 OA
ATOM     70  C2  SGN d 405     -13.008  15.974  43.414  0.00  0.00     0.081 C 
ATOM     71  C6  SGN d 405     -16.767  14.907  41.448  0.00  0.00     0.067 C 
ATOM     72  O4  SGN d 405     -16.363  17.492  42.784  0.00  0.00    -0.390 OA
ATOM     73  O3S SGN d 405      -9.988  16.848  45.488  0.00  0.00    -0.296 OA
ATOM     74  C4  SGN d 405     -15.222  16.671  42.549  0.00  0.00     0.089 C 
ATOM     75  H   SGN d 405     -12.517  14.136  42.445  0.00  0.00     0.131 H 
ATOM     76  H   SGN d 405     -12.076  15.025  44.927  0.00  0.00     0.140 HD
ATOM     77  H   SGN d 405     -10.990  17.019  42.432  0.00  0.00     0.231 HD
ATOM     78  H   SGN d 405     -14.732  16.381  44.634  0.00  0.00     0.089 H 
ATOM     79  H   SGN d 405     -13.493  18.476  43.166  0.00  0.00     0.210 HD
ATOM     80  H   SGN d 405     -16.010  14.935  43.417  0.00  0.00     0.090 H 
ATOM     81  H   SGN d 405     -10.291  14.876  42.995  0.00  0.00     0.231 HD
ATOM     82  H   SGN d 405     -12.547  16.457  42.578  0.00  0.00     0.076 H 
ATOM     83  H   SGN d 405     -16.709  13.882  41.146  0.00  0.00     0.080 H 
ATOM     84  H   SGN d 405     -17.702  15.106  41.928  0.00  0.00     0.080 H 
ATOM     85  H   SGN d 405     -16.088  18.420  42.840  0.00  0.00     0.210 HD
ATOM     86  H   SGN d 405      -9.982  16.127  46.137  0.00  0.00     0.231 HD
ATOM     87  H   SGN d 405     -14.767  17.004  41.640  0.00  0.00     0.091 H 
ATOM     88  O5S SGN d 403     -15.195  10.220  52.305  0.00  0.00    -0.572 OA
ATOM     89  C3  SGN d 403     -14.818   7.888  46.217  0.00  0.00     0.083 C 
ATOM     90  O5  SGN d 403     -14.298   7.228  48.920  0.00  0.00    -0.349 OA
ATOM     91  S1  SGN d 403     -17.885   5.627  46.421  0.00  0.00     0.156 S 
ATOM     92  O3  SGN d 403     -15.576   8.542  45.244  0.00  0.00    -0.391 OA
ATOM     93  O4S SGN d 403     -15.184  11.558  50.275  0.00  0.00    -0.572 OA
ATOM     94  N   SGN d 403     -16.322   5.937  46.168  0.00  0.00    -0.210 NA
ATOM     95  O4  SGN d 403     -13.345   9.708  46.426  0.00  0.00    -0.348 OA
ATOM     96  O6S SGN d 403     -13.219  11.302  51.588  0.00  0.00    -0.572 OA
ATOM     97  C4  SGN d 403     -14.251   8.937  47.160  0.00  0.00     0.095 C 
ATOM     98  C5  SGN d 403     -13.497   8.215  48.303  0.00  0.00     0.091 C 
ATOM     99  O6  SGN d 403     -14.139   9.392  50.327  0.00  0.00    -0.254 OA
ATOM    100  O1S SGN d 403     -18.129   5.822  47.828  0.00  0.00    -0.296 OA
ATOM    101  C1  SGN d 403     -14.868   6.258  48.054  0.00  0.00     0.150 C 
ATOM    102  O3S SGN d 403     -18.084   4.265  46.059  0.00  0.00    -0.296 OA
ATOM    103  O2S SGN d 403     -18.600   6.579  45.593  0.00  0.00    -0.296 OA
ATOM    104  C2  SGN d 403     -15.697   6.944  47.001  0.00  0.00     0.081 C 
ATOM    105  C6  SGN d 403     -13.040   9.132  49.462  0.00  0.00     0.067 C 
ATOM    106  S2  SGN d 403     -14.438  10.696  51.181  0.00  0.00     0.251 S 
ATOM    107  H   SGN d 403     -14.030   7.332  45.754  0.00  0.00     0.089 H 
ATOM    108  H   SGN d 403     -16.287   9.043  45.671  0.00  0.00     0.210 HD
ATOM    109  H   SGN d 403     -16.223   6.238  45.198  0.00  0.00     0.140 HD
ATOM    110  H   SGN d 403     -15.024   9.551  47.574  0.00  0.00     0.091 H 
ATOM    111  H   SGN d 403     -12.645   7.809  47.800  0.00  0.00     0.090 H 
ATOM    112  H   SGN d 403     -17.988   6.755  48.054  0.00  0.00     0.231 HD
ATOM    113  H   SGN d 403     -15.475   5.623  48.666  0.00  0.00     0.131 H 
ATOM    114  H   SGN d 403     -17.575   3.694  46.656  0.00  0.00     0.231 HD
ATOM    115  H   SGN d 403     -18.415   7.480  45.902  0.00  0.00     0.231 HD
ATOM    116  H   SGN d 403     -16.478   7.528  47.440  0.00  0.00     0.076 H 
ATOM    117  H   SGN d 403     -12.674  10.054  49.064  0.00  0.00     0.080 H 
ATOM    118  H   SGN d 403     -12.262   8.647  50.013  0.00  0.00     0.080 H 
ATOM    119  O62 IDS d 402     -10.709   6.332  49.290  0.00  0.00    -0.646 OA
ATOM    120  C1  IDS d 402     -11.715   2.723  46.537  0.00  0.00     0.161 C 
ATOM    121  O3S IDS d 402     -13.540   1.174  44.165  0.00  0.00    -0.572 OA
ATOM    122  O3  IDS d 402     -13.453   2.305  49.060  0.00  0.00    -0.390 OA
ATOM    123  O5  IDS d 402     -11.424   4.088  46.701  0.00  0.00    -0.340 OA
ATOM    124  O4  IDS d 402     -13.918   5.438  47.432  0.00  0.00    -0.348 OA
ATOM    125  O61 IDS d 402     -10.931   6.767  47.224  0.00  0.00    -0.646 OA
ATOM    126  O1S IDS d 402     -15.736   2.081  44.467  0.00  0.00    -0.572 OA
ATOM    127  O2S IDS d 402     -14.092   3.317  43.285  0.00  0.00    -0.572 OA
ATOM    128  C3  IDS d 402     -13.802   3.129  47.980  0.00  0.00     0.094 C 
ATOM    129  C5  IDS d 402     -11.736   4.592  47.994  0.00  0.00     0.152 C 
ATOM    130  S   IDS d 402     -14.337   2.369  44.299  0.00  0.00     0.252 S 
ATOM    131  C4  IDS d 402     -13.258   4.525  48.259  0.00  0.00     0.103 C 
ATOM    132  C2  IDS d 402     -13.218   2.506  46.700  0.00  0.00     0.134 C 
ATOM    133  C6  IDS d 402     -11.081   5.979  48.182  0.00  0.00     0.206 C 
ATOM    134  O2  IDS d 402     -13.885   3.080  45.610  0.00  0.00    -0.244 OA
ATOM    135  H   IDS d 402     -11.407   2.433  45.554  0.00  0.00     0.133 H 
ATOM    136  H   IDS d 402     -13.789   1.408  48.905  0.00  0.00     0.210 HD
ATOM    137  H   IDS d 402     -14.861   3.212  47.850  0.00  0.00     0.091 H 
ATOM    138  H   IDS d 402     -11.314   3.973  48.757  0.00  0.00     0.104 H 
ATOM    139  H   IDS d 402     -13.427   4.765  49.288  0.00  0.00     0.092 H 
ATOM    140  H   IDS d 402     -13.360   1.447  46.759  0.00  0.00     0.097 H 
ENDROOT
TORSDOF 45
ENDMDL
MODEL 32
REMARK VINA RESULT:      -0.8      4.659     14.164
REMARK  0 active torsions:
REMARK  status: ('A' for Active; 'I' for Inactive)
REMARK       I    between atoms: C5_1  and  C6_64 
REMARK       I    between atoms: C4_2  and  O4_32 
REMARK       I    between atoms: C1_3  and  O4_32 
REMARK       I    between atoms: S1_6  and  N_87 
REMARK       I    between atoms: S1_6  and  O1S_23 
REMARK       I    between atoms: S1_6  and  O2S_31 
REMARK       I    between atoms: S1_6  and  O3S_47 
REMARK       I    between atoms: N_7  and  C2_53 
REMARK       I    between atoms: N_7  and  S1_10 
REMARK       I    between atoms: C3_9  and  O3_14 
REMARK       I    between atoms: S1_10  and  O1S_52 
REMARK       I    between atoms: S1_10  and  O2S_17 
REMARK       I    between atoms: S1_10  and  O3S_80 
REMARK       I    between atoms: C5_12  and  C6_73 
REMARK       I    between atoms: S1_13  and  N_25 
REMARK       I    between atoms: S1_13  and  O1S_58 
REMARK       I    between atoms: S1_13  and  O2S_66 
REMARK       I    between atoms: S1_13  and  O3S_62 
REMARK       I    between atoms: S2_15  and  O6_41 
REMARK       I    between atoms: C3_16  and  O3_48 
REMARK       I    between atoms: C2_18  and  N_87 
REMARK       I    between atoms: C1_19  and  O4_39 
REMARK       I    between atoms: C3_20  and  O3_27 
REMARK       I    between atoms: C1_24  and  O1_84 
REMARK       I    between atoms: N_25  and  C2_78 
REMARK       I    between atoms: O4_28  and  C4_30 
REMARK       I    between atoms: O4_28  and  C1_86 
REMARK       I    between atoms: C2_34  and  O2_59 
REMARK       I    between atoms: O3_35  and  C3_60 
REMARK       I    between atoms: C5_37  and  C6_81 
REMARK       I    between atoms: O4_39  and  C4_79 
REMARK       I    between atoms: O4_40  and  C4_77 
REMARK       I    between atoms: O4_40  and  C1_61 
REMARK       I    between atoms: O6_41  and  C6_57 
REMARK       I    between atoms: O6_45  and  C6_81 
REMARK       I    between atoms: O6_45  and  S2_83 
REMARK       I    between atoms: C3_46  and  O3_72 
REMARK       I    between atoms: C5_50  and  C6_57 
REMARK       I    between atoms: O2_59  and  S_69 
REMARK       I    between atoms: O6_63  and  C6_64 
REMARK       I    between atoms: O6_63  and  S2_70 
REMARK       I    between atoms: C5_67  and  C6_88 
REMARK       I    between atoms: S_71  and  O2_89 
REMARK       I    between atoms: O4_75  and  C4_82 
REMARK       I    between atoms: C2_85  and  O2_89 
ROOT
ATOM      1  C5  SGN d 401      -7.540  12.014  46.207  0.00  0.00     0.091 C 
ATOM      2  S1  SGN d 401      -5.910  11.742  40.817  0.00  0.00     0.156 S 
ATOM      3  C3  SGN d 401      -8.244  11.111  43.957  0.00  0.00     0.083 C 
ATOM      4  C2  SGN d 401      -6.973  11.777  43.388  0.00  0.00     0.081 C 
ATOM      5  O1S SGN d 401      -4.703  11.445  41.565  0.00  0.00    -0.296 OA
ATOM      6  C1  SGN d 401      -6.683  13.025  44.237  0.00  0.00     0.147 C 
ATOM      7  O2S SGN d 401      -6.379  10.595  40.086  0.00  0.00    -0.296 OA
ATOM      8  O4  SGN d 401      -9.261  10.330  45.968  0.00  0.00    -0.348 OA
ATOM      9  O4S SGN d 401      -6.319   9.296  49.250  0.00  0.00    -0.572 OA
ATOM     10  O3S SGN d 401      -5.758  12.912  39.980  0.00  0.00    -0.296 OA
ATOM     11  O3  SGN d 401      -8.510   9.909  43.260  0.00  0.00    -0.391 OA
ATOM     12  O5  SGN d 401      -6.445  12.665  45.565  0.00  0.00    -0.350 OA
ATOM     13  O6S SGN d 401      -4.375  10.718  49.153  0.00  0.00    -0.572 OA
ATOM     14  O6  SGN d 401      -5.981  10.747  47.382  0.00  0.00    -0.254 OA
ATOM     15  C6  SGN d 401      -7.018  11.668  47.595  0.00  0.00     0.067 C 
ATOM     16  S2  SGN d 401      -5.288   9.848  48.431  0.00  0.00     0.251 S 
ATOM     17  O5S SGN d 401      -4.624   8.838  47.652  0.00  0.00    -0.572 OA
ATOM     18  C4  SGN d 401      -8.032  10.754  45.431  0.00  0.00     0.095 C 
ATOM     19  O1  SGN d 401      -7.788  13.944  44.192  0.00  0.00    -0.369 OA
ATOM     20  N   SGN d 401      -7.115  12.136  41.933  0.00  0.00    -0.210 NA
ATOM     21  H   SGN d 401      -8.405  12.643  46.247  0.00  0.00     0.090 H 
ATOM     22  H   SGN d 401      -9.059  11.797  43.851  0.00  0.00     0.089 H 
ATOM     23  H   SGN d 401      -6.159  11.085  43.438  0.00  0.00     0.076 H 
ATOM     24  H   SGN d 401      -4.847  10.656  42.111  0.00  0.00     0.231 HD
ATOM     25  H   SGN d 401      -5.814  13.501  43.833  0.00  0.00     0.131 H 
ATOM     26  H   SGN d 401      -6.465   9.840  40.688  0.00  0.00     0.231 HD
ATOM     27  H   SGN d 401      -5.441  13.656  40.517  0.00  0.00     0.231 HD
ATOM     28  H   SGN d 401      -7.763   9.300  43.367  0.00  0.00     0.210 HD
ATOM     29  H   SGN d 401      -7.793  11.229  48.188  0.00  0.00     0.080 H 
ATOM     30  H   SGN d 401      -6.678  12.536  48.121  0.00  0.00     0.080 H 
ATOM     31  H   SGN d 401      -7.301   9.978  45.518  0.00  0.00     0.091 H 
ATOM     32  H   SGN d 401      -8.578  13.517  44.558  0.00  0.00     0.212 HD
ATOM     33  H   SGN d 401      -7.972  11.687  41.606  0.00  0.00     0.140 HD
ATOM     34  C4  IDS d 404      -7.698  -0.683  47.659  0.00  0.00     0.103 C 
ATOM     35  C5  IDS d 404      -9.121  -0.215  47.947  0.00  0.00     0.152 C 
ATOM     36  O4  IDS d 404      -7.759  -2.038  47.312  0.00  0.00    -0.348 OA
ATOM     37  O5  IDS d 404      -9.898  -0.130  46.774  0.00  0.00    -0.340 OA
ATOM     38  C2  IDS d 404      -7.959   0.513  45.375  0.00  0.00     0.134 C 
ATOM     39  O62 IDS d 404      -9.927  -0.810  50.112  0.00  0.00    -0.646 OA
ATOM     40  C3  IDS d 404      -7.013   0.123  46.521  0.00  0.00     0.094 C 
ATOM     41  O2  IDS d 404      -7.955  -0.541  44.403  0.00  0.00    -0.244 OA
ATOM     42  O1S IDS d 404      -7.068   0.129  42.324  0.00  0.00    -0.572 OA
ATOM     43  O2S IDS d 404      -8.646  -1.654  42.392  0.00  0.00    -0.572 OA
ATOM     44  S   IDS d 404      -8.259  -0.370  42.883  0.00  0.00     0.252 S 
ATOM     45  O3  IDS d 404      -6.504   1.318  47.063  0.00  0.00    -0.390 OA
ATOM     46  C6  IDS d 404      -9.808  -1.125  48.940  0.00  0.00     0.206 C 
ATOM     47  O3S IDS d 404      -9.282   0.604  42.781  0.00  0.00    -0.572 OA
ATOM     48  C1  IDS d 404      -9.418   0.820  45.816  0.00  0.00     0.161 C 
ATOM     49  O61 IDS d 404     -10.226  -2.215  48.578  0.00  0.00    -0.646 OA
ATOM     50  H   IDS d 404      -7.104  -0.526  48.535  0.00  0.00     0.092 H 
ATOM     51  H   IDS d 404      -9.036   0.765  48.369  0.00  0.00     0.104 H 
ATOM     52  H   IDS d 404      -7.590   1.429  44.966  0.00  0.00     0.097 H 
ATOM     53  H   IDS d 404      -6.255  -0.513  46.116  0.00  0.00     0.091 H 
ATOM     54  H   IDS d 404      -7.234   1.852  47.414  0.00  0.00     0.210 HD
ATOM     55  H   IDS d 404     -10.060   0.730  44.966  0.00  0.00     0.133 H 
ATOM     56  C1  SGN d 405      -6.888  -2.874  48.016  0.00  0.00     0.150 C 
ATOM     57  O6S SGN d 405      -5.677  -4.107  51.658  0.00  0.00    -0.572 OA
ATOM     58  N   SGN d 405      -6.518  -3.797  45.779  0.00  0.00    -0.210 NA
ATOM     59  S1  SGN d 405      -5.055  -3.854  45.112  0.00  0.00     0.156 S 
ATOM     60  S2  SGN d 405      -6.593  -4.795  52.562  0.00  0.00     0.251 S 
ATOM     61  O2S SGN d 405      -4.375  -4.952  45.754  0.00  0.00    -0.296 OA
ATOM     62  C3  SGN d 405      -7.744  -5.180  47.398  0.00  0.00     0.083 C 
ATOM     63  O5  SGN d 405      -7.302  -3.139  49.376  0.00  0.00    -0.349 OA
ATOM     64  O3  SGN d 405      -7.385  -6.379  46.737  0.00  0.00    -0.391 OA
ATOM     65  O6  SGN d 405      -7.913  -5.138  51.728  0.00  0.00    -0.254 OA
ATOM     66  O5S SGN d 405      -6.085  -6.059  53.036  0.00  0.00    -0.572 OA
ATOM     67  C5  SGN d 405      -8.347  -4.139  49.525  0.00  0.00     0.090 C 
ATOM     68  O4S SGN d 405      -6.998  -3.960  53.637  0.00  0.00    -0.572 OA
ATOM     69  O1S SGN d 405      -4.446  -2.580  45.394  0.00  0.00    -0.296 OA
ATOM     70  C2  SGN d 405      -6.641  -4.146  47.191  0.00  0.00     0.081 C 
ATOM     71  C6  SGN d 405      -8.757  -4.238  51.019  0.00  0.00     0.067 C 
ATOM     72  O4  SGN d 405      -8.810  -6.489  49.133  0.00  0.00    -0.390 OA
ATOM     73  O3S SGN d 405      -5.216  -4.035  43.707  0.00  0.00    -0.296 OA
ATOM     74  C4  SGN d 405      -7.863  -5.447  48.910  0.00  0.00     0.089 C 
ATOM     75  H   SGN d 405      -5.958  -2.359  48.140  0.00  0.00     0.131 H 
ATOM     76  H   SGN d 405      -6.864  -2.843  45.672  0.00  0.00     0.140 HD
ATOM     77  H   SGN d 405      -4.296  -4.772  46.705  0.00  0.00     0.231 HD
ATOM     78  H   SGN d 405      -8.674  -4.824  47.005  0.00  0.00     0.089 H 
ATOM     79  H   SGN d 405      -6.543  -6.704  47.091  0.00  0.00     0.210 HD
ATOM     80  H   SGN d 405      -9.239  -3.870  48.999  0.00  0.00     0.090 H 
ATOM     81  H   SGN d 405      -4.346  -2.476  46.354  0.00  0.00     0.231 HD
ATOM     82  H   SGN d 405      -5.728  -4.591  47.528  0.00  0.00     0.076 H 
ATOM     83  H   SGN d 405      -8.685  -3.268  51.466  0.00  0.00     0.080 H 
ATOM     84  H   SGN d 405      -9.760  -4.604  51.071  0.00  0.00     0.080 H 
ATOM     85  H   SGN d 405      -8.484  -7.312  48.735  0.00  0.00     0.210 HD
ATOM     86  H   SGN d 405      -5.677  -3.269  43.332  0.00  0.00     0.231 HD
ATOM     87  H   SGN d 405      -6.935  -5.755  49.342  0.00  0.00     0.091 H 
ATOM     88  O5S SGN d 403     -14.226   1.831  42.326  0.00  0.00    -0.572 OA
ATOM     89  C3  SGN d 403     -10.836   3.515  47.647  0.00  0.00     0.083 C 
ATOM     90  O5  SGN d 403     -12.021   4.569  45.302  0.00  0.00    -0.349 OA
ATOM     91  S1  SGN d 403     -13.774   4.977  49.597  0.00  0.00     0.156 S 
ATOM     92  O3  SGN d 403     -10.816   2.598  48.698  0.00  0.00    -0.391 OA
ATOM     93  O4S SGN d 403     -12.890   0.325  43.688  0.00  0.00    -0.572 OA
ATOM     94  N   SGN d 403     -12.313   5.028  48.914  0.00  0.00    -0.210 NA
ATOM     95  O4  SGN d 403      -9.494   2.139  46.295  0.00  0.00    -0.348 OA
ATOM     96  O6S SGN d 403     -12.059   1.188  41.635  0.00  0.00    -0.572 OA
ATOM     97  C4  SGN d 403     -10.754   2.743  46.341  0.00  0.00     0.095 C 
ATOM     98  C5  SGN d 403     -10.882   3.744  45.168  0.00  0.00     0.091 C 
ATOM     99  O6  SGN d 403     -12.373   2.672  43.581  0.00  0.00    -0.254 OA
ATOM    100  O1S SGN d 403     -14.734   4.881  48.526  0.00  0.00    -0.296 OA
ATOM    101  C1  SGN d 403     -12.139   5.273  46.530  0.00  0.00     0.150 C 
ATOM    102  O3S SGN d 403     -13.926   6.203  50.302  0.00  0.00    -0.296 OA
ATOM    103  O2S SGN d 403     -13.758   3.796  50.439  0.00  0.00    -0.296 OA
ATOM    104  C2  SGN d 403     -12.127   4.298  47.676  0.00  0.00     0.081 C 
ATOM    105  C6  SGN d 403     -11.029   3.096  43.771  0.00  0.00     0.067 C 
ATOM    106  S2  SGN d 403     -12.911   1.434  42.745  0.00  0.00     0.251 S 
ATOM    107  H   SGN d 403     -10.013   4.193  47.738  0.00  0.00     0.089 H 
ATOM    108  H   SGN d 403     -11.565   1.988  48.609  0.00  0.00     0.210 HD
ATOM    109  H   SGN d 403     -11.646   4.657  49.591  0.00  0.00     0.140 HD
ATOM    110  H   SGN d 403     -11.530   2.009  46.270  0.00  0.00     0.091 H 
ATOM    111  H   SGN d 403      -9.962   4.287  45.224  0.00  0.00     0.090 H 
ATOM    112  H   SGN d 403     -14.614   4.040  48.058  0.00  0.00     0.231 HD
ATOM    113  H   SGN d 403     -13.067   5.805  46.488  0.00  0.00     0.131 H 
ATOM    114  H   SGN d 403     -13.927   6.940  49.672  0.00  0.00     0.231 HD
ATOM    115  H   SGN d 403     -13.652   3.006  49.887  0.00  0.00     0.231 HD
ATOM    116  H   SGN d 403     -12.928   3.593  47.596  0.00  0.00     0.076 H 
ATOM    117  H   SGN d 403     -10.376   2.251  43.700  0.00  0.00     0.080 H 
ATOM    118  H   SGN d 403     -10.772   3.811  43.018  0.00  0.00     0.080 H 
ATOM    119  O62 IDS d 402      -9.428   6.340  43.313  0.00  0.00    -0.646 OA
ATOM    120  C1  IDS d 402      -9.217   9.281  46.909  0.00  0.00     0.161 C 
ATOM    121  O3S IDS d 402      -9.597  10.078  50.161  0.00  0.00    -0.572 OA
ATOM    122  O3  IDS d 402     -12.109   9.536  45.843  0.00  0.00    -0.390 OA
ATOM    123  O5  IDS d 402      -8.878   8.053  46.316  0.00  0.00    -0.340 OA
ATOM    124  O4  IDS d 402     -11.132   6.227  46.724  0.00  0.00    -0.348 OA
ATOM    125  O61 IDS d 402      -8.389   5.645  45.028  0.00  0.00    -0.646 OA
ATOM    126  O1S IDS d 402     -11.428   8.706  50.864  0.00  0.00    -0.572 OA
ATOM    127  O2S IDS d 402      -9.249   7.784  50.695  0.00  0.00    -0.572 OA
ATOM    128  C3  IDS d 402     -11.672   8.540  46.729  0.00  0.00     0.094 C 
ATOM    129  C5  IDS d 402      -9.786   7.630  45.306  0.00  0.00     0.152 C 
ATOM    130  S   IDS d 402     -10.152   8.747  50.202  0.00  0.00     0.252 S 
ATOM    131  C4  IDS d 402     -11.186   7.355  45.903  0.00  0.00     0.103 C 
ATOM    132  C2  IDS d 402     -10.566   9.144  47.612  0.00  0.00     0.134 C 
ATOM    133  C6  IDS d 402      -9.161   6.471  44.497  0.00  0.00     0.206 C 
ATOM    134  O2  IDS d 402     -10.417   8.312  48.729  0.00  0.00    -0.244 OA
ATOM    135  H   IDS d 402      -8.456   9.529  47.619  0.00  0.00     0.133 H 
ATOM    136  H   IDS d 402     -12.423  10.302  46.348  0.00  0.00     0.210 HD
ATOM    137  H   IDS d 402     -12.451   8.191  47.374  0.00  0.00     0.091 H 
ATOM    138  H   IDS d 402      -9.958   8.412  44.595  0.00  0.00     0.104 H 
ATOM    139  H   IDS d 402     -11.867   7.195  45.093  0.00  0.00     0.092 H 
ATOM    140  H   IDS d 402     -10.865  10.137  47.875  0.00  0.00     0.097 H 
ENDROOT
TORSDOF 45
ENDMDL
MODEL 33
REMARK VINA RESULT:      -0.4      4.343     14.039
REMARK  0 active torsions:
REMARK  status: ('A' for Active; 'I' for Inactive)
REMARK       I    between atoms: C5_1  and  C6_64 
REMARK       I    between atoms: C4_2  and  O4_32 
REMARK       I    between atoms: C1_3  and  O4_32 
REMARK       I    between atoms: S1_6  and  N_87 
REMARK       I    between atoms: S1_6  and  O1S_23 
REMARK       I    between atoms: S1_6  and  O2S_31 
REMARK       I    between atoms: S1_6  and  O3S_47 
REMARK       I    between atoms: N_7  and  C2_53 
REMARK       I    between atoms: N_7  and  S1_10 
REMARK       I    between atoms: C3_9  and  O3_14 
REMARK       I    between atoms: S1_10  and  O1S_52 
REMARK       I    between atoms: S1_10  and  O2S_17 
REMARK       I    between atoms: S1_10  and  O3S_80 
REMARK       I    between atoms: C5_12  and  C6_73 
REMARK       I    between atoms: S1_13  and  N_25 
REMARK       I    between atoms: S1_13  and  O1S_58 
REMARK       I    between atoms: S1_13  and  O2S_66 
REMARK       I    between atoms: S1_13  and  O3S_62 
REMARK       I    between atoms: S2_15  and  O6_41 
REMARK       I    between atoms: C3_16  and  O3_48 
REMARK       I    between atoms: C2_18  and  N_87 
REMARK       I    between atoms: C1_19  and  O4_39 
REMARK       I    between atoms: C3_20  and  O3_27 
REMARK       I    between atoms: C1_24  and  O1_84 
REMARK       I    between atoms: N_25  and  C2_78 
REMARK       I    between atoms: O4_28  and  C4_30 
REMARK       I    between atoms: O4_28  and  C1_86 
REMARK       I    between atoms: C2_34  and  O2_59 
REMARK       I    between atoms: O3_35  and  C3_60 
REMARK       I    between atoms: C5_37  and  C6_81 
REMARK       I    between atoms: O4_39  and  C4_79 
REMARK       I    between atoms: O4_40  and  C4_77 
REMARK       I    between atoms: O4_40  and  C1_61 
REMARK       I    between atoms: O6_41  and  C6_57 
REMARK       I    between atoms: O6_45  and  C6_81 
REMARK       I    between atoms: O6_45  and  S2_83 
REMARK       I    between atoms: C3_46  and  O3_72 
REMARK       I    between atoms: C5_50  and  C6_57 
REMARK       I    between atoms: O2_59  and  S_69 
REMARK       I    between atoms: O6_63  and  C6_64 
REMARK       I    between atoms: O6_63  and  S2_70 
REMARK       I    between atoms: C5_67  and  C6_88 
REMARK       I    between atoms: S_71  and  O2_89 
REMARK       I    between atoms: O4_75  and  C4_82 
REMARK       I    between atoms: C2_85  and  O2_89 
ROOT
ATOM      1  C5  SGN d 401      -7.761  14.382  46.500  0.00  0.00     0.091 C 
ATOM      2  S1  SGN d 401      -6.513  14.450  41.002  0.00  0.00     0.156 S 
ATOM      3  C3  SGN d 401      -8.608  13.596  44.256  0.00  0.00     0.083 C 
ATOM      4  C2  SGN d 401      -7.392  14.318  43.639  0.00  0.00     0.081 C 
ATOM      5  O1S SGN d 401      -5.252  14.135  41.645  0.00  0.00    -0.296 OA
ATOM      6  C1  SGN d 401      -7.061  15.521  44.537  0.00  0.00     0.147 C 
ATOM      7  O2S SGN d 401      -7.015  13.339  40.240  0.00  0.00    -0.296 OA
ATOM      8  O4  SGN d 401      -9.468  12.682  46.284  0.00  0.00    -0.348 OA
ATOM      9  O4S SGN d 401      -6.285  11.520  49.286  0.00  0.00    -0.572 OA
ATOM     10  O3S SGN d 401      -6.439  15.670  40.226  0.00  0.00    -0.296 OA
ATOM     11  O3  SGN d 401      -8.905  12.431  43.510  0.00  0.00    -0.391 OA
ATOM     12  O5  SGN d 401      -6.724  15.090  45.821  0.00  0.00    -0.350 OA
ATOM     13  O6S SGN d 401      -4.375  12.983  49.136  0.00  0.00    -0.572 OA
ATOM     14  O6  SGN d 401      -6.103  13.082  47.487  0.00  0.00    -0.254 OA
ATOM     15  C6  SGN d 401      -7.136  13.968  47.825  0.00  0.00     0.067 C 
ATOM     16  S2  SGN d 401      -5.324  12.138  48.431  0.00  0.00     0.251 S 
ATOM     17  O5S SGN d 401      -4.701  11.187  47.550  0.00  0.00    -0.572 OA
ATOM     18  C4  SGN d 401      -8.287  13.160  45.688  0.00  0.00     0.095 C 
ATOM     19  O1  SGN d 401      -8.180  16.419  44.623  0.00  0.00    -0.369 OA
ATOM     20  N   SGN d 401      -7.642  14.757  42.220  0.00  0.00    -0.210 NA
ATOM     21  H   SGN d 401      -8.630  14.992  46.637  0.00  0.00     0.090 H 
ATOM     22  H   SGN d 401      -9.439  14.272  44.247  0.00  0.00     0.089 H 
ATOM     23  H   SGN d 401      -6.565  13.641  43.591  0.00  0.00     0.076 H 
ATOM     24  H   SGN d 401      -5.344  13.313  42.153  0.00  0.00     0.231 HD
ATOM     25  H   SGN d 401      -6.230  16.037  44.101  0.00  0.00     0.131 H 
ATOM     26  H   SGN d 401      -7.046  12.549  40.802  0.00  0.00     0.231 HD
ATOM     27  H   SGN d 401      -6.096  16.387  40.782  0.00  0.00     0.231 HD
ATOM     28  H   SGN d 401      -8.142  11.831  43.529  0.00  0.00     0.210 HD
ATOM     29  H   SGN d 401      -7.860  13.481  48.445  0.00  0.00     0.080 H 
ATOM     30  H   SGN d 401      -6.773  14.811  48.376  0.00  0.00     0.080 H 
ATOM     31  H   SGN d 401      -7.539  12.395  45.678  0.00  0.00     0.091 H 
ATOM     32  H   SGN d 401      -8.936  15.957  45.018  0.00  0.00     0.212 HD
ATOM     33  H   SGN d 401      -8.512  14.311  41.929  0.00  0.00     0.140 HD
ATOM     34  C4  IDS d 404      -7.619   1.623  47.216  0.00  0.00     0.103 C 
ATOM     35  C5  IDS d 404      -9.025   2.046  47.630  0.00  0.00     0.152 C 
ATOM     36  O4  IDS d 404      -7.685   0.289  46.796  0.00  0.00    -0.348 OA
ATOM     37  O5  IDS d 404      -9.886   2.183  46.521  0.00  0.00    -0.340 OA
ATOM     38  C2  IDS d 404      -8.061   2.942  45.029  0.00  0.00     0.134 C 
ATOM     39  O62 IDS d 404      -9.668   1.313  49.807  0.00  0.00    -0.646 OA
ATOM     40  C3  IDS d 404      -7.030   2.506  46.082  0.00  0.00     0.094 C 
ATOM     41  O2  IDS d 404      -8.109   1.946  44.000  0.00  0.00    -0.244 OA
ATOM     42  O1S IDS d 404      -7.382   2.750  41.906  0.00  0.00    -0.572 OA
ATOM     43  O2S IDS d 404      -8.924   0.936  41.980  0.00  0.00    -0.572 OA
ATOM     44  S   IDS d 404      -8.523   2.197  42.518  0.00  0.00     0.252 S 
ATOM     45  O3  IDS d 404      -6.502   3.678  46.656  0.00  0.00    -0.390 OA
ATOM     46  C6  IDS d 404      -9.626   1.068  48.614  0.00  0.00     0.206 C 
ATOM     47  O3S IDS d 404      -9.566   3.155  42.544  0.00  0.00    -0.572 OA
ATOM     48  C1  IDS d 404      -9.489   3.195  45.589  0.00  0.00     0.161 C 
ATOM     49  O61 IDS d 404     -10.052  -0.008  48.219  0.00  0.00    -0.646 OA
ATOM     50  H   IDS d 404      -6.968   1.741  48.056  0.00  0.00     0.092 H 
ATOM     51  H   IDS d 404      -8.926   3.002  48.101  0.00  0.00     0.104 H 
ATOM     52  H   IDS d 404      -7.735   3.887  44.650  0.00  0.00     0.097 H 
ATOM     53  H   IDS d 404      -6.293   1.908  45.589  0.00  0.00     0.091 H 
ATOM     54  H   IDS d 404      -7.214   4.176  47.088  0.00  0.00     0.210 HD
ATOM     55  H   IDS d 404     -10.188   3.141  44.782  0.00  0.00     0.133 H 
ATOM     56  C1  SGN d 405      -6.753  -0.569  47.388  0.00  0.00     0.150 C 
ATOM     57  O6S SGN d 405      -5.268  -1.984  50.857  0.00  0.00    -0.572 OA
ATOM     58  N   SGN d 405      -6.529  -1.355  45.080  0.00  0.00    -0.210 NA
ATOM     59  S1  SGN d 405      -5.116  -1.346  44.310  0.00  0.00     0.156 S 
ATOM     60  S2  SGN d 405      -6.107  -2.740  51.782  0.00  0.00     0.251 S 
ATOM     61  O2S SGN d 405      -4.375  -2.465  44.838  0.00  0.00    -0.296 OA
ATOM     62  C3  SGN d 405      -7.615  -2.851  46.697  0.00  0.00     0.083 C 
ATOM     63  O5  SGN d 405      -7.065  -0.919  48.755  0.00  0.00    -0.349 OA
ATOM     64  O3  SGN d 405      -7.286  -4.004  45.944  0.00  0.00    -0.391 OA
ATOM     65  O6  SGN d 405      -7.477  -3.060  51.024  0.00  0.00    -0.254 OA
ATOM     66  O5S SGN d 405      -5.547  -4.019  52.144  0.00  0.00    -0.572 OA
ATOM     67  C5  SGN d 405      -8.082  -1.946  48.919  0.00  0.00     0.090 C 
ATOM     68  O4S SGN d 405      -6.447  -1.976  52.929  0.00  0.00    -0.572 OA
ATOM     69  O1S SGN d 405      -4.508  -0.078  44.623  0.00  0.00    -0.296 OA
ATOM     70  C2  SGN d 405      -6.545  -1.787  46.475  0.00  0.00     0.081 C 
ATOM     71  C6  SGN d 405      -8.383  -2.138  50.429  0.00  0.00     0.067 C 
ATOM     72  O4  SGN d 405      -8.535  -4.278  48.423  0.00  0.00    -0.390 OA
ATOM     73  O3S SGN d 405      -5.373  -1.449  42.911  0.00  0.00    -0.296 OA
ATOM     74  C4  SGN d 405      -7.623  -3.207  48.195  0.00  0.00     0.089 C 
ATOM     75  H   SGN d 405      -5.825  -0.044  47.476  0.00  0.00     0.131 H 
ATOM     76  H   SGN d 405      -6.896  -0.403  45.053  0.00  0.00     0.140 HD
ATOM     77  H   SGN d 405      -4.232  -2.338  45.789  0.00  0.00     0.231 HD
ATOM     78  H   SGN d 405      -8.576  -2.492  46.392  0.00  0.00     0.089 H 
ATOM     79  H   SGN d 405      -6.416  -4.332  46.219  0.00  0.00     0.210 HD
ATOM     80  H   SGN d 405      -9.013  -1.664  48.472  0.00  0.00     0.090 H 
ATOM     81  H   SGN d 405      -4.341  -0.027  45.578  0.00  0.00     0.231 HD
ATOM     82  H   SGN d 405      -5.604  -2.232  46.720  0.00  0.00     0.076 H 
ATOM     83  H   SGN d 405      -8.295  -1.194  50.925  0.00  0.00     0.080 H 
ATOM     84  H   SGN d 405      -9.375  -2.526  50.530  0.00  0.00     0.080 H 
ATOM     85  H   SGN d 405      -8.226  -5.070  47.956  0.00  0.00     0.210 HD
ATOM     86  H   SGN d 405      -5.871  -0.672  42.615  0.00  0.00     0.231 HD
ATOM     87  H   SGN d 405      -6.661  -3.521  48.543  0.00  0.00     0.091 H 
ATOM     88  O5S SGN d 403     -14.548   4.310  42.509  0.00  0.00    -0.572 OA
ATOM     89  C3  SGN d 403     -10.815   5.753  47.669  0.00  0.00     0.083 C 
ATOM     90  O5  SGN d 403     -12.180   6.915  45.478  0.00  0.00    -0.349 OA
ATOM     91  S1  SGN d 403     -13.629   7.043  49.901  0.00  0.00     0.156 S 
ATOM     92  O3  SGN d 403     -10.707   4.778  48.661  0.00  0.00    -0.391 OA
ATOM     93  O4S SGN d 403     -13.095   2.755  43.684  0.00  0.00    -0.572 OA
ATOM     94  N   SGN d 403     -12.221   7.162  49.121  0.00  0.00    -0.210 NA
ATOM     95  O4  SGN d 403      -9.551   4.483  46.148  0.00  0.00    -0.348 OA
ATOM     96  O6S SGN d 403     -12.426   3.750  41.631  0.00  0.00    -0.572 OA
ATOM     97  C4  SGN d 403     -10.814   5.058  46.317  0.00  0.00     0.095 C 
ATOM     98  C5  SGN d 403     -11.041   6.122  45.216  0.00  0.00     0.091 C 
ATOM     99  O6  SGN d 403     -12.624   5.113  43.678  0.00  0.00    -0.254 OA
ATOM    100  O1S SGN d 403     -14.661   6.991  48.896  0.00  0.00    -0.296 OA
ATOM    101  C1  SGN d 403     -12.221   7.547  46.750  0.00  0.00     0.150 C 
ATOM    102  O3S SGN d 403     -13.750   8.224  50.686  0.00  0.00    -0.296 OA
ATOM    103  O2S SGN d 403     -13.536   5.817  50.670  0.00  0.00    -0.296 OA
ATOM    104  C2  SGN d 403     -12.113   6.508  47.834  0.00  0.00     0.081 C 
ATOM    105  C6  SGN d 403     -11.276   5.552  43.798  0.00  0.00     0.067 C 
ATOM    106  S2  SGN d 403     -13.200   3.915  42.810  0.00  0.00     0.251 S 
ATOM    107  H   SGN d 403      -9.998   6.441  47.741  0.00  0.00     0.089 H 
ATOM    108  H   SGN d 403     -11.450   4.160  48.589  0.00  0.00     0.210 HD
ATOM    109  H   SGN d 403     -11.502   6.766  49.727  0.00  0.00     0.140 HD
ATOM    110  H   SGN d 403     -11.581   4.314  46.258  0.00  0.00     0.091 H 
ATOM    111  H   SGN d 403     -10.127   6.679  45.239  0.00  0.00     0.090 H 
ATOM    112  H   SGN d 403     -14.562   6.180  48.373  0.00  0.00     0.231 HD
ATOM    113  H   SGN d 403     -13.157   8.062  46.804  0.00  0.00     0.131 H 
ATOM    114  H   SGN d 403     -13.807   8.996  50.101  0.00  0.00     0.231 HD
ATOM    115  H   SGN d 403     -13.457   5.062  50.067  0.00  0.00     0.231 HD
ATOM    116  H   SGN d 403     -12.906   5.793  47.768  0.00  0.00     0.076 H 
ATOM    117  H   SGN d 403     -10.617   4.726  43.632  0.00  0.00     0.080 H 
ATOM    118  H   SGN d 403     -11.084   6.314  43.072  0.00  0.00     0.080 H 
ATOM    119  O62 IDS d 402      -9.761   8.848  43.419  0.00  0.00    -0.646 OA
ATOM    120  C1  IDS d 402      -9.342  11.582  47.156  0.00  0.00     0.161 C 
ATOM    121  O3S IDS d 402      -9.502  12.185  50.468  0.00  0.00    -0.572 OA
ATOM    122  O3  IDS d 402     -12.305  11.841  46.312  0.00  0.00    -0.390 OA
ATOM    123  O5  IDS d 402      -9.026  10.397  46.471  0.00  0.00    -0.340 OA
ATOM    124  O4  IDS d 402     -11.217   8.507  46.928  0.00  0.00    -0.348 OA
ATOM    125  O61 IDS d 402      -8.593   8.076  45.014  0.00  0.00    -0.646 OA
ATOM    126  O1S IDS d 402     -11.257  10.739  51.216  0.00  0.00    -0.572 OA
ATOM    127  O2S IDS d 402      -9.082   9.871  50.842  0.00  0.00    -0.572 OA
ATOM    128  C3  IDS d 402     -11.791  10.805  47.106  0.00  0.00     0.094 C 
ATOM    129  C5  IDS d 402      -9.997  10.015  45.504  0.00  0.00     0.152 C 
ATOM    130  S   IDS d 402     -10.032  10.843  50.470  0.00  0.00     0.252 S 
ATOM    131  C4  IDS d 402     -11.347   9.679  46.180  0.00  0.00     0.103 C 
ATOM    132  C2  IDS d 402     -10.635  11.379  47.943  0.00  0.00     0.134 C 
ATOM    133  C6  IDS d 402      -9.413   8.916  44.587  0.00  0.00     0.206 C 
ATOM    134  O2  IDS d 402     -10.395  10.488  48.997  0.00  0.00    -0.244 OA
ATOM    135  H   IDS d 402      -8.536  11.804  47.825  0.00  0.00     0.133 H 
ATOM    136  H   IDS d 402     -12.595  12.571  46.882  0.00  0.00     0.210 HD
ATOM    137  H   IDS d 402     -12.517  10.404  47.782  0.00  0.00     0.091 H 
ATOM    138  H   IDS d 402     -10.231  10.832  44.854  0.00  0.00     0.104 H 
ATOM    139  H   IDS d 402     -12.081   9.552  45.412  0.00  0.00     0.092 H 
ATOM    140  H   IDS d 402     -10.930  12.350  48.284  0.00  0.00     0.097 H 
ENDROOT
TORSDOF 45
ENDMDL
MODEL 34
REMARK VINA RESULT:      -0.3      4.011      5.662
REMARK  0 active torsions:
REMARK  status: ('A' for Active; 'I' for Inactive)
REMARK       I    between atoms: C5_1  and  C6_64 
REMARK       I    between atoms: C4_2  and  O4_32 
REMARK       I    between atoms: C1_3  and  O4_32 
REMARK       I    between atoms: S1_6  and  N_87 
REMARK       I    between atoms: S1_6  and  O1S_23 
REMARK       I    between atoms: S1_6  and  O2S_31 
REMARK       I    between atoms: S1_6  and  O3S_47 
REMARK       I    between atoms: N_7  and  C2_53 
REMARK       I    between atoms: N_7  and  S1_10 
REMARK       I    between atoms: C3_9  and  O3_14 
REMARK       I    between atoms: S1_10  and  O1S_52 
REMARK       I    between atoms: S1_10  and  O2S_17 
REMARK       I    between atoms: S1_10  and  O3S_80 
REMARK       I    between atoms: C5_12  and  C6_73 
REMARK       I    between atoms: S1_13  and  N_25 
REMARK       I    between atoms: S1_13  and  O1S_58 
REMARK       I    between atoms: S1_13  and  O2S_66 
REMARK       I    between atoms: S1_13  and  O3S_62 
REMARK       I    between atoms: S2_15  and  O6_41 
REMARK       I    between atoms: C3_16  and  O3_48 
REMARK       I    between atoms: C2_18  and  N_87 
REMARK       I    between atoms: C1_19  and  O4_39 
REMARK       I    between atoms: C3_20  and  O3_27 
REMARK       I    between atoms: C1_24  and  O1_84 
REMARK       I    between atoms: N_25  and  C2_78 
REMARK       I    between atoms: O4_28  and  C4_30 
REMARK       I    between atoms: O4_28  and  C1_86 
REMARK       I    between atoms: C2_34  and  O2_59 
REMARK       I    between atoms: O3_35  and  C3_60 
REMARK       I    between atoms: C5_37  and  C6_81 
REMARK       I    between atoms: O4_39  and  C4_79 
REMARK       I    between atoms: O4_40  and  C4_77 
REMARK       I    between atoms: O4_40  and  C1_61 
REMARK       I    between atoms: O6_41  and  C6_57 
REMARK       I    between atoms: O6_45  and  C6_81 
REMARK       I    between atoms: O6_45  and  S2_83 
REMARK       I    between atoms: C3_46  and  O3_72 
REMARK       I    between atoms: C5_50  and  C6_57 
REMARK       I    between atoms: O2_59  and  S_69 
REMARK       I    between atoms: O6_63  and  C6_64 
REMARK       I    between atoms: O6_63  and  S2_70 
REMARK       I    between atoms: C5_67  and  C6_88 
REMARK       I    between atoms: S_71  and  O2_89 
REMARK       I    between atoms: O4_75  and  C4_82 
REMARK       I    between atoms: C2_85  and  O2_89 
ROOT
ATOM      1  C5  SGN d 401      -7.765  -0.112  45.245  0.00  0.00     0.091 C 
ATOM      2  S1  SGN d 401      -5.192   1.375  50.036  0.00  0.00     0.156 S 
ATOM      3  C3  SGN d 401      -8.236   0.669  47.600  0.00  0.00     0.083 C 
ATOM      4  C2  SGN d 401      -6.709   0.637  47.825  0.00  0.00     0.081 C 
ATOM      5  O1S SGN d 401      -4.429   2.051  49.003  0.00  0.00    -0.296 OA
ATOM      6  C1  SGN d 401      -6.131  -0.472  46.931  0.00  0.00     0.147 C 
ATOM      7  O2S SGN d 401      -5.912   2.307  50.862  0.00  0.00    -0.296 OA
ATOM      8  O4  SGN d 401      -9.924   0.751  45.916  0.00  0.00    -0.348 OA
ATOM      9  O4S SGN d 401      -8.534   2.521  41.988  0.00  0.00    -0.572 OA
ATOM     10  O3S SGN d 401      -4.375   0.463  50.808  0.00  0.00    -0.296 OA
ATOM     11  O3  SGN d 401      -8.809   1.730  48.340  0.00  0.00    -0.391 OA
ATOM     12  O5  SGN d 401      -6.381  -0.192  45.586  0.00  0.00    -0.350 OA
ATOM     13  O6S SGN d 401      -6.210   2.022  41.584  0.00  0.00    -0.572 OA
ATOM     14  O6  SGN d 401      -7.197   1.540  43.708  0.00  0.00    -0.254 OA
ATOM     15  C6  SGN d 401      -7.773   0.263  43.770  0.00  0.00     0.067 C 
ATOM     16  S2  SGN d 401      -7.207   2.523  42.515  0.00  0.00     0.251 S 
ATOM     17  O5S SGN d 401      -6.864   3.792  43.096  0.00  0.00    -0.572 OA
ATOM     18  C4  SGN d 401      -8.542   0.919  46.120  0.00  0.00     0.095 C 
ATOM     19  O1  SGN d 401      -6.709  -1.747  47.259  0.00  0.00    -0.369 OA
ATOM     20  N   SGN d 401      -6.346   0.411  49.268  0.00  0.00    -0.210 NA
ATOM     21  H   SGN d 401      -8.272  -1.036  45.430  0.00  0.00     0.090 H 
ATOM     22  H   SGN d 401      -8.641  -0.272  47.912  0.00  0.00     0.089 H 
ATOM     23  H   SGN d 401      -6.294   1.588  47.566  0.00  0.00     0.076 H 
ATOM     24  H   SGN d 401      -5.011   2.651  48.511  0.00  0.00     0.231 HD
ATOM     25  H   SGN d 401      -5.075  -0.511  47.099  0.00  0.00     0.131 H 
ATOM     26  H   SGN d 401      -6.442   2.894  50.301  0.00  0.00     0.231 HD
ATOM     27  H   SGN d 401      -3.911  -0.143  50.208  0.00  0.00     0.231 HD
ATOM     28  H   SGN d 401      -8.431   2.573  48.043  0.00  0.00     0.210 HD
ATOM     29  H   SGN d 401      -8.775   0.286  43.394  0.00  0.00     0.080 H 
ATOM     30  H   SGN d 401      -7.235  -0.446  43.175  0.00  0.00     0.080 H 
ATOM     31  H   SGN d 401      -8.243   1.909  45.848  0.00  0.00     0.091 H 
ATOM     32  H   SGN d 401      -7.666  -1.718  47.108  0.00  0.00     0.212 HD
ATOM     33  H   SGN d 401      -7.209   0.510  49.803  0.00  0.00     0.140 HD
ATOM     34  C4  IDS d 404     -13.537  11.207  43.866  0.00  0.00     0.103 C 
ATOM     35  C5  IDS d 404     -14.659  10.177  43.953  0.00  0.00     0.152 C 
ATOM     36  O4  IDS d 404     -14.076  12.452  44.215  0.00  0.00    -0.348 OA
ATOM     37  O5  IDS d 404     -15.034   9.914  45.287  0.00  0.00    -0.340 OA
ATOM     38  C2  IDS d 404     -12.736  10.262  46.143  0.00  0.00     0.134 C 
ATOM     39  O62 IDS d 404     -16.120  10.159  42.068  0.00  0.00    -0.646 OA
ATOM     40  C3  IDS d 404     -12.335  10.874  44.791  0.00  0.00     0.094 C 
ATOM     41  O2  IDS d 404     -12.946  11.327  47.079  0.00  0.00    -0.244 OA
ATOM     42  O1S IDS d 404     -11.403  11.301  48.862  0.00  0.00    -0.572 OA
ATOM     43  O2S IDS d 404     -13.549  12.278  49.199  0.00  0.00    -0.572 OA
ATOM     44  S   IDS d 404     -12.788  11.214  48.626  0.00  0.00     0.252 S 
ATOM     45  O3  IDS d 404     -11.515   9.934  44.138  0.00  0.00    -0.390 OA
ATOM     46  C6  IDS d 404     -15.873  10.620  43.169  0.00  0.00     0.206 C 
ATOM     47  O3S IDS d 404     -13.257   9.928  48.989  0.00  0.00    -0.572 OA
ATOM     48  C1  IDS d 404     -13.992   9.348  46.090  0.00  0.00     0.161 C 
ATOM     49  O61 IDS d 404     -16.611  11.482  43.625  0.00  0.00    -0.646 OA
ATOM     50  H   IDS d 404     -13.154  11.209  42.867  0.00  0.00     0.092 H 
ATOM     51  H   IDS d 404     -14.274   9.275  43.526  0.00  0.00     0.104 H 
ATOM     52  H   IDS d 404     -11.934   9.622  46.444  0.00  0.00     0.097 H 
ATOM     53  H   IDS d 404     -11.840  11.801  44.987  0.00  0.00     0.091 H 
ATOM     54  H   IDS d 404     -12.015   9.117  43.987  0.00  0.00     0.210 HD
ATOM     55  H   IDS d 404     -14.396   9.263  47.077  0.00  0.00     0.133 H 
ATOM     56  C1  SGN d 405     -13.823  13.486  43.310  0.00  0.00     0.150 C 
ATOM     57  O6S SGN d 405     -14.120  14.700  39.478  0.00  0.00    -0.572 OA
ATOM     58  N   SGN d 405     -13.362  14.716  45.376  0.00  0.00    -0.210 NA
ATOM     59  S1  SGN d 405     -11.945  15.430  45.646  0.00  0.00     0.156 S 
ATOM     60  S2  SGN d 405     -15.422  14.859  38.838  0.00  0.00     0.251 S 
ATOM     61  O2S SGN d 405     -11.955  16.632  44.849  0.00  0.00    -0.296 OA
ATOM     62  C3  SGN d 405     -15.392  15.304  44.124  0.00  0.00     0.083 C 
ATOM     63  O5  SGN d 405     -14.613  13.413  42.102  0.00  0.00    -0.349 OA
ATOM     64  O3  SGN d 405     -15.424  16.610  44.669  0.00  0.00    -0.391 OA
ATOM     65  O6  SGN d 405     -16.531  14.729  39.983  0.00  0.00    -0.254 OA
ATOM     66  O5S SGN d 405     -15.614  16.162  38.249  0.00  0.00    -0.572 OA
ATOM     67  C5  SGN d 405     -15.984  13.885  42.225  0.00  0.00     0.090 C 
ATOM     68  O4S SGN d 405     -15.680  13.821  37.904  0.00  0.00    -0.572 OA
ATOM     69  O1S SGN d 405     -10.945  14.486  45.218  0.00  0.00    -0.296 OA
ATOM     70  C2  SGN d 405     -13.944  14.831  44.042  0.00  0.00     0.081 C 
ATOM     71  C6  SGN d 405     -16.732  13.648  40.885  0.00  0.00     0.067 C 
ATOM     72  O4  SGN d 405     -17.279  15.877  42.720  0.00  0.00    -0.390 OA
ATOM     73  O3S SGN d 405     -11.835  15.682  47.044  0.00  0.00    -0.296 OA
ATOM     74  C4  SGN d 405     -15.961  15.335  42.694  0.00  0.00     0.089 C 
ATOM     75  H   SGN d 405     -12.820  13.380  42.952  0.00  0.00     0.131 H 
ATOM     76  H   SGN d 405     -13.242  13.721  45.570  0.00  0.00     0.140 HD
ATOM     77  H   SGN d 405     -12.032  16.397  43.910  0.00  0.00     0.231 HD
ATOM     78  H   SGN d 405     -15.969  14.649  44.743  0.00  0.00     0.089 H 
ATOM     79  H   SGN d 405     -14.901  17.206  44.111  0.00  0.00     0.210 HD
ATOM     80  H   SGN d 405     -16.532  13.338  42.963  0.00  0.00     0.090 H 
ATOM     81  H   SGN d 405     -11.036  14.328  44.265  0.00  0.00     0.231 HD
ATOM     82  H   SGN d 405     -13.406  15.567  43.482  0.00  0.00     0.076 H 
ATOM     83  H   SGN d 405     -16.369  12.747  40.437  0.00  0.00     0.080 H 
ATOM     84  H   SGN d 405     -17.779  13.571  41.092  0.00  0.00     0.080 H 
ATOM     85  H   SGN d 405     -17.243  16.799  43.020  0.00  0.00     0.210 HD
ATOM     86  H   SGN d 405     -11.833  14.840  47.526  0.00  0.00     0.231 HD
ATOM     87  H   SGN d 405     -15.374  15.942  42.037  0.00  0.00     0.091 H 
ATOM     88  O5S SGN d 403     -16.983   6.870  50.699  0.00  0.00    -0.572 OA
ATOM     89  C3  SGN d 403     -14.541   6.128  44.689  0.00  0.00     0.083 C 
ATOM     90  O5  SGN d 403     -14.596   4.948  47.261  0.00  0.00    -0.349 OA
ATOM     91  S1  SGN d 403     -16.966   3.406  43.560  0.00  0.00     0.156 S 
ATOM     92  O3  SGN d 403     -15.151   6.857  43.666  0.00  0.00    -0.391 OA
ATOM     93  O4S SGN d 403     -16.754   8.629  49.038  0.00  0.00    -0.572 OA
ATOM     94  N   SGN d 403     -15.502   4.022  43.846  0.00  0.00    -0.210 NA
ATOM     95  O4  SGN d 403     -13.621   8.067  45.649  0.00  0.00    -0.348 OA
ATOM     96  O6S SGN d 403     -15.186   8.402  50.810  0.00  0.00    -0.572 OA
ATOM     97  C4  SGN d 403     -14.486   7.005  45.929  0.00  0.00     0.095 C 
ATOM     98  C5  SGN d 403     -13.908   6.170  47.097  0.00  0.00     0.091 C 
ATOM     99  O6  SGN d 403     -15.296   6.716  49.012  0.00  0.00    -0.254 OA
ATOM    100  O1S SGN d 403     -17.600   3.222  44.842  0.00  0.00    -0.296 OA
ATOM    101  C1  SGN d 403     -14.691   4.127  46.105  0.00  0.00     0.150 C 
ATOM    102  O3S SGN d 403     -16.752   2.154  42.919  0.00  0.00    -0.296 OA
ATOM    103  O2S SGN d 403     -17.640   4.394  42.740  0.00  0.00    -0.296 OA
ATOM    104  C2  SGN d 403     -15.355   4.894  44.993  0.00  0.00     0.081 C 
ATOM    105  C6  SGN d 403     -13.983   6.852  48.484  0.00  0.00     0.067 C 
ATOM    106  S2  SGN d 403     -16.090   7.715  49.956  0.00  0.00     0.251 S 
ATOM    107  H   SGN d 403     -13.556   5.835  44.391  0.00  0.00     0.089 H 
ATOM    108  H   SGN d 403     -16.042   7.119  43.944  0.00  0.00     0.210 HD
ATOM    109  H   SGN d 403     -15.228   4.555  43.020  0.00  0.00     0.140 HD
ATOM    110  H   SGN d 403     -15.457   7.368  46.195  0.00  0.00     0.091 H 
ATOM    111  H   SGN d 403     -12.886   6.041  46.808  0.00  0.00     0.090 H 
ATOM    112  H   SGN d 403     -17.736   4.086  45.262  0.00  0.00     0.231 HD
ATOM    113  H   SGN d 403     -15.275   3.275  46.384  0.00  0.00     0.131 H 
ATOM    114  H   SGN d 403     -16.299   1.551  43.530  0.00  0.00     0.231 HD
ATOM    115  H   SGN d 403     -17.748   5.215  43.246  0.00  0.00     0.231 HD
ATOM    116  H   SGN d 403     -16.333   5.221  45.275  0.00  0.00     0.076 H 
ATOM    117  H   SGN d 403     -13.744   7.890  48.384  0.00  0.00     0.080 H 
ATOM    118  H   SGN d 403     -13.283   6.387  49.146  0.00  0.00     0.080 H 
ATOM    119  O62 IDS d 402     -11.116   4.597  48.520  0.00  0.00    -0.646 OA
ATOM    120  C1  IDS d 402     -10.541   1.620  44.995  0.00  0.00     0.161 C 
ATOM    121  O3S IDS d 402     -11.299   0.391  41.949  0.00  0.00    -0.572 OA
ATOM    122  O3  IDS d 402     -12.728   0.340  46.767  0.00  0.00    -0.390 OA
ATOM    123  O5  IDS d 402     -10.618   2.937  45.478  0.00  0.00    -0.340 OA
ATOM    124  O4  IDS d 402     -13.454   3.645  45.660  0.00  0.00    -0.348 OA
ATOM    125  O61 IDS d 402     -10.893   5.463  46.594  0.00  0.00    -0.646 OA
ATOM    126  O1S IDS d 402     -13.644   0.825  41.738  0.00  0.00    -0.572 OA
ATOM    127  O2S IDS d 402     -12.075   2.559  41.341  0.00  0.00    -0.572 OA
ATOM    128  C3  IDS d 402     -12.965   1.325  45.797  0.00  0.00     0.094 C 
ATOM    129  C5  IDS d 402     -11.357   3.065  46.687  0.00  0.00     0.152 C 
ATOM    130  S   IDS d 402     -12.352   1.373  42.051  0.00  0.00     0.252 S 
ATOM    131  C4  IDS d 402     -12.840   2.686  46.470  0.00  0.00     0.103 C 
ATOM    132  C2  IDS d 402     -11.947   1.125  44.660  0.00  0.00     0.134 C 
ATOM    133  C6  IDS d 402     -11.102   4.458  47.307  0.00  0.00     0.206 C 
ATOM    134  O2  IDS d 402     -12.424   1.821  43.542  0.00  0.00    -0.244 OA
ATOM    135  H   IDS d 402      -9.935   1.625  44.113  0.00  0.00     0.133 H 
ATOM    136  H   IDS d 402     -12.802  -0.539  46.361  0.00  0.00     0.210 HD
ATOM    137  H   IDS d 402     -13.945   1.259  45.373  0.00  0.00     0.091 H 
ATOM    138  H   IDS d 402     -11.016   2.362  47.419  0.00  0.00     0.104 H 
ATOM    139  H   IDS d 402     -13.317   2.646  47.427  0.00  0.00     0.092 H 
ATOM    140  H   IDS d 402     -11.857   0.074  44.484  0.00  0.00     0.097 H 
ENDROOT
TORSDOF 45
ENDMDL
MODEL 35
REMARK VINA RESULT:      -0.2      4.781     11.771
REMARK  0 active torsions:
REMARK  status: ('A' for Active; 'I' for Inactive)
REMARK       I    between atoms: C5_1  and  C6_64 
REMARK       I    between atoms: C4_2  and  O4_32 
REMARK       I    between atoms: C1_3  and  O4_32 
REMARK       I    between atoms: S1_6  and  N_87 
REMARK       I    between atoms: S1_6  and  O1S_23 
REMARK       I    between atoms: S1_6  and  O2S_31 
REMARK       I    between atoms: S1_6  and  O3S_47 
REMARK       I    between atoms: N_7  and  C2_53 
REMARK       I    between atoms: N_7  and  S1_10 
REMARK       I    between atoms: C3_9  and  O3_14 
REMARK       I    between atoms: S1_10  and  O1S_52 
REMARK       I    between atoms: S1_10  and  O2S_17 
REMARK       I    between atoms: S1_10  and  O3S_80 
REMARK       I    between atoms: C5_12  and  C6_73 
REMARK       I    between atoms: S1_13  and  N_25 
REMARK       I    between atoms: S1_13  and  O1S_58 
REMARK       I    between atoms: S1_13  and  O2S_66 
REMARK       I    between atoms: S1_13  and  O3S_62 
REMARK       I    between atoms: S2_15  and  O6_41 
REMARK       I    between atoms: C3_16  and  O3_48 
REMARK       I    between atoms: C2_18  and  N_87 
REMARK       I    between atoms: C1_19  and  O4_39 
REMARK       I    between atoms: C3_20  and  O3_27 
REMARK       I    between atoms: C1_24  and  O1_84 
REMARK       I    between atoms: N_25  and  C2_78 
REMARK       I    between atoms: O4_28  and  C4_30 
REMARK       I    between atoms: O4_28  and  C1_86 
REMARK       I    between atoms: C2_34  and  O2_59 
REMARK       I    between atoms: O3_35  and  C3_60 
REMARK       I    between atoms: C5_37  and  C6_81 
REMARK       I    between atoms: O4_39  and  C4_79 
REMARK       I    between atoms: O4_40  and  C4_77 
REMARK       I    between atoms: O4_40  and  C1_61 
REMARK       I    between atoms: O6_41  and  C6_57 
REMARK       I    between atoms: O6_45  and  C6_81 
REMARK       I    between atoms: O6_45  and  S2_83 
REMARK       I    between atoms: C3_46  and  O3_72 
REMARK       I    between atoms: C5_50  and  C6_57 
REMARK       I    between atoms: O2_59  and  S_69 
REMARK       I    between atoms: O6_63  and  C6_64 
REMARK       I    between atoms: O6_63  and  S2_70 
REMARK       I    between atoms: C5_67  and  C6_88 
REMARK       I    between atoms: S_71  and  O2_89 
REMARK       I    between atoms: O4_75  and  C4_82 
REMARK       I    between atoms: C2_85  and  O2_89 
ROOT
ATOM      1  C5  SGN d 401     -19.057  10.457  44.845  0.00  0.00     0.091 C 
ATOM      2  S1  SGN d 401     -16.229  15.112  46.301  0.00  0.00     0.156 S 
ATOM      3  C3  SGN d 401     -16.957  11.758  44.322  0.00  0.00     0.083 C 
ATOM      4  C2  SGN d 401     -17.444  12.795  45.356  0.00  0.00     0.081 C 
ATOM      5  O1S SGN d 401     -16.634  14.536  47.569  0.00  0.00    -0.296 OA
ATOM      6  C1  SGN d 401     -18.981  12.778  45.342  0.00  0.00     0.147 C 
ATOM      7  O2S SGN d 401     -14.803  15.053  46.121  0.00  0.00    -0.296 OA
ATOM      8  O4  SGN d 401     -17.211   9.494  43.612  0.00  0.00    -0.348 OA
ATOM      9  O4S SGN d 401     -18.740   6.706  46.834  0.00  0.00    -0.572 OA
ATOM     10  O3S SGN d 401     -16.758  16.447  46.115  0.00  0.00    -0.296 OA
ATOM     11  O3  SGN d 401     -15.544  11.674  44.352  0.00  0.00    -0.391 OA
ATOM     12  O5  SGN d 401     -19.456  11.519  45.711  0.00  0.00    -0.350 OA
ATOM     13  O6S SGN d 401     -20.234   7.853  48.338  0.00  0.00    -0.572 OA
ATOM     14  O6  SGN d 401     -18.974   9.081  46.718  0.00  0.00    -0.254 OA
ATOM     15  C6  SGN d 401     -19.633   9.203  45.487  0.00  0.00     0.067 C 
ATOM     16  S2  SGN d 401     -18.950   7.853  47.657  0.00  0.00     0.251 S 
ATOM     17  O5S SGN d 401     -17.836   8.095  48.533  0.00  0.00    -0.572 OA
ATOM     18  C4  SGN d 401     -17.510  10.373  44.670  0.00  0.00     0.095 C 
ATOM     19  O1  SGN d 401     -19.485  13.105  44.035  0.00  0.00    -0.369 OA
ATOM     20  N   SGN d 401     -16.916  14.177  45.075  0.00  0.00    -0.210 NA
ATOM     21  H   SGN d 401     -19.419  10.604  43.848  0.00  0.00     0.090 H 
ATOM     22  H   SGN d 401     -17.296  12.064  43.353  0.00  0.00     0.089 H 
ATOM     23  H   SGN d 401     -17.070  12.533  46.323  0.00  0.00     0.076 H 
ATOM     24  H   SGN d 401     -16.260  13.645  47.655  0.00  0.00     0.231 HD
ATOM     25  H   SGN d 401     -19.322  13.511  46.043  0.00  0.00     0.131 H 
ATOM     26  H   SGN d 401     -14.498  14.142  46.255  0.00  0.00     0.231 HD
ATOM     27  H   SGN d 401     -17.719  16.435  46.247  0.00  0.00     0.231 HD
ATOM     28  H   SGN d 401     -15.256  11.395  45.236  0.00  0.00     0.210 HD
ATOM     29  H   SGN d 401     -19.444   8.347  44.873  0.00  0.00     0.080 H 
ATOM     30  H   SGN d 401     -20.695   9.269  45.608  0.00  0.00     0.080 H 
ATOM     31  H   SGN d 401     -17.070  10.022  45.580  0.00  0.00     0.091 H 
ATOM     32  H   SGN d 401     -19.178  12.443  43.396  0.00  0.00     0.212 HD
ATOM     33  H   SGN d 401     -16.202  14.074  44.354  0.00  0.00     0.140 HD
ATOM     34  C4  IDS d 404      -9.465   2.638  48.037  0.00  0.00     0.103 C 
ATOM     35  C5  IDS d 404      -9.720   2.397  46.552  0.00  0.00     0.152 C 
ATOM     36  O4  IDS d 404      -8.160   2.216  48.317  0.00  0.00    -0.348 OA
ATOM     37  O5  IDS d 404      -8.996   3.293  45.738  0.00  0.00    -0.340 OA
ATOM     38  C2  IDS d 404      -9.145   5.128  47.395  0.00  0.00     0.134 C 
ATOM     39  O62 IDS d 404     -10.251   0.138  46.002  0.00  0.00    -0.646 OA
ATOM     40  C3  IDS d 404      -9.640   4.125  48.449  0.00  0.00     0.094 C 
ATOM     41  O2  IDS d 404      -7.759   5.398  47.639  0.00  0.00    -0.244 OA
ATOM     42  O1S IDS d 404      -7.351   7.638  48.249  0.00  0.00    -0.572 OA
ATOM     43  O2S IDS d 404      -5.619   6.391  47.191  0.00  0.00    -0.572 OA
ATOM     44  S   IDS d 404      -7.011   6.709  47.248  0.00  0.00     0.252 S 
ATOM     45  O3  IDS d 404     -11.010   4.376  48.649  0.00  0.00    -0.390 OA
ATOM     46  C6  IDS d 404      -9.381   0.977  46.159  0.00  0.00     0.206 C 
ATOM     47  O3S IDS d 404      -7.545   7.126  46.004  0.00  0.00    -0.572 OA
ATOM     48  C1  IDS d 404      -9.345   4.670  45.923  0.00  0.00     0.161 C 
ATOM     49  O61 IDS d 404      -8.212   0.646  46.026  0.00  0.00    -0.646 OA
ATOM     50  H   IDS d 404     -10.188   2.085  48.599  0.00  0.00     0.092 H 
ATOM     51  H   IDS d 404     -10.764   2.566  46.394  0.00  0.00     0.104 H 
ATOM     52  H   IDS d 404      -9.744   6.008  47.499  0.00  0.00     0.097 H 
ATOM     53  H   IDS d 404      -9.052   4.264  49.331  0.00  0.00     0.091 H 
ATOM     54  H   IDS d 404     -11.491   4.235  47.818  0.00  0.00     0.210 HD
ATOM     55  H   IDS d 404      -8.681   5.227  45.297  0.00  0.00     0.133 H 
ATOM     56  C1  SGN d 405      -8.035   1.341  49.398  0.00  0.00     0.150 C 
ATOM     57  O6S SGN d 405      -9.252  -2.146  51.014  0.00  0.00    -0.572 OA
ATOM     58  N   SGN d 405      -6.140   2.801  49.918  0.00  0.00    -0.210 NA
ATOM     59  S1  SGN d 405      -6.022   3.579  51.321  0.00  0.00     0.156 S 
ATOM     60  S2  SGN d 405      -9.000  -3.416  50.340  0.00  0.00     0.251 S 
ATOM     61  O2S SGN d 405      -5.612   2.586  52.285  0.00  0.00    -0.296 OA
ATOM     62  C3  SGN d 405      -5.648   0.520  49.149  0.00  0.00     0.083 C 
ATOM     63  O5  SGN d 405      -8.475  -0.007  49.115  0.00  0.00    -0.349 OA
ATOM     64  O3  SGN d 405      -4.383   0.513  49.783  0.00  0.00    -0.391 OA
ATOM     65  O6  SGN d 405      -8.004  -3.118  49.125  0.00  0.00    -0.254 OA
ATOM     66  O5S SGN d 405      -8.328  -4.382  51.174  0.00  0.00    -0.572 OA
ATOM     67  C5  SGN d 405      -7.533  -0.827  48.371  0.00  0.00     0.090 C 
ATOM     68  O4S SGN d 405     -10.184  -3.954  49.769  0.00  0.00    -0.572 OA
ATOM     69  O1S SGN d 405      -7.336   4.105  51.588  0.00  0.00    -0.296 OA
ATOM     70  C2  SGN d 405      -6.598   1.415  49.939  0.00  0.00     0.081 C 
ATOM     71  C6  SGN d 405      -8.183  -2.201  48.053  0.00  0.00     0.067 C 
ATOM     72  O4  SGN d 405      -5.312  -1.794  48.521  0.00  0.00    -0.390 OA
ATOM     73  O3S SGN d 405      -5.078   4.636  51.165  0.00  0.00    -0.296 OA
ATOM     74  C4  SGN d 405      -6.229  -0.907  49.156  0.00  0.00     0.089 C 
ATOM     75  H   SGN d 405      -8.707   1.661  50.167  0.00  0.00     0.131 H 
ATOM     76  H   SGN d 405      -6.790   3.327  49.333  0.00  0.00     0.140 HD
ATOM     77  H   SGN d 405      -6.291   1.896  52.347  0.00  0.00     0.231 HD
ATOM     78  H   SGN d 405      -5.539   0.876  48.146  0.00  0.00     0.089 H 
ATOM     79  H   SGN d 405      -4.479   0.191  50.693  0.00  0.00     0.210 HD
ATOM     80  H   SGN d 405      -7.288  -0.397  47.422  0.00  0.00     0.090 H 
ATOM     81  H   SGN d 405      -7.963   3.371  51.691  0.00  0.00     0.231 HD
ATOM     82  H   SGN d 405      -6.601   1.057  50.947  0.00  0.00     0.076 H 
ATOM     83  H   SGN d 405      -9.231  -2.060  47.886  0.00  0.00     0.080 H 
ATOM     84  H   SGN d 405      -7.713  -2.604  47.181  0.00  0.00     0.080 H 
ATOM     85  H   SGN d 405      -4.490  -1.831  49.034  0.00  0.00     0.210 HD
ATOM     86  H   SGN d 405      -5.408   5.269  50.508  0.00  0.00     0.231 HD
ATOM     87  H   SGN d 405      -6.398  -1.272  50.147  0.00  0.00     0.091 H 
ATOM     88  O5S SGN d 403      -7.311   7.306  40.898  0.00  0.00    -0.572 OA
ATOM     89  C3  SGN d 403     -12.254   4.291  43.918  0.00  0.00     0.083 C 
ATOM     90  O5  SGN d 403     -11.601   6.602  42.420  0.00  0.00    -0.349 OA
ATOM     91  S1  SGN d 403     -13.920   2.915  40.771  0.00  0.00     0.156 S 
ATOM     92  O3  SGN d 403     -12.082   2.937  44.212  0.00  0.00    -0.391 OA
ATOM     93  O4S SGN d 403      -7.092   5.610  42.626  0.00  0.00    -0.572 OA
ATOM     94  N   SGN d 403     -13.882   3.762  42.144  0.00  0.00    -0.210 NA
ATOM     95  O4  SGN d 403     -10.665   4.938  45.524  0.00  0.00    -0.348 OA
ATOM     96  O6S SGN d 403      -6.844   7.919  43.133  0.00  0.00    -0.572 OA
ATOM     97  C4  SGN d 403     -10.931   5.000  44.152  0.00  0.00     0.095 C 
ATOM     98  C5  SGN d 403     -11.083   6.480  43.728  0.00  0.00     0.091 C 
ATOM     99  O6  SGN d 403      -9.049   7.003  42.512  0.00  0.00    -0.254 OA
ATOM    100  O1S SGN d 403     -13.068   3.601  39.832  0.00  0.00    -0.296 OA
ATOM    101  C1  SGN d 403     -12.820   5.918  42.166  0.00  0.00     0.150 C 
ATOM    102  O3S SGN d 403     -15.273   2.933  40.331  0.00  0.00    -0.296 OA
ATOM    103  O2S SGN d 403     -13.419   1.600  41.122  0.00  0.00    -0.296 OA
ATOM    104  C2  SGN d 403     -12.651   4.453  42.470  0.00  0.00     0.081 C 
ATOM    105  C6  SGN d 403      -9.766   7.291  43.706  0.00  0.00     0.067 C 
ATOM    106  S2  SGN d 403      -7.478   6.972  42.286  0.00  0.00     0.251 S 
ATOM    107  H   SGN d 403     -13.020   4.705  44.540  0.00  0.00     0.089 H 
ATOM    108  H   SGN d 403     -11.387   2.569  43.644  0.00  0.00     0.210 HD
ATOM    109  H   SGN d 403     -14.080   3.115  42.908  0.00  0.00     0.140 HD
ATOM    110  H   SGN d 403     -10.139   4.547  43.592  0.00  0.00     0.091 H 
ATOM    111  H   SGN d 403     -11.740   6.870  44.477  0.00  0.00     0.090 H 
ATOM    112  H   SGN d 403     -12.152   3.578  40.150  0.00  0.00     0.231 HD
ATOM    113  H   SGN d 403     -13.046   6.070  41.131  0.00  0.00     0.131 H 
ATOM    114  H   SGN d 403     -15.531   3.843  40.116  0.00  0.00     0.231 HD
ATOM    115  H   SGN d 403     -12.495   1.672  41.410  0.00  0.00     0.231 HD
ATOM    116  H   SGN d 403     -11.873   4.020  41.878  0.00  0.00     0.076 H 
ATOM    117  H   SGN d 403      -9.169   7.024  44.553  0.00  0.00     0.080 H 
ATOM    118  H   SGN d 403      -9.991   8.336  43.743  0.00  0.00     0.080 H 
ATOM    119  O62 IDS d 402     -12.482   9.626  44.394  0.00  0.00    -0.646 OA
ATOM    120  C1  IDS d 402     -16.876   8.170  43.959  0.00  0.00     0.161 C 
ATOM    121  O3S IDS d 402     -19.219   5.792  43.499  0.00  0.00    -0.572 OA
ATOM    122  O3  IDS d 402     -15.927   8.706  41.065  0.00  0.00    -0.390 OA
ATOM    123  O5  IDS d 402     -15.620   8.088  44.585  0.00  0.00    -0.340 OA
ATOM    124  O4  IDS d 402     -13.904   6.419  42.898  0.00  0.00    -0.348 OA
ATOM    125  O61 IDS d 402     -13.054   8.004  45.637  0.00  0.00    -0.646 OA
ATOM    126  O1S IDS d 402     -18.117   4.181  42.112  0.00  0.00    -0.572 OA
ATOM    127  O2S IDS d 402     -17.708   4.215  44.448  0.00  0.00    -0.572 OA
ATOM    128  C3  IDS d 402     -15.685   7.521  41.777  0.00  0.00     0.094 C 
ATOM    129  C5  IDS d 402     -14.545   8.563  43.783  0.00  0.00     0.152 C 
ATOM    130  S   IDS d 402     -18.045   4.974  43.310  0.00  0.00     0.252 S 
ATOM    131  C4  IDS d 402     -14.366   7.683  42.524  0.00  0.00     0.103 C 
ATOM    132  C2  IDS d 402     -16.878   7.281  42.717  0.00  0.00     0.134 C 
ATOM    133  C6  IDS d 402     -13.286   8.746  44.659  0.00  0.00     0.206 C 
ATOM    134  O2  IDS d 402     -16.837   5.938  43.115  0.00  0.00    -0.244 OA
ATOM    135  H   IDS d 402     -17.616   7.832  44.654  0.00  0.00     0.133 H 
ATOM    136  H   IDS d 402     -16.764   8.626  40.580  0.00  0.00     0.210 HD
ATOM    137  H   IDS d 402     -15.595   6.668  41.138  0.00  0.00     0.091 H 
ATOM    138  H   IDS d 402     -14.762   9.534  43.390  0.00  0.00     0.104 H 
ATOM    139  H   IDS d 402     -13.659   8.163  41.880  0.00  0.00     0.092 H 
ATOM    140  H   IDS d 402     -17.771   7.524  42.180  0.00  0.00     0.097 H 
ENDROOT
TORSDOF 45
ENDMDL
MODEL 36
REMARK VINA RESULT:       0.5      2.913      5.704
REMARK  0 active torsions:
REMARK  status: ('A' for Active; 'I' for Inactive)
REMARK       I    between atoms: C5_1  and  C6_64 
REMARK       I    between atoms: C4_2  and  O4_32 
REMARK       I    between atoms: C1_3  and  O4_32 
REMARK       I    between atoms: S1_6  and  N_87 
REMARK       I    between atoms: S1_6  and  O1S_23 
REMARK       I    between atoms: S1_6  and  O2S_31 
REMARK       I    between atoms: S1_6  and  O3S_47 
REMARK       I    between atoms: N_7  and  C2_53 
REMARK       I    between atoms: N_7  and  S1_10 
REMARK       I    between atoms: C3_9  and  O3_14 
REMARK       I    between atoms: S1_10  and  O1S_52 
REMARK       I    between atoms: S1_10  and  O2S_17 
REMARK       I    between atoms: S1_10  and  O3S_80 
REMARK       I    between atoms: C5_12  and  C6_73 
REMARK       I    between atoms: S1_13  and  N_25 
REMARK       I    between atoms: S1_13  and  O1S_58 
REMARK       I    between atoms: S1_13  and  O2S_66 
REMARK       I    between atoms: S1_13  and  O3S_62 
REMARK       I    between atoms: S2_15  and  O6_41 
REMARK       I    between atoms: C3_16  and  O3_48 
REMARK       I    between atoms: C2_18  and  N_87 
REMARK       I    between atoms: C1_19  and  O4_39 
REMARK       I    between atoms: C3_20  and  O3_27 
REMARK       I    between atoms: C1_24  and  O1_84 
REMARK       I    between atoms: N_25  and  C2_78 
REMARK       I    between atoms: O4_28  and  C4_30 
REMARK       I    between atoms: O4_28  and  C1_86 
REMARK       I    between atoms: C2_34  and  O2_59 
REMARK       I    between atoms: O3_35  and  C3_60 
REMARK       I    between atoms: C5_37  and  C6_81 
REMARK       I    between atoms: O4_39  and  C4_79 
REMARK       I    between atoms: O4_40  and  C4_77 
REMARK       I    between atoms: O4_40  and  C1_61 
REMARK       I    between atoms: O6_41  and  C6_57 
REMARK       I    between atoms: O6_45  and  C6_81 
REMARK       I    between atoms: O6_45  and  S2_83 
REMARK       I    between atoms: C3_46  and  O3_72 
REMARK       I    between atoms: C5_50  and  C6_57 
REMARK       I    between atoms: O2_59  and  S_69 
REMARK       I    between atoms: O6_63  and  C6_64 
REMARK       I    between atoms: O6_63  and  S2_70 
REMARK       I    between atoms: C5_67  and  C6_88 
REMARK       I    between atoms: S_71  and  O2_89 
REMARK       I    between atoms: O4_75  and  C4_82 
REMARK       I    between atoms: C2_85  and  O2_89 
ROOT
ATOM      1  C5  SGN d 401     -13.016  -0.613  44.218  0.00  0.00     0.091 C 
ATOM      2  S1  SGN d 401      -7.844  -1.001  46.428  0.00  0.00     0.156 S 
ATOM      3  C3  SGN d 401     -11.668   0.025  46.255  0.00  0.00     0.083 C 
ATOM      4  C2  SGN d 401     -10.484  -0.719  45.600  0.00  0.00     0.081 C 
ATOM      5  O1S SGN d 401      -7.608  -0.632  45.045  0.00  0.00    -0.296 OA
ATOM      6  C1  SGN d 401     -11.067  -1.861  44.751  0.00  0.00     0.147 C 
ATOM      7  O2S SGN d 401      -7.476   0.056  47.332  0.00  0.00    -0.296 OA
ATOM      8  O4  SGN d 401     -13.773   1.051  45.803  0.00  0.00    -0.348 OA
ATOM      9  O4S SGN d 401     -14.278   2.430  41.521  0.00  0.00    -0.572 OA
ATOM     10  O3S SGN d 401      -7.225  -2.264  46.768  0.00  0.00    -0.296 OA
ATOM     11  O3  SGN d 401     -11.190   1.140  46.985  0.00  0.00    -0.391 OA
ATOM     12  O5  SGN d 401     -11.888  -1.349  43.745  0.00  0.00    -0.350 OA
ATOM     13  O6S SGN d 401     -13.097   0.983  39.997  0.00  0.00    -0.572 OA
ATOM     14  O6  SGN d 401     -12.784   0.764  42.358  0.00  0.00    -0.254 OA
ATOM     15  C6  SGN d 401     -13.702  -0.112  42.955  0.00  0.00     0.067 C 
ATOM     16  S2  SGN d 401     -13.048   1.773  41.217  0.00  0.00     0.251 S 
ATOM     17  O5S SGN d 401     -11.930   2.675  41.272  0.00  0.00    -0.572 OA
ATOM     18  C4  SGN d 401     -12.617   0.551  45.175  0.00  0.00     0.095 C 
ATOM     19  O1  SGN d 401     -11.833  -2.765  45.566  0.00  0.00    -0.369 OA
ATOM     20  N   SGN d 401      -9.504  -1.246  46.614  0.00  0.00    -0.210 NA
ATOM     21  H   SGN d 401     -13.663  -1.223  44.814  0.00  0.00     0.090 H 
ATOM     22  H   SGN d 401     -12.177  -0.659  46.902  0.00  0.00     0.089 H 
ATOM     23  H   SGN d 401      -9.932  -0.036  44.990  0.00  0.00     0.076 H 
ATOM     24  H   SGN d 401      -8.038   0.218  44.859  0.00  0.00     0.231 HD
ATOM     25  H   SGN d 401     -10.248  -2.392  44.311  0.00  0.00     0.131 H 
ATOM     26  H   SGN d 401      -7.915   0.878  47.063  0.00  0.00     0.231 HD
ATOM     27  H   SGN d 401      -7.503  -2.943  46.132  0.00  0.00     0.231 HD
ATOM     28  H   SGN d 401     -10.732   1.748  46.383  0.00  0.00     0.210 HD
ATOM     29  H   SGN d 401     -14.607   0.404  43.199  0.00  0.00     0.080 H 
ATOM     30  H   SGN d 401     -13.969  -0.915  42.301  0.00  0.00     0.080 H 
ATOM     31  H   SGN d 401     -12.137   1.323  44.611  0.00  0.00     0.091 H 
ATOM     32  H   SGN d 401     -12.576  -2.289  45.967  0.00  0.00     0.212 HD
ATOM     33  H   SGN d 401      -9.761  -0.828  47.509  0.00  0.00     0.140 HD
ATOM     34  C4  IDS d 404     -12.970  12.167  44.260  0.00  0.00     0.103 C 
ATOM     35  C5  IDS d 404     -14.149  11.753  45.136  0.00  0.00     0.152 C 
ATOM     36  O4  IDS d 404     -12.613  13.472  44.620  0.00  0.00    -0.348 OA
ATOM     37  O5  IDS d 404     -13.765  11.540  46.476  0.00  0.00    -0.340 OA
ATOM     38  C2  IDS d 404     -11.519  10.713  45.840  0.00  0.00     0.134 C 
ATOM     39  O62 IDS d 404     -16.254  12.610  44.413  0.00  0.00    -0.646 OA
ATOM     40  C3  IDS d 404     -11.745  11.224  44.408  0.00  0.00     0.094 C 
ATOM     41  O2  IDS d 404     -10.673  11.644  46.527  0.00  0.00    -0.244 OA
ATOM     42  O1S IDS d 404      -8.589  10.722  47.130  0.00  0.00    -0.572 OA
ATOM     43  O2S IDS d 404      -9.478  12.519  48.416  0.00  0.00    -0.572 OA
ATOM     44  S   IDS d 404      -9.729  11.298  47.719  0.00  0.00     0.252 S 
ATOM     45  O3  IDS d 404     -11.948  10.095  43.592  0.00  0.00    -0.390 OA
ATOM     46  C6  IDS d 404     -15.256  12.783  45.090  0.00  0.00     0.206 C 
ATOM     47  O3S IDS d 404     -10.404  10.331  48.504  0.00  0.00    -0.572 OA
ATOM     48  C1  IDS d 404     -12.821  10.477  46.655  0.00  0.00     0.161 C 
ATOM     49  O61 IDS d 404     -15.141  13.827  45.714  0.00  0.00    -0.646 OA
ATOM     50  H   IDS d 404     -13.271  12.108  43.235  0.00  0.00     0.092 H 
ATOM     51  H   IDS d 404     -14.512  10.829  44.737  0.00  0.00     0.104 H 
ATOM     52  H   IDS d 404     -11.061   9.750  45.756  0.00  0.00     0.097 H 
ATOM     53  H   IDS d 404     -10.888  11.799  44.128  0.00  0.00     0.091 H 
ATOM     54  H   IDS d 404     -12.736   9.615  43.892  0.00  0.00     0.210 HD
ATOM     55  H   IDS d 404     -12.578  10.474  47.697  0.00  0.00     0.133 H 
ATOM     56  C1  SGN d 405     -12.507  14.375  43.558  0.00  0.00     0.150 C 
ATOM     57  O6S SGN d 405     -14.377  16.015  40.387  0.00  0.00    -0.572 OA
ATOM     58  N   SGN d 405     -10.477  15.022  44.764  0.00  0.00    -0.210 NA
ATOM     59  S1  SGN d 405      -9.025  14.982  44.073  0.00  0.00     0.156 S 
ATOM     60  S2  SGN d 405     -15.585  16.817  40.557  0.00  0.00     0.251 S 
ATOM     61  O2S SGN d 405      -8.969  16.140  43.214  0.00  0.00    -0.296 OA
ATOM     62  C3  SGN d 405     -12.359  16.601  44.763  0.00  0.00     0.083 C 
ATOM     63  O5  SGN d 405     -13.780  14.804  43.025  0.00  0.00    -0.349 OA
ATOM     64  O3  SGN d 405     -11.508  17.709  44.990  0.00  0.00    -0.391 OA
ATOM     65  O6  SGN d 405     -15.764  17.074  42.125  0.00  0.00    -0.254 OA
ATOM     66  O5S SGN d 405     -15.494  18.122  39.950  0.00  0.00    -0.572 OA
ATOM     67  C5  SGN d 405     -14.466  15.828  43.798  0.00  0.00     0.090 C 
ATOM     68  O4S SGN d 405     -16.744  16.120  40.126  0.00  0.00    -0.572 OA
ATOM     69  O1S SGN d 405      -8.975  13.743  43.340  0.00  0.00    -0.296 OA
ATOM     70  C2  SGN d 405     -11.595  15.538  43.980  0.00  0.00     0.081 C 
ATOM     71  C6  SGN d 405     -15.856  16.107  43.164  0.00  0.00     0.067 C 
ATOM     72  O4  SGN d 405     -14.233  18.120  44.560  0.00  0.00    -0.390 OA
ATOM     73  O3S SGN d 405      -8.042  14.998  45.105  0.00  0.00    -0.296 OA
ATOM     74  C4  SGN d 405     -13.559  17.047  43.907  0.00  0.00     0.089 C 
ATOM     75  H   SGN d 405     -12.055  13.867  42.731  0.00  0.00     0.131 H 
ATOM     76  H   SGN d 405     -10.711  14.066  45.034  0.00  0.00     0.140 HD
ATOM     77  H   SGN d 405      -9.658  16.073  42.535  0.00  0.00     0.231 HD
ATOM     78  H   SGN d 405     -12.692  16.213  45.703  0.00  0.00     0.089 H 
ATOM     79  H   SGN d 405     -11.204  18.064  44.140  0.00  0.00     0.210 HD
ATOM     80  H   SGN d 405     -14.665  15.508  44.800  0.00  0.00     0.090 H 
ATOM     81  H   SGN d 405      -9.650  13.752  42.643  0.00  0.00     0.231 HD
ATOM     82  H   SGN d 405     -11.221  16.008  43.095  0.00  0.00     0.076 H 
ATOM     83  H   SGN d 405     -16.244  15.197  42.760  0.00  0.00     0.080 H 
ATOM     84  H   SGN d 405     -16.503  16.489  43.925  0.00  0.00     0.080 H 
ATOM     85  H   SGN d 405     -13.640  18.886  44.620  0.00  0.00     0.210 HD
ATOM     86  H   SGN d 405      -8.128  14.198  45.646  0.00  0.00     0.231 HD
ATOM     87  H   SGN d 405     -13.261  17.393  42.940  0.00  0.00     0.091 H 
ATOM     88  O5S SGN d 403     -13.353   9.118  52.503  0.00  0.00    -0.572 OA
ATOM     89  C3  SGN d 403     -15.389   8.035  46.394  0.00  0.00     0.083 C 
ATOM     90  O5  SGN d 403     -14.470   6.726  48.729  0.00  0.00    -0.349 OA
ATOM     91  S1  SGN d 403     -18.901   6.851  47.304  0.00  0.00     0.156 S 
ATOM     92  O3  SGN d 403     -16.086   9.071  45.769  0.00  0.00    -0.391 OA
ATOM     93  O4S SGN d 403     -13.383  10.758  50.709  0.00  0.00    -0.572 OA
ATOM     94  N   SGN d 403     -17.449   6.701  46.616  0.00  0.00    -0.210 NA
ATOM     95  O4  SGN d 403     -13.364   9.226  46.320  0.00  0.00    -0.348 OA
ATOM     96  O6S SGN d 403     -11.373   9.649  51.326  0.00  0.00    -0.572 OA
ATOM     97  C4  SGN d 403     -14.267   8.646  47.217  0.00  0.00     0.095 C 
ATOM     98  C5  SGN d 403     -13.556   7.515  47.997  0.00  0.00     0.091 C 
ATOM     99  O6  SGN d 403     -13.201   8.410  50.225  0.00  0.00    -0.254 OA
ATOM    100  O1S SGN d 403     -18.694   6.830  48.730  0.00  0.00    -0.296 OA
ATOM    101  C1  SGN d 403     -15.549   6.173  47.989  0.00  0.00     0.150 C 
ATOM    102  O3S SGN d 403     -19.657   5.718  46.888  0.00  0.00    -0.296 OA
ATOM    103  O2S SGN d 403     -19.416   8.122  46.833  0.00  0.00    -0.296 OA
ATOM    104  C2  SGN d 403     -16.317   7.277  47.313  0.00  0.00     0.081 C 
ATOM    105  C6  SGN d 403     -12.524   7.995  49.045  0.00  0.00     0.067 C 
ATOM    106  S2  SGN d 403     -12.788   9.546  51.254  0.00  0.00     0.251 S 
ATOM    107  H   SGN d 403     -14.997   7.363  45.660  0.00  0.00     0.089 H 
ATOM    108  H   SGN d 403     -16.438   9.674  46.441  0.00  0.00     0.210 HD
ATOM    109  H   SGN d 403     -17.500   7.141  45.698  0.00  0.00     0.140 HD
ATOM    110  H   SGN d 403     -14.639   9.376  47.905  0.00  0.00     0.091 H 
ATOM    111  H   SGN d 403     -13.062   6.971  47.220  0.00  0.00     0.090 H 
ATOM    112  H   SGN d 403     -18.178   7.608  48.993  0.00  0.00     0.231 HD
ATOM    113  H   SGN d 403     -16.165   5.651  48.691  0.00  0.00     0.131 H 
ATOM    114  H   SGN d 403     -19.251   4.911  47.242  0.00  0.00     0.231 HD
ATOM    115  H   SGN d 403     -18.850   8.840  47.157  0.00  0.00     0.231 HD
ATOM    116  H   SGN d 403     -16.700   7.977  48.025  0.00  0.00     0.076 H 
ATOM    117  H   SGN d 403     -11.968   8.817  48.646  0.00  0.00     0.080 H 
ATOM    118  H   SGN d 403     -11.857   7.193  49.280  0.00  0.00     0.080 H 
ATOM    119  O62 IDS d 402     -11.468   4.700  47.892  0.00  0.00    -0.646 OA
ATOM    120  C1  IDS d 402     -14.356   2.203  45.239  0.00  0.00     0.161 C 
ATOM    121  O3S IDS d 402     -17.152   1.802  43.400  0.00  0.00    -0.572 OA
ATOM    122  O3  IDS d 402     -15.428   1.859  48.119  0.00  0.00    -0.390 OA
ATOM    123  O5  IDS d 402     -13.567   3.348  45.439  0.00  0.00    -0.340 OA
ATOM    124  O4  IDS d 402     -15.144   5.237  47.029  0.00  0.00    -0.348 OA
ATOM    125  O61 IDS d 402     -12.037   5.581  46.047  0.00  0.00    -0.646 OA
ATOM    126  O1S IDS d 402     -18.727   3.270  44.447  0.00  0.00    -0.572 OA
ATOM    127  O2S IDS d 402     -17.109   4.139  42.946  0.00  0.00    -0.572 OA
ATOM    128  C3  IDS d 402     -15.723   2.948  47.285  0.00  0.00     0.094 C 
ATOM    129  C5  IDS d 402     -13.340   3.660  46.809  0.00  0.00     0.152 C 
ATOM    130  S   IDS d 402     -17.408   3.134  43.888  0.00  0.00     0.252 S 
ATOM    131  C4  IDS d 402     -14.666   4.020  47.520  0.00  0.00     0.103 C 
ATOM    132  C2  IDS d 402     -15.744   2.439  45.833  0.00  0.00     0.134 C 
ATOM    133  C6  IDS d 402     -12.210   4.707  46.923  0.00  0.00     0.206 C 
ATOM    134  O2  IDS d 402     -16.416   3.396  45.061  0.00  0.00    -0.244 OA
ATOM    135  H   IDS d 402     -14.433   2.032  44.186  0.00  0.00     0.133 H 
ATOM    136  H   IDS d 402     -16.089   1.162  47.987  0.00  0.00     0.210 HD
ATOM    137  H   IDS d 402     -16.678   3.380  47.494  0.00  0.00     0.091 H 
ATOM    138  H   IDS d 402     -12.987   2.801  47.342  0.00  0.00     0.104 H 
ATOM    139  H   IDS d 402     -14.471   4.092  48.569  0.00  0.00     0.092 H 
ATOM    140  H   IDS d 402     -16.234   1.487  45.828  0.00  0.00     0.097 H 
ENDROOT
TORSDOF 45
ENDMDL
MODEL 37
REMARK VINA RESULT:       0.5      2.965     13.086
REMARK  0 active torsions:
REMARK  status: ('A' for Active; 'I' for Inactive)
REMARK       I    between atoms: C5_1  and  C6_64 
REMARK       I    between atoms: C4_2  and  O4_32 
REMARK       I    between atoms: C1_3  and  O4_32 
REMARK       I    between atoms: S1_6  and  N_87 
REMARK       I    between atoms: S1_6  and  O1S_23 
REMARK       I    between atoms: S1_6  and  O2S_31 
REMARK       I    between atoms: S1_6  and  O3S_47 
REMARK       I    between atoms: N_7  and  C2_53 
REMARK       I    between atoms: N_7  and  S1_10 
REMARK       I    between atoms: C3_9  and  O3_14 
REMARK       I    between atoms: S1_10  and  O1S_52 
REMARK       I    between atoms: S1_10  and  O2S_17 
REMARK       I    between atoms: S1_10  and  O3S_80 
REMARK       I    between atoms: C5_12  and  C6_73 
REMARK       I    between atoms: S1_13  and  N_25 
REMARK       I    between atoms: S1_13  and  O1S_58 
REMARK       I    between atoms: S1_13  and  O2S_66 
REMARK       I    between atoms: S1_13  and  O3S_62 
REMARK       I    between atoms: S2_15  and  O6_41 
REMARK       I    between atoms: C3_16  and  O3_48 
REMARK       I    between atoms: C2_18  and  N_87 
REMARK       I    between atoms: C1_19  and  O4_39 
REMARK       I    between atoms: C3_20  and  O3_27 
REMARK       I    between atoms: C1_24  and  O1_84 
REMARK       I    between atoms: N_25  and  C2_78 
REMARK       I    between atoms: O4_28  and  C4_30 
REMARK       I    between atoms: O4_28  and  C1_86 
REMARK       I    between atoms: C2_34  and  O2_59 
REMARK       I    between atoms: O3_35  and  C3_60 
REMARK       I    between atoms: C5_37  and  C6_81 
REMARK       I    between atoms: O4_39  and  C4_79 
REMARK       I    between atoms: O4_40  and  C4_77 
REMARK       I    between atoms: O4_40  and  C1_61 
REMARK       I    between atoms: O6_41  and  C6_57 
REMARK       I    between atoms: O6_45  and  C6_81 
REMARK       I    between atoms: O6_45  and  S2_83 
REMARK       I    between atoms: C3_46  and  O3_72 
REMARK       I    between atoms: C5_50  and  C6_57 
REMARK       I    between atoms: O2_59  and  S_69 
REMARK       I    between atoms: O6_63  and  C6_64 
REMARK       I    between atoms: O6_63  and  S2_70 
REMARK       I    between atoms: C5_67  and  C6_88 
REMARK       I    between atoms: S_71  and  O2_89 
REMARK       I    between atoms: O4_75  and  C4_82 
REMARK       I    between atoms: C2_85  and  O2_89 
ROOT
ATOM      1  C5  SGN d 401      -6.337  12.181  46.300  0.00  0.00     0.091 C 
ATOM      2  S1  SGN d 401      -6.317  12.781  40.694  0.00  0.00     0.156 S 
ATOM      3  C3  SGN d 401      -7.855  12.674  44.344  0.00  0.00     0.083 C 
ATOM      4  C2  SGN d 401      -6.596  12.595  43.455  0.00  0.00     0.081 C 
ATOM      5  O1S SGN d 401      -5.505  11.601  40.924  0.00  0.00    -0.296 OA
ATOM      6  C1  SGN d 401      -5.400  13.061  44.303  0.00  0.00     0.147 C 
ATOM      7  O2S SGN d 401      -7.552  12.458  40.032  0.00  0.00    -0.296 OA
ATOM      8  O4  SGN d 401      -8.747  12.045  46.465  0.00  0.00    -0.348 OA
ATOM      9  O4S SGN d 401      -6.711   8.462  48.339  0.00  0.00    -0.572 OA
ATOM     10  O3S SGN d 401      -5.579  13.825  40.016  0.00  0.00    -0.296 OA
ATOM     11  O3  SGN d 401      -8.975  12.178  43.636  0.00  0.00    -0.391 OA
ATOM     12  O5  SGN d 401      -5.227  12.220  45.403  0.00  0.00    -0.350 OA
ATOM     13  O6S SGN d 401      -4.375   8.384  47.749  0.00  0.00    -0.572 OA
ATOM     14  O6  SGN d 401      -5.839   9.940  46.676  0.00  0.00    -0.254 OA
ATOM     15  C6  SGN d 401      -5.937  11.162  47.357  0.00  0.00     0.067 C 
ATOM     16  S2  SGN d 401      -5.746   8.524  47.289  0.00  0.00     0.251 S 
ATOM     17  O5S SGN d 401      -6.079   7.643  46.202  0.00  0.00    -0.572 OA
ATOM     18  C4  SGN d 401      -7.672  11.803  45.590  0.00  0.00     0.095 C 
ATOM     19  O1  SGN d 401      -5.596  14.407  44.768  0.00  0.00    -0.369 OA
ATOM     20  N   SGN d 401      -6.724  13.421  42.203  0.00  0.00    -0.210 NA
ATOM     21  H   SGN d 401      -6.536  13.144  46.722  0.00  0.00     0.090 H 
ATOM     22  H   SGN d 401      -8.007  13.697  44.621  0.00  0.00     0.089 H 
ATOM     23  H   SGN d 401      -6.458  11.587  43.126  0.00  0.00     0.076 H 
ATOM     24  H   SGN d 401      -6.035  10.927  41.379  0.00  0.00     0.231 HD
ATOM     25  H   SGN d 401      -4.528  13.027  43.683  0.00  0.00     0.131 H 
ATOM     26  H   SGN d 401      -8.007  11.756  40.523  0.00  0.00     0.231 HD
ATOM     27  H   SGN d 401      -4.757  14.007  40.498  0.00  0.00     0.231 HD
ATOM     28  H   SGN d 401      -8.820  11.251  43.393  0.00  0.00     0.210 HD
ATOM     29  H   SGN d 401      -6.683  11.105  48.123  0.00  0.00     0.080 H 
ATOM     30  H   SGN d 401      -5.018  11.425  47.838  0.00  0.00     0.080 H 
ATOM     31  H   SGN d 401      -7.644  10.770  45.312  0.00  0.00     0.091 H 
ATOM     32  H   SGN d 401      -6.385  14.443  45.330  0.00  0.00     0.212 HD
ATOM     33  H   SGN d 401      -7.701  13.707  42.143  0.00  0.00     0.140 HD
ATOM     34  C4  IDS d 404     -14.644   2.472  46.056  0.00  0.00     0.103 C 
ATOM     35  C5  IDS d 404     -15.309   3.567  46.885  0.00  0.00     0.152 C 
ATOM     36  O4  IDS d 404     -15.654   1.627  45.581  0.00  0.00    -0.348 OA
ATOM     37  O5  IDS d 404     -16.028   4.476  46.082  0.00  0.00    -0.340 OA
ATOM     38  C2  IDS d 404     -14.451   4.255  44.185  0.00  0.00     0.134 C 
ATOM     39  O62 IDS d 404     -15.897   2.899  49.098  0.00  0.00    -0.646 OA
ATOM     40  C3  IDS d 404     -13.818   3.031  44.865  0.00  0.00     0.094 C 
ATOM     41  O2  IDS d 404     -15.326   3.797  43.146  0.00  0.00    -0.244 OA
ATOM     42  O1S IDS d 404     -14.616   4.444  40.994  0.00  0.00    -0.572 OA
ATOM     43  O2S IDS d 404     -16.932   4.049  41.380  0.00  0.00    -0.572 OA
ATOM     44  S   IDS d 404     -15.708   4.601  41.866  0.00  0.00     0.252 S 
ATOM     45  O3  IDS d 404     -12.555   3.428  45.343  0.00  0.00    -0.390 OA
ATOM     46  C6  IDS d 404     -16.232   2.981  47.929  0.00  0.00     0.206 C 
ATOM     47  O3S IDS d 404     -15.818   5.958  42.257  0.00  0.00    -0.572 OA
ATOM     48  C1  IDS d 404     -15.221   5.202  45.148  0.00  0.00     0.161 C 
ATOM     49  O61 IDS d 404     -17.326   2.547  47.599  0.00  0.00    -0.646 OA
ATOM     50  H   IDS d 404     -13.951   1.948  46.680  0.00  0.00     0.092 H 
ATOM     51  H   IDS d 404     -14.519   4.098  47.373  0.00  0.00     0.104 H 
ATOM     52  H   IDS d 404     -13.648   4.843  43.795  0.00  0.00     0.097 H 
ATOM     53  H   IDS d 404     -13.767   2.246  44.140  0.00  0.00     0.091 H 
ATOM     54  H   IDS d 404     -12.665   4.139  45.995  0.00  0.00     0.210 HD
ATOM     55  H   IDS d 404     -15.901   5.796  44.574  0.00  0.00     0.133 H 
ATOM     56  C1  SGN d 405     -15.453   0.265  45.819  0.00  0.00     0.150 C 
ATOM     57  O6S SGN d 405     -14.737  -2.555  48.609  0.00  0.00    -0.572 OA
ATOM     58  N   SGN d 405     -16.205   0.100  43.496  0.00  0.00    -0.210 NA
ATOM     59  S1  SGN d 405     -15.306  -0.592  42.355  0.00  0.00     0.156 S 
ATOM     60  S2  SGN d 405     -15.694  -2.813  49.681  0.00  0.00     0.251 S 
ATOM     61  O2S SGN d 405     -15.429  -2.013  42.569  0.00  0.00    -0.296 OA
ATOM     62  C3  SGN d 405     -17.720  -0.718  45.248  0.00  0.00     0.083 C 
ATOM     63  O5  SGN d 405     -15.682  -0.130  47.191  0.00  0.00    -0.349 OA
ATOM     64  O3  SGN d 405     -18.379  -1.595  44.354  0.00  0.00    -0.391 OA
ATOM     65  O6  SGN d 405     -17.028  -2.007  49.327  0.00  0.00    -0.254 OA
ATOM     66  O5S SGN d 405     -16.082  -4.199  49.777  0.00  0.00    -0.572 OA
ATOM     67  C5  SGN d 405     -17.077  -0.293  47.567  0.00  0.00     0.090 C 
ATOM     68  O4S SGN d 405     -15.235  -2.311  50.928  0.00  0.00    -0.572 OA
ATOM     69  O1S SGN d 405     -13.966  -0.110  42.568  0.00  0.00    -0.296 OA
ATOM     70  C2  SGN d 405     -16.271  -0.546  44.802  0.00  0.00     0.081 C 
ATOM     71  C6  SGN d 405     -17.168  -0.612  49.084  0.00  0.00     0.067 C 
ATOM     72  O4  SGN d 405     -19.048  -1.616  47.062  0.00  0.00    -0.390 OA
ATOM     73  O3S SGN d 405     -15.798  -0.169  41.085  0.00  0.00    -0.296 OA
ATOM     74  C4  SGN d 405     -17.710  -1.339  46.657  0.00  0.00     0.089 C 
ATOM     75  H   SGN d 405     -14.415   0.050  45.674  0.00  0.00     0.131 H 
ATOM     76  H   SGN d 405     -15.840   1.042  43.641  0.00  0.00     0.140 HD
ATOM     77  H   SGN d 405     -15.079  -2.239  43.445  0.00  0.00     0.231 HD
ATOM     78  H   SGN d 405     -18.227   0.224  45.257  0.00  0.00     0.089 H 
ATOM     79  H   SGN d 405     -17.921  -2.450  44.344  0.00  0.00     0.210 HD
ATOM     80  H   SGN d 405     -17.639   0.608  47.428  0.00  0.00     0.090 H 
ATOM     81  H   SGN d 405     -13.649  -0.408  43.435  0.00  0.00     0.231 HD
ATOM     82  H   SGN d 405     -15.845  -1.526  44.736  0.00  0.00     0.076 H 
ATOM     83  H   SGN d 405     -16.390  -0.089  49.598  0.00  0.00     0.080 H 
ATOM     84  H   SGN d 405     -18.129  -0.302  49.438  0.00  0.00     0.080 H 
ATOM     85  H   SGN d 405     -19.433  -2.283  46.472  0.00  0.00     0.210 HD
ATOM     86  H   SGN d 405     -15.689   0.791  40.999  0.00  0.00     0.231 HD
ATOM     87  H   SGN d 405     -17.165  -2.259  46.692  0.00  0.00     0.091 H 
ATOM     88  O5S SGN d 403     -18.661   9.946  43.734  0.00  0.00    -0.572 OA
ATOM     89  C3  SGN d 403     -14.121   7.425  47.693  0.00  0.00     0.083 C 
ATOM     90  O5  SGN d 403     -14.702   9.671  46.072  0.00  0.00    -0.349 OA
ATOM     91  S1  SGN d 403     -14.919   9.603  50.723  0.00  0.00     0.156 S 
ATOM     92  O3  SGN d 403     -14.527   6.394  48.542  0.00  0.00    -0.391 OA
ATOM     93  O4S SGN d 403     -18.449   7.599  44.332  0.00  0.00    -0.572 OA
ATOM     94  N   SGN d 403     -13.952   8.997  49.582  0.00  0.00    -0.210 NA
ATOM     95  O4  SGN d 403     -14.311   6.059  45.789  0.00  0.00    -0.348 OA
ATOM     96  O6S SGN d 403     -17.646   8.413  42.248  0.00  0.00    -0.572 OA
ATOM     97  C4  SGN d 403     -14.812   7.236  46.353  0.00  0.00     0.095 C 
ATOM     98  C5  SGN d 403     -14.451   8.433  45.440  0.00  0.00     0.091 C 
ATOM     99  O6  SGN d 403     -16.532   9.051  44.354  0.00  0.00    -0.254 OA
ATOM    100  O1S SGN d 403     -15.871  10.455  50.055  0.00  0.00    -0.296 OA
ATOM    101  C1  SGN d 403     -14.095   9.856  47.343  0.00  0.00     0.150 C 
ATOM    102  O3S SGN d 403     -14.084  10.363  51.589  0.00  0.00    -0.296 OA
ATOM    103  O2S SGN d 403     -15.541   8.450  51.346  0.00  0.00    -0.296 OA
ATOM    104  C2  SGN d 403     -14.528   8.757  48.276  0.00  0.00     0.081 C 
ATOM    105  C6  SGN d 403     -15.243   8.502  44.113  0.00  0.00     0.067 C 
ATOM    106  S2  SGN d 403     -17.897   8.735  43.608  0.00  0.00     0.251 S 
ATOM    107  H   SGN d 403     -13.057   7.404  47.575  0.00  0.00     0.089 H 
ATOM    108  H   SGN d 403     -15.491   6.420  48.643  0.00  0.00     0.210 HD
ATOM    109  H   SGN d 403     -13.593   8.106  49.927  0.00  0.00     0.140 HD
ATOM    110  H   SGN d 403     -15.875   7.181  46.465  0.00  0.00     0.091 H 
ATOM    111  H   SGN d 403     -13.414   8.267  45.239  0.00  0.00     0.090 H 
ATOM    112  H   SGN d 403     -16.430   9.919  49.470  0.00  0.00     0.231 HD
ATOM    113  H   SGN d 403     -14.420  10.811  47.700  0.00  0.00     0.131 H 
ATOM    114  H   SGN d 403     -13.708  11.112  51.101  0.00  0.00     0.231 HD
ATOM    115  H   SGN d 403     -16.091   7.988  50.694  0.00  0.00     0.231 HD
ATOM    116  H   SGN d 403     -15.591   8.741  48.391  0.00  0.00     0.076 H 
ATOM    117  H   SGN d 403     -15.346   7.517  43.708  0.00  0.00     0.080 H 
ATOM    118  H   SGN d 403     -14.717   9.121  43.417  0.00  0.00     0.080 H 
ATOM    119  O62 IDS d 402     -12.006  10.084  43.545  0.00  0.00    -0.646 OA
ATOM    120  C1  IDS d 402      -9.243  10.940  47.186  0.00  0.00     0.161 C 
ATOM    121  O3S IDS d 402      -8.396  10.684  50.438  0.00  0.00    -0.572 OA
ATOM    122  O3  IDS d 402     -11.359  13.194  47.248  0.00  0.00    -0.390 OA
ATOM    123  O5  IDS d 402      -9.923  10.031  46.358  0.00  0.00    -0.340 OA
ATOM    124  O4  IDS d 402     -12.696   9.894  47.292  0.00  0.00    -0.348 OA
ATOM    125  O61 IDS d 402     -11.407   8.394  44.680  0.00  0.00    -0.646 OA
ATOM    126  O1S IDS d 402     -10.508  10.533  51.556  0.00  0.00    -0.572 OA
ATOM    127  O2S IDS d 402      -9.576   8.618  50.513  0.00  0.00    -0.572 OA
ATOM    128  C3  IDS d 402     -11.545  11.912  47.787  0.00  0.00     0.094 C 
ATOM    129  C5  IDS d 402     -11.045  10.591  45.686  0.00  0.00     0.152 C 
ATOM    130  S   IDS d 402      -9.677  10.023  50.499  0.00  0.00     0.252 S 
ATOM    131  C4  IDS d 402     -12.133  11.025  46.696  0.00  0.00     0.103 C 
ATOM    132  C2  IDS d 402     -10.182  11.410  48.295  0.00  0.00     0.134 C 
ATOM    133  C6  IDS d 402     -11.511   9.633  44.566  0.00  0.00     0.206 C 
ATOM    134  O2  IDS d 402     -10.426  10.344  49.170  0.00  0.00    -0.244 OA
ATOM    135  H   IDS d 402      -8.398  10.438  47.609  0.00  0.00     0.133 H 
ATOM    136  H   IDS d 402     -10.984  13.779  47.926  0.00  0.00     0.210 HD
ATOM    137  H   IDS d 402     -12.224  11.907  48.613  0.00  0.00     0.091 H 
ATOM    138  H   IDS d 402     -10.777  11.500  45.189  0.00  0.00     0.104 H 
ATOM    139  H   IDS d 402     -12.879  11.577  46.164  0.00  0.00     0.092 H 
ATOM    140  H   IDS d 402      -9.689  12.231  48.772  0.00  0.00     0.097 H 
ENDROOT
TORSDOF 45
ENDMDL
