REMARK  0 active torsions:
REMARK  status: ('A' for Active; 'I' for Inactive)
REMARK       I    between atoms: O3_1  and  C3_18 
REMARK       I    between atoms: O6_2  and  C6_6 
REMARK       I    between atoms: O6_2  and  S2_52 
REMARK       I    between atoms: C4_3  and  O4_50 
REMARK       I    between atoms: C6_4  and  C5_31 
REMARK       I    between atoms: C6_4  and  O6_12 
REMARK       I    between atoms: C6_6  and  C5_15 
REMARK       I    between atoms: O2_7  and  C2_53 
REMARK       I    between atoms: O2_7  and  S_26 
REMARK       I    between atoms: C3_8  and  O3_38 
REMARK       I    between atoms: S1_9  and  N_19 
REMARK       I    between atoms: S1_9  and  O1S_55 
REMARK       I    between atoms: S1_9  and  O2S_49 
REMARK       I    between atoms: S1_9  and  O3S_17 
REMARK       I    between atoms: O6_12  and  S2_45 
REMARK       I    between atoms: O1S_14  and  S1_48 
REMARK       I    between atoms: O3S_16  and  S1_48 
REMARK       I    between atoms: N_19  and  C2_46 
REMARK       I    between atoms: O1_22  and  C1_24 
REMARK       I    between atoms: O1_22  and  C4_41 
REMARK       I    between atoms: N_23  and  C2_47 
REMARK       I    between atoms: N_23  and  S1_48 
REMARK       I    between atoms: O2S_25  and  S1_48 
REMARK       I    between atoms: C1_27  and  O4_44 
REMARK       I    between atoms: C3_34  and  O3_43 
REMARK       I    between atoms: C1_35  and  O1_36 
REMARK       I    between atoms: C5_37  and  C6_39 
REMARK       I    between atoms: O4_44  and  C4_54 
ROOT
ATOM      1  O3  SGN d 503      35.832  21.800 144.618  0.00  0.00    -0.391 OA
ATOM      2  O6  SGN d 503      32.193  21.049 141.793  0.00  0.00    -0.254 OA
ATOM      3  C6  SGN d 503      32.275  19.674 142.150  0.00  0.00     0.067 C 
ATOM      4  O1S SGN d 503      39.018  21.871 141.175  0.00  0.00    -0.296 OA
ATOM      5  C5  SGN d 503      33.683  19.450 142.669  0.00  0.00     0.091 C 
ATOM      6  O3S SGN d 503      38.161  23.054 143.100  0.00  0.00    -0.296 OA
ATOM      7  C3  SGN d 503      35.513  20.623 143.908  0.00  0.00     0.083 C 
ATOM      8  O4S SGN d 503      29.763  22.075 141.914  0.00  0.00    -0.572 OA
ATOM      9  N   SGN d 503      37.747  20.438 142.996  0.00  0.00    -0.210 NA
ATOM     10  O2S SGN d 503      40.102  21.621 143.327  0.00  0.00    -0.296 OA
ATOM     11  O5  SGN d 503      34.547  19.404 141.532  0.00  0.00    -0.350 OA
ATOM     12  O6S SGN d 503      31.194  22.794 140.091  0.00  0.00    -0.572 OA
ATOM     13  O5S SGN d 503      30.233  20.573 140.096  0.00  0.00    -0.572 OA
ATOM     14  C1  SGN d 503      35.938  19.313 141.829  0.00  0.00     0.147 C 
ATOM     15  O1  SGN d 503      36.215  18.120 142.556  0.00  0.00    -0.369 OA
ATOM     16  O4  SGN d 503      33.279  20.595 144.741  0.00  0.00    -0.348 OA
ATOM     17  C2  SGN d 503      36.347  20.530 142.644  0.00  0.00     0.081 C 
ATOM     18  S1  SGN d 503      38.804  21.804 142.636  0.00  0.00     0.156 S 
ATOM     19  S2  SGN d 503      30.784  21.652 140.933  0.00  0.00     0.251 S 
ATOM     20  C4  SGN d 503      34.044  20.645 143.539  0.00  0.00     0.095 C 
ATOM     21  H   SGN d 503      36.772  21.789 144.856  0.00  0.00     0.210 HD
ATOM     22  H   SGN d 503      32.094  19.058 141.294  0.00  0.00     0.080 H 
ATOM     23  H   SGN d 503      31.544  19.421 142.889  0.00  0.00     0.080 H 
ATOM     24  H   SGN d 503      38.165  21.991 140.728  0.00  0.00     0.231 HD
ATOM     25  H   SGN d 503      33.769  18.547 143.237  0.00  0.00     0.090 H 
ATOM     26  H   SGN d 503      37.312  23.169 142.645  0.00  0.00     0.231 HD
ATOM     27  H   SGN d 503      35.722  19.775 144.526  0.00  0.00     0.089 H 
ATOM     28  H   SGN d 503      38.127  19.628 142.507  0.00  0.00     0.140 HD
ATOM     29  H   SGN d 503      40.683  22.372 143.129  0.00  0.00     0.231 HD
ATOM     30  H   SGN d 503      36.496  19.284 140.917  0.00  0.00     0.131 H 
ATOM     31  H   SGN d 503      35.718  18.126 143.389  0.00  0.00     0.212 HD
ATOM     32  H   SGN d 503      36.184  21.407 142.053  0.00  0.00     0.076 H 
ATOM     33  H   SGN d 503      33.834  21.538 142.988  0.00  0.00     0.091 H 
ATOM     34  C4  SGN d 501      28.992  27.765 147.588  0.00  0.00     0.089 C 
ATOM     35  C6  SGN d 501      31.367  27.975 148.411  0.00  0.00     0.067 C 
ATOM     36  O6S SGN d 501      33.040  29.279 151.017  0.00  0.00    -0.572 OA
ATOM     37  S1  SGN d 501      25.458  24.320 147.087  0.00  0.00     0.156 S 
ATOM     38  O6  SGN d 501      31.823  27.367 149.618  0.00  0.00    -0.254 OA
ATOM     39  O5S SGN d 501      30.644  29.075 151.281  0.00  0.00    -0.572 OA
ATOM     40  O3S SGN d 501      25.011  25.320 148.083  0.00  0.00    -0.296 OA
ATOM     41  N   SGN d 501      27.163  24.586 146.688  0.00  0.00    -0.210 NA
ATOM     42  O1  SGN d 501      29.956  24.468 146.536  0.00  0.00    -0.348 OA
ATOM     43  C1  SGN d 501      29.346  24.902 147.750  0.00  0.00     0.150 C 
ATOM     44  C5  SGN d 501      30.345  27.078 147.721  0.00  0.00     0.090 C 
ATOM     45  C3  SGN d 501      28.046  26.857 146.812  0.00  0.00     0.083 C 
ATOM     46  O4S SGN d 501      32.114  27.424 152.263  0.00  0.00    -0.572 OA
ATOM     47  O3  SGN d 501      26.763  27.447 146.738  0.00  0.00    -0.391 OA
ATOM     48  S2  SGN d 501      31.909  28.325 151.105  0.00  0.00     0.251 S 
ATOM     49  C2  SGN d 501      27.959  25.494 147.494  0.00  0.00     0.081 C 
ATOM     50  O2S SGN d 501      24.638  24.451 145.860  0.00  0.00    -0.296 OA
ATOM     51  O4  SGN d 501      29.146  29.007 146.899  0.00  0.00    -0.390 OA
ATOM     52  O5  SGN d 501      30.175  25.848 148.433  0.00  0.00    -0.349 OA
ATOM     53  O1S SGN d 501      25.296  22.961 147.652  0.00  0.00    -0.296 OA
ATOM     54  H   SGN d 501      28.588  27.956 148.560  0.00  0.00     0.091 H 
ATOM     55  H   SGN d 501      30.913  28.917 148.639  0.00  0.00     0.080 H 
ATOM     56  H   SGN d 501      32.201  28.120 147.757  0.00  0.00     0.080 H 
ATOM     57  H   SGN d 501      25.546  25.236 148.888  0.00  0.00     0.231 HD
ATOM     58  H   SGN d 501      27.191  24.938 145.731  0.00  0.00     0.140 HD
ATOM     59  H   SGN d 501      29.230  24.042 148.376  0.00  0.00     0.131 H 
ATOM     60  H   SGN d 501      30.727  26.874 146.743  0.00  0.00     0.090 H 
ATOM     61  H   SGN d 501      28.423  26.725 145.819  0.00  0.00     0.089 H 
ATOM     62  H   SGN d 501      26.412  27.571 147.634  0.00  0.00     0.210 HD
ATOM     63  H   SGN d 501      27.486  25.630 148.444  0.00  0.00     0.076 H 
ATOM     64  H   SGN d 501      24.929  23.797 145.205  0.00  0.00     0.231 HD
ATOM     65  H   SGN d 501      29.512  28.843 146.016  0.00  0.00     0.210 HD
ATOM     66  H   SGN d 501      25.588  22.303 147.001  0.00  0.00     0.231 HD
ATOM     67  O2  IDS d 502      30.547  19.970 144.959  0.00  0.00    -0.244 OA
ATOM     68  C3  IDS d 502      30.099  22.175 145.793  0.00  0.00     0.094 C 
ATOM     69  O2S IDS d 502      32.056  18.415 146.498  0.00  0.00    -0.572 OA
ATOM     70  O1S IDS d 502      29.771  17.708 146.111  0.00  0.00    -0.572 OA
ATOM     71  O5  IDS d 502      32.812  22.822 145.378  0.00  0.00    -0.340 OA
ATOM     72  S   IDS d 502      30.963  18.340 145.500  0.00  0.00     0.252 S 
ATOM     73  C1  IDS d 502      32.281  21.606 144.837  0.00  0.00     0.161 C 
ATOM     74  O61 IDS d 502      33.187  25.550 147.106  0.00  0.00    -0.646 OA
ATOM     75  O62 IDS d 502      32.052  25.435 145.232  0.00  0.00    -0.646 OA
ATOM     76  C5  IDS d 502      32.210  23.443 146.531  0.00  0.00     0.152 C 
ATOM     77  O3  IDS d 502      28.927  21.658 146.388  0.00  0.00    -0.390 OA
ATOM     78  C6  IDS d 502      32.476  24.923 146.295  0.00  0.00     0.206 C 
ATOM     79  O3S IDS d 502      31.415  17.536 144.344  0.00  0.00    -0.572 OA
ATOM     80  C4  IDS d 502      30.688  23.251 146.683  0.00  0.00     0.103 C 
ATOM     81  C2  IDS d 502      31.121  21.076 145.648  0.00  0.00     0.134 C 
ATOM     82  H   IDS d 502      29.850  22.580 144.834  0.00  0.00     0.091 H 
ATOM     83  H   IDS d 502      31.929  21.852 143.857  0.00  0.00     0.133 H 
ATOM     84  H   IDS d 502      32.620  23.010 147.420  0.00  0.00     0.104 H 
ATOM     85  H   IDS d 502      29.142  21.288 147.259  0.00  0.00     0.210 HD
ATOM     86  H   IDS d 502      30.578  22.910 147.691  0.00  0.00     0.092 H 
ATOM     87  H   IDS d 502      31.449  20.759 146.616  0.00  0.00     0.097 H 
ENDROOT
TORSDOF 28
