MODEL 1
REMARK VINA RESULT:      -7.6      0.000      0.000
REMARK  0 active torsions:
REMARK  status: ('A' for Active; 'I' for Inactive)
REMARK       I    between atoms: O3_1  and  C3_18 
REMARK       I    between atoms: O6_2  and  C6_6 
REMARK       I    between atoms: O6_2  and  S2_52 
REMARK       I    between atoms: C4_3  and  O4_50 
REMARK       I    between atoms: C6_4  and  C5_31 
REMARK       I    between atoms: C6_4  and  O6_12 
REMARK       I    between atoms: C6_6  and  C5_15 
REMARK       I    between atoms: O2_7  and  C2_53 
REMARK       I    between atoms: O2_7  and  S_26 
REMARK       I    between atoms: C3_8  and  O3_38 
REMARK       I    between atoms: S1_9  and  N_19 
REMARK       I    between atoms: S1_9  and  O1S_55 
REMARK       I    between atoms: S1_9  and  O2S_49 
REMARK       I    between atoms: S1_9  and  O3S_17 
REMARK       I    between atoms: O6_12  and  S2_45 
REMARK       I    between atoms: O1S_14  and  S1_48 
REMARK       I    between atoms: O3S_16  and  S1_48 
REMARK       I    between atoms: N_19  and  C2_46 
REMARK       I    between atoms: O1_22  and  C1_24 
REMARK       I    between atoms: O1_22  and  C4_41 
REMARK       I    between atoms: N_23  and  C2_47 
REMARK       I    between atoms: N_23  and  S1_48 
REMARK       I    between atoms: O2S_25  and  S1_48 
REMARK       I    between atoms: C1_27  and  O4_44 
REMARK       I    between atoms: C3_34  and  O3_43 
REMARK       I    between atoms: C1_35  and  O1_36 
REMARK       I    between atoms: C5_37  and  C6_39 
REMARK       I    between atoms: O4_44  and  C4_54 
ROOT
ATOM      1  O3  SGN d 503      32.242  21.894 145.233  0.00  0.00    -0.391 OA
ATOM      2  O6  SGN d 503      31.028  21.997 140.727  0.00  0.00    -0.254 OA
ATOM      3  C6  SGN d 503      30.658  20.629 140.857  0.00  0.00     0.067 C 
ATOM      4  O1S SGN d 503      36.829  21.356 144.411  0.00  0.00    -0.296 OA
ATOM      5  C5  SGN d 503      31.398  20.099 142.070  0.00  0.00     0.091 C 
ATOM      6  O3S SGN d 503      35.173  22.654 145.599  0.00  0.00    -0.296 OA
ATOM      7  C3  SGN d 503      32.244  20.828 144.309  0.00  0.00     0.083 C 
ATOM      8  O4S SGN d 503      29.229  23.515 139.531  0.00  0.00    -0.572 OA
ATOM      9  N   SGN d 503      34.506  20.189 144.887  0.00  0.00    -0.210 NA
ATOM     10  O2S SGN d 503      36.316  20.835 146.721  0.00  0.00    -0.296 OA
ATOM     11  O5  SGN d 503      32.756  19.893 141.677  0.00  0.00    -0.350 OA
ATOM     12  O6S SGN d 503      31.566  23.950 139.044  0.00  0.00    -0.572 OA
ATOM     13  O5S SGN d 503      30.470  21.986 138.151  0.00  0.00    -0.572 OA
ATOM     14  C1  SGN d 503      33.640  19.501 142.725  0.00  0.00     0.147 C 
ATOM     15  O1  SGN d 503      33.223  18.262 143.289  0.00  0.00    -0.369 OA
ATOM     16  O4  SGN d 503      29.997  21.260 143.638  0.00  0.00    -0.348 OA
ATOM     17  C2  SGN d 503      33.649  20.585 143.791  0.00  0.00     0.081 C 
ATOM     18  S1  SGN d 503      35.759  21.305 145.430  0.00  0.00     0.156 S 
ATOM     19  S2  SGN d 503      30.555  22.905 139.299  0.00  0.00     0.251 S 
ATOM     20  C4  SGN d 503      31.333  21.171 143.148  0.00  0.00     0.095 C 
ATOM     21  H   SGN d 503      32.824  21.678 145.978  0.00  0.00     0.210 HD
ATOM     22  H   SGN d 503      30.944  20.084 139.982  0.00  0.00     0.080 H 
ATOM     23  H   SGN d 503      29.600  20.522 140.970  0.00  0.00     0.080 H 
ATOM     24  H   SGN d 503      36.459  21.664 143.569  0.00  0.00     0.231 HD
ATOM     25  H   SGN d 503      30.976  19.187 142.438  0.00  0.00     0.090 H 
ATOM     26  H   SGN d 503      34.810  22.957 144.752  0.00  0.00     0.231 HD
ATOM     27  H   SGN d 503      31.896  19.942 144.798  0.00  0.00     0.089 H 
ATOM     28  H   SGN d 503      34.973  19.327 144.607  0.00  0.00     0.140 HD
ATOM     29  H   SGN d 503      37.005  21.449 147.019  0.00  0.00     0.231 HD
ATOM     30  H   SGN d 503      34.625  19.373 142.330  0.00  0.00     0.131 H 
ATOM     31  H   SGN d 503      32.330  18.356 143.654  0.00  0.00     0.212 HD
ATOM     32  H   SGN d 503      34.021  21.489 143.355  0.00  0.00     0.076 H 
ATOM     33  H   SGN d 503      31.647  22.099 142.719  0.00  0.00     0.091 H 
ATOM     34  C4  SGN d 501      26.053  29.119 144.397  0.00  0.00     0.089 C 
ATOM     35  C6  SGN d 501      27.425  28.799 146.489  0.00  0.00     0.067 C 
ATOM     36  O6S SGN d 501      27.334  29.661 149.736  0.00  0.00    -0.572 OA
ATOM     37  S1  SGN d 501      23.078  26.519 141.397  0.00  0.00     0.156 S 
ATOM     38  O6  SGN d 501      26.946  28.083 147.626  0.00  0.00    -0.254 OA
ATOM     39  O5S SGN d 501      25.282  29.968 148.492  0.00  0.00    -0.572 OA
ATOM     40  O3S SGN d 501      22.279  27.570 142.066  0.00  0.00    -0.296 OA
ATOM     41  N   SGN d 501      24.687  26.423 142.133  0.00  0.00    -0.210 NA
ATOM     42  O1  SGN d 501      26.928  25.715 143.653  0.00  0.00    -0.348 OA
ATOM     43  C1  SGN d 501      25.781  26.243 144.315  0.00  0.00     0.150 C 
ATOM     44  C5  SGN d 501      26.914  28.156 145.205  0.00  0.00     0.090 C 
ATOM     45  C3  SGN d 501      25.651  28.450 143.088  0.00  0.00     0.083 C 
ATOM     46  O4S SGN d 501      25.564  28.021 149.900  0.00  0.00    -0.572 OA
ATOM     47  O3  SGN d 501      24.793  29.302 142.355  0.00  0.00    -0.391 OA
ATOM     48  S2  SGN d 501      26.254  28.969 148.994  0.00  0.00     0.251 S 
ATOM     49  C2  SGN d 501      24.954  27.123 143.376  0.00  0.00     0.081 C 
ATOM     50  O2S SGN d 501      23.213  26.847 139.959  0.00  0.00    -0.296 OA
ATOM     51  O4  SGN d 501      26.788  30.313 144.126  0.00  0.00    -0.390 OA
ATOM     52  O5  SGN d 501      26.154  26.976 145.487  0.00  0.00    -0.349 OA
ATOM     53  O1S SGN d 501      22.395  25.214 141.548  0.00  0.00    -0.296 OA
ATOM     54  H   SGN d 501      25.175  29.371 144.954  0.00  0.00     0.091 H 
ATOM     55  H   SGN d 501      27.081  29.812 146.538  0.00  0.00     0.080 H 
ATOM     56  H   SGN d 501      28.495  28.777 146.488  0.00  0.00     0.080 H 
ATOM     57  H   SGN d 501      22.189  27.357 143.009  0.00  0.00     0.231 HD
ATOM     58  H   SGN d 501      25.348  26.781 141.444  0.00  0.00     0.140 HD
ATOM     59  H   SGN d 501      25.173  25.415 144.616  0.00  0.00     0.131 H 
ATOM     60  H   SGN d 501      27.776  27.896 144.628  0.00  0.00     0.090 H 
ATOM     61  H   SGN d 501      26.530  28.261 142.507  0.00  0.00     0.089 H 
ATOM     62  H   SGN d 501      23.993  29.479 142.873  0.00  0.00     0.210 HD
ATOM     63  H   SGN d 501      24.027  27.337 143.867  0.00  0.00     0.076 H 
ATOM     64  H   SGN d 501      23.736  26.160 139.517  0.00  0.00     0.231 HD
ATOM     65  H   SGN d 501      27.586  30.093 143.621  0.00  0.00     0.210 HD
ATOM     66  H   SGN d 501      22.916  24.523 141.110  0.00  0.00     0.231 HD
ATOM     67  O2  IDS d 502      27.647  21.228 142.097  0.00  0.00    -0.244 OA
ATOM     68  C3  IDS d 502      27.134  23.460 142.814  0.00  0.00     0.094 C 
ATOM     69  O2S IDS d 502      27.633  19.355 143.982  0.00  0.00    -0.572 OA
ATOM     70  O1S IDS d 502      25.987  19.160 142.215  0.00  0.00    -0.572 OA
ATOM     71  O5  IDS d 502      29.594  23.521 144.191  0.00  0.00    -0.340 OA
ATOM     72  S   IDS d 502      27.384  19.536 142.532  0.00  0.00     0.252 S 
ATOM     73  C1  IDS d 502      29.322  22.458 143.270  0.00  0.00     0.161 C 
ATOM     74  O61 IDS d 502      29.256  26.070 146.182  0.00  0.00    -0.646 OA
ATOM     75  O62 IDS d 502      29.502  26.239 144.008  0.00  0.00    -0.646 OA
ATOM     76  C5  IDS d 502      28.519  24.232 144.837  0.00  0.00     0.152 C 
ATOM     77  O3  IDS d 502      25.780  23.193 142.513  0.00  0.00    -0.390 OA
ATOM     78  C6  IDS d 502      29.102  25.626 145.026  0.00  0.00     0.206 C 
ATOM     79  O3S IDS d 502      28.315  18.678 141.768  0.00  0.00    -0.572 OA
ATOM     80  C4  IDS d 502      27.216  24.367 144.026  0.00  0.00     0.103 C 
ATOM     81  C2  IDS d 502      27.844  22.171 143.145  0.00  0.00     0.134 C 
ATOM     82  H   IDS d 502      27.591  23.929 141.967  0.00  0.00     0.091 H 
ATOM     83  H   IDS d 502      29.687  22.794 142.321  0.00  0.00     0.133 H 
ATOM     84  H   IDS d 502      28.226  23.703 145.721  0.00  0.00     0.104 H 
ATOM     85  H   IDS d 502      25.357  22.767 143.276  0.00  0.00     0.210 HD
ATOM     86  H   IDS d 502      26.461  24.036 144.708  0.00  0.00     0.092 H 
ATOM     87  H   IDS d 502      27.457  21.771 144.059  0.00  0.00     0.097 H 
ENDROOT
TORSDOF 28
ENDMDL
MODEL 2
REMARK VINA RESULT:      -6.8      3.529      9.103
REMARK  0 active torsions:
REMARK  status: ('A' for Active; 'I' for Inactive)
REMARK       I    between atoms: O3_1  and  C3_18 
REMARK       I    between atoms: O6_2  and  C6_6 
REMARK       I    between atoms: O6_2  and  S2_52 
REMARK       I    between atoms: C4_3  and  O4_50 
REMARK       I    between atoms: C6_4  and  C5_31 
REMARK       I    between atoms: C6_4  and  O6_12 
REMARK       I    between atoms: C6_6  and  C5_15 
REMARK       I    between atoms: O2_7  and  C2_53 
REMARK       I    between atoms: O2_7  and  S_26 
REMARK       I    between atoms: C3_8  and  O3_38 
REMARK       I    between atoms: S1_9  and  N_19 
REMARK       I    between atoms: S1_9  and  O1S_55 
REMARK       I    between atoms: S1_9  and  O2S_49 
REMARK       I    between atoms: S1_9  and  O3S_17 
REMARK       I    between atoms: O6_12  and  S2_45 
REMARK       I    between atoms: O1S_14  and  S1_48 
REMARK       I    between atoms: O3S_16  and  S1_48 
REMARK       I    between atoms: N_19  and  C2_46 
REMARK       I    between atoms: O1_22  and  C1_24 
REMARK       I    between atoms: O1_22  and  C4_41 
REMARK       I    between atoms: N_23  and  C2_47 
REMARK       I    between atoms: N_23  and  S1_48 
REMARK       I    between atoms: O2S_25  and  S1_48 
REMARK       I    between atoms: C1_27  and  O4_44 
REMARK       I    between atoms: C3_34  and  O3_43 
REMARK       I    between atoms: C1_35  and  O1_36 
REMARK       I    between atoms: C5_37  and  C6_39 
REMARK       I    between atoms: O4_44  and  C4_54 
ROOT
ATOM      1  O3  SGN d 503      28.101  26.622 140.278  0.00  0.00    -0.391 OA
ATOM      2  O6  SGN d 503      25.577  24.353 143.482  0.00  0.00    -0.254 OA
ATOM      3  C6  SGN d 503      25.335  23.353 142.498  0.00  0.00     0.067 C 
ATOM      4  O1S SGN d 503      24.695  29.638 139.131  0.00  0.00    -0.296 OA
ATOM      5  C5  SGN d 503      25.582  24.009 141.152  0.00  0.00     0.091 C 
ATOM      6  O3S SGN d 503      27.007  29.429 139.803  0.00  0.00    -0.296 OA
ATOM      7  C3  SGN d 503      27.009  25.754 140.067  0.00  0.00     0.083 C 
ATOM      8  O4S SGN d 503      26.335  23.423 145.834  0.00  0.00    -0.572 OA
ATOM      9  N   SGN d 503      25.891  27.338 138.618  0.00  0.00    -0.210 NA
ATOM     10  O2S SGN d 503      26.446  29.662 137.457  0.00  0.00    -0.296 OA
ATOM     11  O5  SGN d 503      24.447  24.831 140.872  0.00  0.00    -0.350 OA
ATOM     12  O6S SGN d 503      24.833  25.328 145.813  0.00  0.00    -0.572 OA
ATOM     13  O5S SGN d 503      24.028  23.123 145.225  0.00  0.00    -0.572 OA
ATOM     14  C1  SGN d 503      24.547  25.623 139.691  0.00  0.00     0.147 C 
ATOM     15  O1  SGN d 503      24.697  24.792 138.545  0.00  0.00    -0.369 OA
ATOM     16  O4  SGN d 503      27.968  24.040 141.418  0.00  0.00    -0.348 OA
ATOM     17  C2  SGN d 503      25.742  26.554 139.824  0.00  0.00     0.081 C 
ATOM     18  S1  SGN d 503      26.017  29.092 138.756  0.00  0.00     0.156 S 
ATOM     19  S2  SGN d 503      25.174  24.046 145.165  0.00  0.00     0.251 S 
ATOM     20  C4  SGN d 503      26.823  24.879 141.289  0.00  0.00     0.095 C 
ATOM     21  H   SGN d 503      28.223  27.184 139.497  0.00  0.00     0.210 HD
ATOM     22  H   SGN d 503      24.325  23.008 142.562  0.00  0.00     0.080 H 
ATOM     23  H   SGN d 503      25.975  22.507 142.640  0.00  0.00     0.080 H 
ATOM     24  H   SGN d 503      24.419  29.262 139.982  0.00  0.00     0.231 HD
ATOM     25  H   SGN d 503      25.723  23.293 140.370  0.00  0.00     0.090 H 
ATOM     26  H   SGN d 503      26.721  29.054 140.651  0.00  0.00     0.231 HD
ATOM     27  H   SGN d 503      27.206  25.147 139.209  0.00  0.00     0.089 H 
ATOM     28  H   SGN d 503      25.081  27.141 138.030  0.00  0.00     0.140 HD
ATOM     29  H   SGN d 503      26.515  30.626 137.534  0.00  0.00     0.231 HD
ATOM     30  H   SGN d 503      23.653  26.198 139.571  0.00  0.00     0.131 H 
ATOM     31  H   SGN d 503      25.504  24.261 138.634  0.00  0.00     0.212 HD
ATOM     32  H   SGN d 503      25.576  27.206 140.656  0.00  0.00     0.076 H 
ATOM     33  H   SGN d 503      26.704  25.501 142.151  0.00  0.00     0.091 H 
ATOM     34  C4  SGN d 501      33.875  25.529 147.805  0.00  0.00     0.089 C 
ATOM     35  C6  SGN d 501      34.481  27.061 145.896  0.00  0.00     0.067 C 
ATOM     36  O6S SGN d 501      37.219  28.461 144.540  0.00  0.00    -0.572 OA
ATOM     37  S1  SGN d 501      32.360  20.868 148.573  0.00  0.00     0.156 S 
ATOM     38  O6  SGN d 501      35.288  26.644 144.796  0.00  0.00    -0.254 OA
ATOM     39  O5S SGN d 501      37.605  26.653 146.101  0.00  0.00    -0.572 OA
ATOM     40  O3S SGN d 501      33.714  21.030 149.150  0.00  0.00    -0.296 OA
ATOM     41  N   SGN d 501      31.942  22.290 147.604  0.00  0.00    -0.210 NA
ATOM     42  O1  SGN d 501      31.489  24.109 145.525  0.00  0.00    -0.348 OA
ATOM     43  C1  SGN d 501      32.827  23.711 145.818  0.00  0.00     0.150 C 
ATOM     44  C5  SGN d 501      33.588  25.916 146.360  0.00  0.00     0.090 C 
ATOM     45  C3  SGN d 501      32.892  24.447 148.236  0.00  0.00     0.083 C 
ATOM     46  O4S SGN d 501      37.687  26.234 143.720  0.00  0.00    -0.572 OA
ATOM     47  O3  SGN d 501      33.186  24.024 149.552  0.00  0.00    -0.391 OA
ATOM     48  S2  SGN d 501      37.020  27.013 144.789  0.00  0.00     0.251 S 
ATOM     49  C2  SGN d 501      32.967  23.264 147.274  0.00  0.00     0.081 C 
ATOM     50  O2S SGN d 501      31.376  20.711 149.670  0.00  0.00    -0.296 OA
ATOM     51  O4  SGN d 501      33.738  26.673 148.649  0.00  0.00    -0.390 OA
ATOM     52  O5  SGN d 501      33.752  24.764 145.527  0.00  0.00    -0.349 OA
ATOM     53  O1S SGN d 501      32.338  19.666 147.709  0.00  0.00    -0.296 OA
ATOM     54  H   SGN d 501      34.875  25.156 147.886  0.00  0.00     0.091 H 
ATOM     55  H   SGN d 501      35.114  27.365 146.703  0.00  0.00     0.080 H 
ATOM     56  H   SGN d 501      33.865  27.880 145.586  0.00  0.00     0.080 H 
ATOM     57  H   SGN d 501      34.360  21.132 148.434  0.00  0.00     0.231 HD
ATOM     58  H   SGN d 501      31.212  22.790 148.113  0.00  0.00     0.140 HD
ATOM     59  H   SGN d 501      33.058  22.876 145.190  0.00  0.00     0.131 H 
ATOM     60  H   SGN d 501      32.579  26.266 146.290  0.00  0.00     0.090 H 
ATOM     61  H   SGN d 501      31.899  24.848 148.216  0.00  0.00     0.089 H 
ATOM     62  H   SGN d 501      34.085  23.658 149.581  0.00  0.00     0.210 HD
ATOM     63  H   SGN d 501      33.931  22.813 147.381  0.00  0.00     0.076 H 
ATOM     64  H   SGN d 501      30.488  20.605 149.295  0.00  0.00     0.231 HD
ATOM     65  H   SGN d 501      32.833  27.017 148.582  0.00  0.00     0.210 HD
ATOM     66  H   SGN d 501      31.451  19.557 147.329  0.00  0.00     0.231 HD
ATOM     67  O2  IDS d 502      28.174  21.724 142.997  0.00  0.00    -0.244 OA
ATOM     68  C3  IDS d 502      29.870  22.772 144.332  0.00  0.00     0.094 C 
ATOM     69  O2S IDS d 502      28.798  21.262 140.455  0.00  0.00    -0.572 OA
ATOM     70  O1S IDS d 502      28.378  19.333 141.860  0.00  0.00    -0.572 OA
ATOM     71  O5  IDS d 502      29.495  25.140 142.847  0.00  0.00    -0.340 OA
ATOM     72  S   IDS d 502      27.965  20.723 141.556  0.00  0.00     0.252 S 
ATOM     73  C1  IDS d 502      28.561  24.062 142.712  0.00  0.00     0.161 C 
ATOM     74  O61 IDS d 502      32.137  26.888 143.578  0.00  0.00    -0.646 OA
ATOM     75  O62 IDS d 502      30.495  26.506 144.982  0.00  0.00    -0.646 OA
ATOM     76  C5  IDS d 502      30.853  24.894 143.264  0.00  0.00     0.152 C 
ATOM     77  O3  IDS d 502      30.313  21.481 144.695  0.00  0.00    -0.390 OA
ATOM     78  C6  IDS d 502      31.213  26.170 144.011  0.00  0.00     0.206 C 
ATOM     79  O3S IDS d 502      26.545  20.741 141.143  0.00  0.00    -0.572 OA
ATOM     80  C4  IDS d 502      31.059  23.706 144.224  0.00  0.00     0.103 C 
ATOM     81  C2  IDS d 502      29.194  22.717 142.985  0.00  0.00     0.134 C 
ATOM     82  H   IDS d 502      29.186  23.125 145.077  0.00  0.00     0.091 H 
ATOM     83  H   IDS d 502      27.804  24.239 143.447  0.00  0.00     0.133 H 
ATOM     84  H   IDS d 502      31.446  24.646 142.408  0.00  0.00     0.104 H 
ATOM     85  H   IDS d 502      30.934  21.152 144.026  0.00  0.00     0.210 HD
ATOM     86  H   IDS d 502      31.847  23.147 143.766  0.00  0.00     0.092 H 
ATOM     87  H   IDS d 502      29.914  22.477 142.231  0.00  0.00     0.097 H 
ENDROOT
TORSDOF 28
ENDMDL
MODEL 3
REMARK VINA RESULT:      -6.7      3.523      9.009
REMARK  0 active torsions:
REMARK  status: ('A' for Active; 'I' for Inactive)
REMARK       I    between atoms: O3_1  and  C3_18 
REMARK       I    between atoms: O6_2  and  C6_6 
REMARK       I    between atoms: O6_2  and  S2_52 
REMARK       I    between atoms: C4_3  and  O4_50 
REMARK       I    between atoms: C6_4  and  C5_31 
REMARK       I    between atoms: C6_4  and  O6_12 
REMARK       I    between atoms: C6_6  and  C5_15 
REMARK       I    between atoms: O2_7  and  C2_53 
REMARK       I    between atoms: O2_7  and  S_26 
REMARK       I    between atoms: C3_8  and  O3_38 
REMARK       I    between atoms: S1_9  and  N_19 
REMARK       I    between atoms: S1_9  and  O1S_55 
REMARK       I    between atoms: S1_9  and  O2S_49 
REMARK       I    between atoms: S1_9  and  O3S_17 
REMARK       I    between atoms: O6_12  and  S2_45 
REMARK       I    between atoms: O1S_14  and  S1_48 
REMARK       I    between atoms: O3S_16  and  S1_48 
REMARK       I    between atoms: N_19  and  C2_46 
REMARK       I    between atoms: O1_22  and  C1_24 
REMARK       I    between atoms: O1_22  and  C4_41 
REMARK       I    between atoms: N_23  and  C2_47 
REMARK       I    between atoms: N_23  and  S1_48 
REMARK       I    between atoms: O2S_25  and  S1_48 
REMARK       I    between atoms: C1_27  and  O4_44 
REMARK       I    between atoms: C3_34  and  O3_43 
REMARK       I    between atoms: C1_35  and  O1_36 
REMARK       I    between atoms: C5_37  and  C6_39 
REMARK       I    between atoms: O4_44  and  C4_54 
ROOT
ATOM      1  O3  SGN d 503      27.770  26.850 140.859  0.00  0.00    -0.391 OA
ATOM      2  O6  SGN d 503      26.143  23.150 143.193  0.00  0.00    -0.254 OA
ATOM      3  C6  SGN d 503      26.209  22.424 141.970  0.00  0.00     0.067 C 
ATOM      4  O1S SGN d 503      23.570  28.868 140.307  0.00  0.00    -0.296 OA
ATOM      5  C5  SGN d 503      26.212  23.457 140.859  0.00  0.00     0.091 C 
ATOM      6  O3S SGN d 503      25.843  29.207 141.054  0.00  0.00    -0.296 OA
ATOM      7  C3  SGN d 503      27.001  25.779 140.359  0.00  0.00     0.083 C 
ATOM      8  O4S SGN d 503      27.198  21.907 145.270  0.00  0.00    -0.572 OA
ATOM      9  N   SGN d 503      25.417  27.269 139.297  0.00  0.00    -0.210 NA
ATOM     10  O2S SGN d 503      25.195  29.871 138.816  0.00  0.00    -0.296 OA
ATOM     11  O5  SGN d 503      24.872  23.935 140.726  0.00  0.00    -0.350 OA
ATOM     12  O6S SGN d 503      25.174  23.193 145.642  0.00  0.00    -0.572 OA
ATOM     13  O5S SGN d 503      25.090  21.087 144.452  0.00  0.00    -0.572 OA
ATOM     14  C1  SGN d 503      24.697  25.004 139.800  0.00  0.00     0.147 C 
ATOM     15  O1  SGN d 503      25.079  24.595 138.490  0.00  0.00    -0.369 OA
ATOM     16  O4  SGN d 503      28.473  24.147 141.282  0.00  0.00    -0.348 OA
ATOM     17  C2  SGN d 503      25.543  26.185 140.247  0.00  0.00     0.081 C 
ATOM     18  S1  SGN d 503      24.989  28.874 139.892  0.00  0.00     0.156 S 
ATOM     19  S2  SGN d 503      25.888  22.298 144.709  0.00  0.00     0.251 S 
ATOM     20  C4  SGN d 503      27.121  24.596 141.298  0.00  0.00     0.095 C 
ATOM     21  H   SGN d 503      27.695  27.609 140.260  0.00  0.00     0.210 HD
ATOM     22  H   SGN d 503      25.358  21.782 141.875  0.00  0.00     0.080 H 
ATOM     23  H   SGN d 503      27.083  21.809 141.931  0.00  0.00     0.080 H 
ATOM     24  H   SGN d 503      23.442  28.213 141.011  0.00  0.00     0.231 HD
ATOM     25  H   SGN d 503      26.557  23.055 139.930  0.00  0.00     0.090 H 
ATOM     26  H   SGN d 503      25.705  28.551 141.756  0.00  0.00     0.231 HD
ATOM     27  H   SGN d 503      27.363  25.512 139.388  0.00  0.00     0.089 H 
ATOM     28  H   SGN d 503      24.699  26.997 138.626  0.00  0.00     0.140 HD
ATOM     29  H   SGN d 503      24.960  30.754 139.143  0.00  0.00     0.231 HD
ATOM     30  H   SGN d 503      23.666  25.286 139.772  0.00  0.00     0.131 H 
ATOM     31  H   SGN d 503      26.013  24.334 138.492  0.00  0.00     0.212 HD
ATOM     32  H   SGN d 503      25.197  26.509 141.207  0.00  0.00     0.076 H 
ATOM     33  H   SGN d 503      26.829  24.899 142.282  0.00  0.00     0.091 H 
ATOM     34  C4  SGN d 501      33.734  25.618 148.215  0.00  0.00     0.089 C 
ATOM     35  C6  SGN d 501      33.794  27.712 146.811  0.00  0.00     0.067 C 
ATOM     36  O6S SGN d 501      35.930  30.191 146.048  0.00  0.00    -0.572 OA
ATOM     37  S1  SGN d 501      33.769  20.689 147.650  0.00  0.00     0.156 S 
ATOM     38  O6  SGN d 501      34.670  27.871 145.697  0.00  0.00    -0.254 OA
ATOM     39  O5S SGN d 501      36.892  28.243 147.111  0.00  0.00    -0.572 OA
ATOM     40  O3S SGN d 501      35.014  21.099 148.338  0.00  0.00    -0.296 OA
ATOM     41  N   SGN d 501      32.909  22.119 147.056  0.00  0.00    -0.210 NA
ATOM     42  O1  SGN d 501      31.871  24.196 145.492  0.00  0.00    -0.348 OA
ATOM     43  C1  SGN d 501      33.271  24.165 145.761  0.00  0.00     0.150 C 
ATOM     44  C5  SGN d 501      33.313  26.268 146.903  0.00  0.00     0.090 C 
ATOM     45  C3  SGN d 501      33.147  24.213 148.285  0.00  0.00     0.083 C 
ATOM     46  O4S SGN d 501      37.057  28.518 144.714  0.00  0.00    -0.572 OA
ATOM     47  O3  SGN d 501      33.583  23.566 149.464  0.00  0.00    -0.391 OA
ATOM     48  S2  SGN d 501      36.199  28.741 145.901  0.00  0.00     0.251 S 
ATOM     49  C2  SGN d 501      33.571  23.411 147.058  0.00  0.00     0.081 C 
ATOM     50  O2S SGN d 501      32.904  19.953 148.601  0.00  0.00    -0.296 OA
ATOM     51  O4  SGN d 501      33.260  26.397 149.315  0.00  0.00    -0.390 OA
ATOM     52  O5  SGN d 501      33.815  25.488 145.814  0.00  0.00    -0.349 OA
ATOM     53  O1S SGN d 501      34.109  19.814 146.505  0.00  0.00    -0.296 OA
ATOM     54  H   SGN d 501      34.801  25.563 148.263  0.00  0.00     0.091 H 
ATOM     55  H   SGN d 501      34.314  27.969 147.710  0.00  0.00     0.080 H 
ATOM     56  H   SGN d 501      32.947  28.354 146.683  0.00  0.00     0.080 H 
ATOM     57  H   SGN d 501      35.583  21.581 147.717  0.00  0.00     0.231 HD
ATOM     58  H   SGN d 501      32.069  22.217 147.627  0.00  0.00     0.140 HD
ATOM     59  H   SGN d 501      33.740  23.639 144.955  0.00  0.00     0.131 H 
ATOM     60  H   SGN d 501      32.245  26.298 146.859  0.00  0.00     0.090 H 
ATOM     61  H   SGN d 501      32.079  24.281 148.304  0.00  0.00     0.089 H 
ATOM     62  H   SGN d 501      34.551  23.500 149.457  0.00  0.00     0.210 HD
ATOM     63  H   SGN d 501      34.630  23.266 147.109  0.00  0.00     0.076 H 
ATOM     64  H   SGN d 501      32.087  19.683 148.154  0.00  0.00     0.231 HD
ATOM     65  H   SGN d 501      32.293  26.452 149.279  0.00  0.00     0.210 HD
ATOM     66  H   SGN d 501      33.294  19.544 146.052  0.00  0.00     0.231 HD
ATOM     67  O2  IDS d 502      29.424  21.672 142.219  0.00  0.00    -0.244 OA
ATOM     68  C3  IDS d 502      30.730  22.795 143.890  0.00  0.00     0.094 C 
ATOM     69  O2S IDS d 502      30.114  22.118 139.691  0.00  0.00    -0.572 OA
ATOM     70  O1S IDS d 502      30.345  19.853 140.519  0.00  0.00    -0.572 OA
ATOM     71  O5  IDS d 502      29.605  25.239 143.045  0.00  0.00    -0.340 OA
ATOM     72  S   IDS d 502      29.512  21.077 140.557  0.00  0.00     0.252 S 
ATOM     73  C1  IDS d 502      29.054  24.004 142.575  0.00  0.00     0.161 C 
ATOM     74  O61 IDS d 502      31.579  27.453 144.377  0.00  0.00    -0.646 OA
ATOM     75  O62 IDS d 502      30.166  26.226 145.523  0.00  0.00    -0.646 OA
ATOM     76  C5  IDS d 502      30.979  25.320 143.474  0.00  0.00     0.152 C 
ATOM     77  O3  IDS d 502      31.562  21.655 143.935  0.00  0.00    -0.390 OA
ATOM     78  C6  IDS d 502      30.935  26.398 144.547  0.00  0.00     0.206 C 
ATOM     79  O3S IDS d 502      28.150  20.768 140.070  0.00  0.00    -0.572 OA
ATOM     80  C4  IDS d 502      31.565  24.041 144.106  0.00  0.00     0.103 C 
ATOM     81  C2  IDS d 502      30.081  22.896 142.532  0.00  0.00     0.134 C 
ATOM     82  H   IDS d 502      29.984  22.710 144.653  0.00  0.00     0.091 H 
ATOM     83  H   IDS d 502      28.293  23.737 143.278  0.00  0.00     0.133 H 
ATOM     84  H   IDS d 502      31.604  25.503 142.624  0.00  0.00     0.104 H 
ATOM     85  H   IDS d 502      32.242  21.723 143.246  0.00  0.00     0.210 HD
ATOM     86  H   IDS d 502      32.480  23.894 143.572  0.00  0.00     0.092 H 
ATOM     87  H   IDS d 502      30.826  23.098 141.791  0.00  0.00     0.097 H 
ENDROOT
TORSDOF 28
ENDMDL
MODEL 4
REMARK VINA RESULT:      -6.6      3.576      9.156
REMARK  0 active torsions:
REMARK  status: ('A' for Active; 'I' for Inactive)
REMARK       I    between atoms: O3_1  and  C3_18 
REMARK       I    between atoms: O6_2  and  C6_6 
REMARK       I    between atoms: O6_2  and  S2_52 
REMARK       I    between atoms: C4_3  and  O4_50 
REMARK       I    between atoms: C6_4  and  C5_31 
REMARK       I    between atoms: C6_4  and  O6_12 
REMARK       I    between atoms: C6_6  and  C5_15 
REMARK       I    between atoms: O2_7  and  C2_53 
REMARK       I    between atoms: O2_7  and  S_26 
REMARK       I    between atoms: C3_8  and  O3_38 
REMARK       I    between atoms: S1_9  and  N_19 
REMARK       I    between atoms: S1_9  and  O1S_55 
REMARK       I    between atoms: S1_9  and  O2S_49 
REMARK       I    between atoms: S1_9  and  O3S_17 
REMARK       I    between atoms: O6_12  and  S2_45 
REMARK       I    between atoms: O1S_14  and  S1_48 
REMARK       I    between atoms: O3S_16  and  S1_48 
REMARK       I    between atoms: N_19  and  C2_46 
REMARK       I    between atoms: O1_22  and  C1_24 
REMARK       I    between atoms: O1_22  and  C4_41 
REMARK       I    between atoms: N_23  and  C2_47 
REMARK       I    between atoms: N_23  and  S1_48 
REMARK       I    between atoms: O2S_25  and  S1_48 
REMARK       I    between atoms: C1_27  and  O4_44 
REMARK       I    between atoms: C3_34  and  O3_43 
REMARK       I    between atoms: C1_35  and  O1_36 
REMARK       I    between atoms: C5_37  and  C6_39 
REMARK       I    between atoms: O4_44  and  C4_54 
ROOT
ATOM      1  O3  SGN d 503      28.160  26.516 140.654  0.00  0.00    -0.391 OA
ATOM      2  O6  SGN d 503      26.062  22.393 141.273  0.00  0.00    -0.254 OA
ATOM      3  C6  SGN d 503      26.237  22.162 139.880  0.00  0.00     0.067 C 
ATOM      4  O1S SGN d 503      24.175  28.988 140.510  0.00  0.00    -0.296 OA
ATOM      5  C5  SGN d 503      26.431  23.524 139.241  0.00  0.00     0.091 C 
ATOM      6  O3S SGN d 503      26.356  28.811 141.537  0.00  0.00    -0.296 OA
ATOM      7  C3  SGN d 503      27.400  25.781 139.720  0.00  0.00     0.083 C 
ATOM      8  O4S SGN d 503      26.788  20.381 142.822  0.00  0.00    -0.572 OA
ATOM      9  N   SGN d 503      26.040  27.700 139.151  0.00  0.00    -0.210 NA
ATOM     10  O2S SGN d 503      26.021  30.307 139.660  0.00  0.00    -0.296 OA
ATOM     11  O5  SGN d 503      25.145  24.143 139.173  0.00  0.00    -0.350 OA
ATOM     12  O6S SGN d 503      24.807  21.630 143.460  0.00  0.00    -0.572 OA
ATOM     13  O5S SGN d 503      24.754  20.124 141.566  0.00  0.00    -0.572 OA
ATOM     14  C1  SGN d 503      25.143  25.488 138.701  0.00  0.00     0.147 C 
ATOM     15  O1  SGN d 503      25.658  25.552 137.375  0.00  0.00    -0.369 OA
ATOM     16  O4  SGN d 503      28.659  23.791 140.098  0.00  0.00    -0.348 OA
ATOM     17  C2  SGN d 503      25.991  26.337 139.635  0.00  0.00     0.081 C 
ATOM     18  S1  SGN d 503      25.632  29.009 140.261  0.00  0.00     0.156 S 
ATOM     19  S2  SGN d 503      25.579  21.074 142.330  0.00  0.00     0.251 S 
ATOM     20  C4  SGN d 503      27.341  24.331 140.156  0.00  0.00     0.095 C 
ATOM     21  H   SGN d 503      28.201  27.445 140.378  0.00  0.00     0.210 HD
ATOM     22  H   SGN d 503      25.370  21.683 139.473  0.00  0.00     0.080 H 
ATOM     23  H   SGN d 503      27.074  21.523 139.694  0.00  0.00     0.080 H 
ATOM     24  H   SGN d 503      23.927  28.136 140.904  0.00  0.00     0.231 HD
ATOM     25  H   SGN d 503      26.864  23.458 138.264  0.00  0.00     0.090 H 
ATOM     26  H   SGN d 503      26.098  27.960 141.926  0.00  0.00     0.231 HD
ATOM     27  H   SGN d 503      27.863  25.854 138.758  0.00  0.00     0.089 H 
ATOM     28  H   SGN d 503      25.396  27.763 138.364  0.00  0.00     0.140 HD
ATOM     29  H   SGN d 503      25.797  31.027 140.270  0.00  0.00     0.231 HD
ATOM     30  H   SGN d 503      24.140  25.859 138.687  0.00  0.00     0.131 H 
ATOM     31  H   SGN d 503      26.570  25.220 137.366  0.00  0.00     0.212 HD
ATOM     32  H   SGN d 503      25.549  26.320 140.609  0.00  0.00     0.076 H 
ATOM     33  H   SGN d 503      26.949  24.280 141.150  0.00  0.00     0.091 H 
ATOM     34  C4  SGN d 501      33.111  22.115 147.532  0.00  0.00     0.089 C 
ATOM     35  C6  SGN d 501      33.455  24.562 147.025  0.00  0.00     0.067 C 
ATOM     36  O6S SGN d 501      35.801  26.931 147.446  0.00  0.00    -0.572 OA
ATOM     37  S1  SGN d 501      32.946  17.755 145.171  0.00  0.00     0.156 S 
ATOM     38  O6  SGN d 501      34.468  25.032 146.138  0.00  0.00    -0.254 OA
ATOM     39  O5S SGN d 501      36.518  24.646 147.787  0.00  0.00    -0.572 OA
ATOM     40  O3S SGN d 501      34.119  17.764 146.074  0.00  0.00    -0.296 OA
ATOM     41  N   SGN d 501      32.243  19.378 145.078  0.00  0.00    -0.210 NA
ATOM     42  O1  SGN d 501      31.517  21.972 144.315  0.00  0.00    -0.348 OA
ATOM     43  C1  SGN d 501      32.871  21.711 144.681  0.00  0.00     0.150 C 
ATOM     44  C5  SGN d 501      32.889  23.237 146.526  0.00  0.00     0.090 C 
ATOM     45  C3  SGN d 501      32.444  20.845 147.018  0.00  0.00     0.083 C 
ATOM     46  O4S SGN d 501      36.989  25.762 145.693  0.00  0.00    -0.572 OA
ATOM     47  O3  SGN d 501      32.699  19.773 147.904  0.00  0.00    -0.391 OA
ATOM     48  S2  SGN d 501      36.006  25.617 146.792  0.00  0.00     0.251 S 
ATOM     49  C2  SGN d 501      32.970  20.511 145.624  0.00  0.00     0.081 C 
ATOM     50  O2S SGN d 501      31.933  16.808 145.694  0.00  0.00    -0.296 OA
ATOM     51  O4  SGN d 501      32.551  22.479 148.795  0.00  0.00    -0.390 OA
ATOM     52  O5  SGN d 501      33.476  22.864 145.275  0.00  0.00    -0.349 OA
ATOM     53  O1S SGN d 501      33.373  17.331 143.819  0.00  0.00    -0.296 OA
ATOM     54  H   SGN d 501      34.160  21.944 147.655  0.00  0.00     0.091 H 
ATOM     55  H   SGN d 501      33.876  24.421 147.999  0.00  0.00     0.080 H 
ATOM     56  H   SGN d 501      32.667  25.284 147.069  0.00  0.00     0.080 H 
ATOM     57  H   SGN d 501      34.784  18.383 145.734  0.00  0.00     0.231 HD
ATOM     58  H   SGN d 501      31.347  19.340 145.564  0.00  0.00     0.140 HD
ATOM     59  H   SGN d 501      33.406  21.474 143.785  0.00  0.00     0.131 H 
ATOM     60  H   SGN d 501      31.837  23.383 146.397  0.00  0.00     0.090 H 
ATOM     61  H   SGN d 501      31.387  21.003 146.961  0.00  0.00     0.089 H 
ATOM     62  H   SGN d 501      33.655  19.622 147.962  0.00  0.00     0.210 HD
ATOM     63  H   SGN d 501      34.005  20.256 145.714  0.00  0.00     0.076 H 
ATOM     64  H   SGN d 501      31.162  16.801 145.104  0.00  0.00     0.231 HD
ATOM     65  H   SGN d 501      31.600  22.636 148.692  0.00  0.00     0.210 HD
ATOM     66  H   SGN d 501      32.606  17.324 143.224  0.00  0.00     0.231 HD
ATOM     67  O2  IDS d 502      29.352  21.067 140.125  0.00  0.00    -0.244 OA
ATOM     68  C3  IDS d 502      30.505  21.371 142.207  0.00  0.00     0.094 C 
ATOM     69  O2S IDS d 502      30.367  22.338 138.023  0.00  0.00    -0.572 OA
ATOM     70  O1S IDS d 502      30.372  19.916 137.961  0.00  0.00    -0.572 OA
ATOM     71  O5  IDS d 502      29.626  24.050 142.238  0.00  0.00    -0.340 OA
ATOM     72  S   IDS d 502      29.608  21.115 138.377  0.00  0.00     0.252 S 
ATOM     73  C1  IDS d 502      29.069  23.130 141.291  0.00  0.00     0.161 C 
ATOM     74  O61 IDS d 502      31.542  25.423 144.477  0.00  0.00    -0.646 OA
ATOM     75  O62 IDS d 502      29.935  24.004 144.945  0.00  0.00    -0.646 OA
ATOM     76  C5  IDS d 502      30.940  23.836 142.791  0.00  0.00     0.152 C 
ATOM     77  O3  IDS d 502      31.262  20.218 141.900  0.00  0.00    -0.390 OA
ATOM     78  C6  IDS d 502      30.825  24.446 144.181  0.00  0.00     0.206 C 
ATOM     79  O3S IDS d 502      28.301  21.137 137.686  0.00  0.00    -0.572 OA
ATOM     80  C4  IDS d 502      31.374  22.365 142.950  0.00  0.00     0.103 C 
ATOM     81  C2  IDS d 502      30.032  22.022 140.933  0.00  0.00     0.134 C 
ATOM     82  H   IDS d 502      29.668  21.084 142.811  0.00  0.00     0.091 H 
ATOM     83  H   IDS d 502      28.215  22.700 141.770  0.00  0.00     0.133 H 
ATOM     84  H   IDS d 502      31.673  24.257 142.133  0.00  0.00     0.104 H 
ATOM     85  H   IDS d 502      32.023  20.468 141.352  0.00  0.00     0.210 HD
ATOM     86  H   IDS d 502      32.338  22.337 142.487  0.00  0.00     0.092 H 
ATOM     87  H   IDS d 502      30.871  22.409 140.393  0.00  0.00     0.097 H 
ENDROOT
TORSDOF 28
ENDMDL
MODEL 5
REMARK VINA RESULT:      -6.6      1.045      1.066
REMARK  0 active torsions:
REMARK  status: ('A' for Active; 'I' for Inactive)
REMARK       I    between atoms: O3_1  and  C3_18 
REMARK       I    between atoms: O6_2  and  C6_6 
REMARK       I    between atoms: O6_2  and  S2_52 
REMARK       I    between atoms: C4_3  and  O4_50 
REMARK       I    between atoms: C6_4  and  C5_31 
REMARK       I    between atoms: C6_4  and  O6_12 
REMARK       I    between atoms: C6_6  and  C5_15 
REMARK       I    between atoms: O2_7  and  C2_53 
REMARK       I    between atoms: O2_7  and  S_26 
REMARK       I    between atoms: C3_8  and  O3_38 
REMARK       I    between atoms: S1_9  and  N_19 
REMARK       I    between atoms: S1_9  and  O1S_55 
REMARK       I    between atoms: S1_9  and  O2S_49 
REMARK       I    between atoms: S1_9  and  O3S_17 
REMARK       I    between atoms: O6_12  and  S2_45 
REMARK       I    between atoms: O1S_14  and  S1_48 
REMARK       I    between atoms: O3S_16  and  S1_48 
REMARK       I    between atoms: N_19  and  C2_46 
REMARK       I    between atoms: O1_22  and  C1_24 
REMARK       I    between atoms: O1_22  and  C4_41 
REMARK       I    between atoms: N_23  and  C2_47 
REMARK       I    between atoms: N_23  and  S1_48 
REMARK       I    between atoms: O2S_25  and  S1_48 
REMARK       I    between atoms: C1_27  and  O4_44 
REMARK       I    between atoms: C3_34  and  O3_43 
REMARK       I    between atoms: C1_35  and  O1_36 
REMARK       I    between atoms: C5_37  and  C6_39 
REMARK       I    between atoms: O4_44  and  C4_54 
ROOT
ATOM      1  O3  SGN d 503      31.191  21.209 145.854  0.00  0.00    -0.391 OA
ATOM      2  O6  SGN d 503      30.409  21.171 141.253  0.00  0.00    -0.254 OA
ATOM      3  C6  SGN d 503      29.882  19.859 141.413  0.00  0.00     0.067 C 
ATOM      4  O1S SGN d 503      35.748  20.149 145.506  0.00  0.00    -0.296 OA
ATOM      5  C5  SGN d 503      30.447  19.327 142.716  0.00  0.00     0.091 C 
ATOM      6  O3S SGN d 503      34.142  21.680 146.464  0.00  0.00    -0.296 OA
ATOM      7  C3  SGN d 503      31.161  20.095 144.988  0.00  0.00     0.083 C 
ATOM      8  O4S SGN d 503      28.902  22.795 139.816  0.00  0.00    -0.572 OA
ATOM      9  N   SGN d 503      33.278  19.260 145.812  0.00  0.00    -0.210 NA
ATOM     10  O2S SGN d 503      34.973  19.821 147.778  0.00  0.00    -0.296 OA
ATOM     11  O5  SGN d 503      31.805  18.959 142.466  0.00  0.00    -0.350 OA
ATOM     12  O6S SGN d 503      31.307  22.956 139.536  0.00  0.00    -0.572 OA
ATOM     13  O5S SGN d 503      30.089  21.067 138.639  0.00  0.00    -0.572 OA
ATOM     14  C1  SGN d 503      32.541  18.540 143.612  0.00  0.00     0.147 C 
ATOM     15  O1  SGN d 503      31.943  17.385 144.194  0.00  0.00    -0.369 OA
ATOM     16  O4  SGN d 503      29.045  20.718 144.083  0.00  0.00    -0.348 OA
ATOM     17  C2  SGN d 503      32.572  19.678 144.620  0.00  0.00     0.081 C 
ATOM     18  S1  SGN d 503      34.591  20.270 146.418  0.00  0.00     0.156 S 
ATOM     19  S2  SGN d 503      30.169  22.038 139.743  0.00  0.00     0.251 S 
ATOM     20  C4  SGN d 503      30.402  20.462 143.730  0.00  0.00     0.095 C 
ATOM     21  H   SGN d 503      31.676  20.977 146.661  0.00  0.00     0.210 HD
ATOM     22  H   SGN d 503      30.186  19.237 140.597  0.00  0.00     0.080 H 
ATOM     23  H   SGN d 503      28.812  19.870 141.429  0.00  0.00     0.080 H 
ATOM     24  H   SGN d 503      35.492  20.444 144.617  0.00  0.00     0.231 HD
ATOM     25  H   SGN d 503      29.897  18.487 143.086  0.00  0.00     0.090 H 
ATOM     26  H   SGN d 503      33.893  21.969 145.572  0.00  0.00     0.231 HD
ATOM     27  H   SGN d 503      30.675  19.280 145.484  0.00  0.00     0.089 H 
ATOM     28  H   SGN d 503      33.672  18.339 145.620  0.00  0.00     0.140 HD
ATOM     29  H   SGN d 503      35.696  20.377 148.111  0.00  0.00     0.231 HD
ATOM     30  H   SGN d 503      33.539  18.287 143.321  0.00  0.00     0.131 H 
ATOM     31  H   SGN d 503      31.036  17.593 144.466  0.00  0.00     0.212 HD
ATOM     32  H   SGN d 503      33.078  20.511 144.179  0.00  0.00     0.076 H 
ATOM     33  H   SGN d 503      30.852  21.326 143.287  0.00  0.00     0.091 H 
ATOM     34  C4  SGN d 501      25.927  28.974 144.074  0.00  0.00     0.089 C 
ATOM     35  C6  SGN d 501      27.061  28.638 146.302  0.00  0.00     0.067 C 
ATOM     36  O6S SGN d 501      26.771  29.694 149.478  0.00  0.00    -0.572 OA
ATOM     37  S1  SGN d 501      22.971  26.525 140.932  0.00  0.00     0.156 S 
ATOM     38  O6  SGN d 501      26.406  28.043 147.420  0.00  0.00    -0.254 OA
ATOM     39  O5S SGN d 501      24.885  30.139 148.029  0.00  0.00    -0.572 OA
ATOM     40  O3S SGN d 501      22.234  27.692 141.469  0.00  0.00    -0.296 OA
ATOM     41  N   SGN d 501      24.486  26.307 141.823  0.00  0.00    -0.210 NA
ATOM     42  O1  SGN d 501      26.490  25.460 143.585  0.00  0.00    -0.348 OA
ATOM     43  C1  SGN d 501      25.352  26.143 144.107  0.00  0.00     0.150 C 
ATOM     44  C5  SGN d 501      26.601  27.977 145.007  0.00  0.00     0.090 C 
ATOM     45  C3  SGN d 501      25.575  28.275 142.767  0.00  0.00     0.083 C 
ATOM     46  O4S SGN d 501      24.825  28.259 149.551  0.00  0.00    -0.572 OA
ATOM     47  O3  SGN d 501      24.885  29.167 141.913  0.00  0.00    -0.391 OA
ATOM     48  S2  SGN d 501      25.693  29.075 148.670  0.00  0.00     0.251 S 
ATOM     49  C2  SGN d 501      24.714  27.047 143.050  0.00  0.00     0.081 C 
ATOM     50  O2S SGN d 501      23.270  26.753 139.498  0.00  0.00    -0.296 OA
ATOM     51  O4  SGN d 501      26.809  30.068 143.817  0.00  0.00    -0.390 OA
ATOM     52  O5  SGN d 501      25.695  26.901 145.272  0.00  0.00    -0.349 OA
ATOM     53  O1S SGN d 501      22.139  25.310 141.080  0.00  0.00    -0.296 OA
ATOM     54  H   SGN d 501      25.035  29.349 144.531  0.00  0.00     0.091 H 
ATOM     55  H   SGN d 501      26.826  29.682 146.268  0.00  0.00     0.080 H 
ATOM     56  H   SGN d 501      28.117  28.504 146.405  0.00  0.00     0.080 H 
ATOM     57  H   SGN d 501      22.036  27.545 142.407  0.00  0.00     0.231 HD
ATOM     58  H   SGN d 501      25.243  26.553 141.184  0.00  0.00     0.140 HD
ATOM     59  H   SGN d 501      24.633  25.401 144.387  0.00  0.00     0.131 H 
ATOM     60  H   SGN d 501      27.479  27.595 144.529  0.00  0.00     0.090 H 
ATOM     61  H   SGN d 501      26.477  27.963 142.283  0.00  0.00     0.089 H 
ATOM     62  H   SGN d 501      24.065  29.456 142.343  0.00  0.00     0.210 HD
ATOM     63  H   SGN d 501      23.776  27.385 143.439  0.00  0.00     0.076 H 
ATOM     64  H   SGN d 501      23.754  25.991 139.144  0.00  0.00     0.231 HD
ATOM     65  H   SGN d 501      27.621  29.737 143.402  0.00  0.00     0.210 HD
ATOM     66  H   SGN d 501      22.619  24.544 140.728  0.00  0.00     0.231 HD
ATOM     67  O2  IDS d 502      26.854  20.840 142.326  0.00  0.00    -0.244 OA
ATOM     68  C3  IDS d 502      26.525  23.151 142.881  0.00  0.00     0.094 C 
ATOM     69  O2S IDS d 502      26.466  19.092 144.290  0.00  0.00    -0.572 OA
ATOM     70  O1S IDS d 502      24.975  18.966 142.385  0.00  0.00    -0.572 OA
ATOM     71  O5  IDS d 502      28.842  23.038 144.484  0.00  0.00    -0.340 OA
ATOM     72  S   IDS d 502      26.370  19.212 142.816  0.00  0.00     0.252 S 
ATOM     73  C1  IDS d 502      28.541  21.956 143.593  0.00  0.00     0.161 C 
ATOM     74  O61 IDS d 502      28.604  25.720 146.305  0.00  0.00    -0.646 OA
ATOM     75  O62 IDS d 502      29.063  25.734 144.160  0.00  0.00    -0.646 OA
ATOM     76  C5  IDS d 502      27.797  23.893 144.988  0.00  0.00     0.152 C 
ATOM     77  O3  IDS d 502      25.183  23.008 142.464  0.00  0.00    -0.390 OA
ATOM     78  C6  IDS d 502      28.508  25.227 145.163  0.00  0.00     0.206 C 
ATOM     79  O3S IDS d 502      27.268  18.219 142.188  0.00  0.00    -0.572 OA
ATOM     80  C4  IDS d 502      26.594  24.114 144.049  0.00  0.00     0.103 C 
ATOM     81  C2  IDS d 502      27.057  21.817 143.341  0.00  0.00     0.134 C 
ATOM     82  H   IDS d 502      27.104  23.519 142.059  0.00  0.00     0.091 H 
ATOM     83  H   IDS d 502      29.024  22.196 142.669  0.00  0.00     0.133 H 
ATOM     84  H   IDS d 502      27.369  23.450 145.863  0.00  0.00     0.104 H 
ATOM     85  H   IDS d 502      24.648  22.675 143.202  0.00  0.00     0.210 HD
ATOM     86  H   IDS d 502      25.749  23.904 144.670  0.00  0.00     0.092 H 
ATOM     87  H   IDS d 502      26.548  21.514 144.232  0.00  0.00     0.097 H 
ENDROOT
TORSDOF 28
ENDMDL
MODEL 6
REMARK VINA RESULT:      -6.5      4.585      6.647
REMARK  0 active torsions:
REMARK  status: ('A' for Active; 'I' for Inactive)
REMARK       I    between atoms: O3_1  and  C3_18 
REMARK       I    between atoms: O6_2  and  C6_6 
REMARK       I    between atoms: O6_2  and  S2_52 
REMARK       I    between atoms: C4_3  and  O4_50 
REMARK       I    between atoms: C6_4  and  C5_31 
REMARK       I    between atoms: C6_4  and  O6_12 
REMARK       I    between atoms: C6_6  and  C5_15 
REMARK       I    between atoms: O2_7  and  C2_53 
REMARK       I    between atoms: O2_7  and  S_26 
REMARK       I    between atoms: C3_8  and  O3_38 
REMARK       I    between atoms: S1_9  and  N_19 
REMARK       I    between atoms: S1_9  and  O1S_55 
REMARK       I    between atoms: S1_9  and  O2S_49 
REMARK       I    between atoms: S1_9  and  O3S_17 
REMARK       I    between atoms: O6_12  and  S2_45 
REMARK       I    between atoms: O1S_14  and  S1_48 
REMARK       I    between atoms: O3S_16  and  S1_48 
REMARK       I    between atoms: N_19  and  C2_46 
REMARK       I    between atoms: O1_22  and  C1_24 
REMARK       I    between atoms: O1_22  and  C4_41 
REMARK       I    between atoms: N_23  and  C2_47 
REMARK       I    between atoms: N_23  and  S1_48 
REMARK       I    between atoms: O2S_25  and  S1_48 
REMARK       I    between atoms: C1_27  and  O4_44 
REMARK       I    between atoms: C3_34  and  O3_43 
REMARK       I    between atoms: C1_35  and  O1_36 
REMARK       I    between atoms: C5_37  and  C6_39 
REMARK       I    between atoms: O4_44  and  C4_54 
ROOT
ATOM      1  O3  SGN d 503      33.067  25.855 150.478  0.00  0.00    -0.391 OA
ATOM      2  O6  SGN d 503      35.551  26.388 146.562  0.00  0.00    -0.254 OA
ATOM      3  C6  SGN d 503      36.036  25.065 146.760  0.00  0.00     0.067 C 
ATOM      4  O1S SGN d 503      36.096  28.177 153.206  0.00  0.00    -0.296 OA
ATOM      5  C5  SGN d 503      35.837  24.752 148.231  0.00  0.00     0.091 C 
ATOM      6  O3S SGN d 503      33.783  27.992 152.533  0.00  0.00    -0.296 OA
ATOM      7  C3  SGN d 503      34.291  25.240 150.136  0.00  0.00     0.083 C 
ATOM      8  O4S SGN d 503      34.698  26.895 144.116  0.00  0.00    -0.572 OA
ATOM      9  N   SGN d 503      35.309  25.843 152.247  0.00  0.00    -0.210 NA
ATOM     10  O2S SGN d 503      34.543  26.902 154.559  0.00  0.00    -0.296 OA
ATOM     11  O5  SGN d 503      36.863  25.440 148.949  0.00  0.00    -0.350 OA
ATOM     12  O6S SGN d 503      35.900  28.658 145.271  0.00  0.00    -0.572 OA
ATOM     13  O5S SGN d 503      37.074  26.714 144.435  0.00  0.00    -0.572 OA
ATOM     14  C1  SGN d 503      36.771  25.357 150.369  0.00  0.00     0.147 C 
ATOM     15  O1  SGN d 503      36.863  24.001 150.795  0.00  0.00    -0.369 OA
ATOM     16  O4  SGN d 503      33.457  24.505 148.026  0.00  0.00    -0.348 OA
ATOM     17  C2  SGN d 503      35.445  25.957 150.811  0.00  0.00     0.081 C 
ATOM     18  S1  SGN d 503      34.915  27.289 153.178  0.00  0.00     0.156 S 
ATOM     19  S2  SGN d 503      35.818  27.203 145.028  0.00  0.00     0.251 S 
ATOM     20  C4  SGN d 503      34.475  25.297 148.633  0.00  0.00     0.095 C 
ATOM     21  H   SGN d 503      32.946  25.820 151.439  0.00  0.00     0.210 HD
ATOM     22  H   SGN d 503      37.074  25.010 146.507  0.00  0.00     0.080 H 
ATOM     23  H   SGN d 503      35.516  24.365 146.140  0.00  0.00     0.080 H 
ATOM     24  H   SGN d 503      36.335  28.427 152.300  0.00  0.00     0.231 HD
ATOM     25  H   SGN d 503      35.883  23.702 148.433  0.00  0.00     0.090 H 
ATOM     26  H   SGN d 503      34.031  28.243 151.629  0.00  0.00     0.231 HD
ATOM     27  H   SGN d 503      34.273  24.222 150.463  0.00  0.00     0.089 H 
ATOM     28  H   SGN d 503      36.195  25.488 152.605  0.00  0.00     0.140 HD
ATOM     29  H   SGN d 503      34.327  27.696 155.071  0.00  0.00     0.231 HD
ATOM     30  H   SGN d 503      37.579  25.900 150.811  0.00  0.00     0.131 H 
ATOM     31  H   SGN d 503      36.137  23.489 150.405  0.00  0.00     0.212 HD
ATOM     32  H   SGN d 503      35.427  26.989 150.531  0.00  0.00     0.076 H 
ATOM     33  H   SGN d 503      34.412  26.316 148.310  0.00  0.00     0.091 H 
ATOM     34  C4  SGN d 501      26.769  28.366 143.754  0.00  0.00     0.089 C 
ATOM     35  C6  SGN d 501      26.146  28.351 146.199  0.00  0.00     0.067 C 
ATOM     36  O6S SGN d 501      23.388  28.174 148.110  0.00  0.00    -0.572 OA
ATOM     37  S1  SGN d 501      28.860  25.402 140.371  0.00  0.00     0.156 S 
ATOM     38  O6  SGN d 501      25.526  27.233 146.831  0.00  0.00    -0.254 OA
ATOM     39  O5S SGN d 501      23.110  27.590 145.779  0.00  0.00    -0.572 OA
ATOM     40  O3S SGN d 501      27.445  25.626 139.998  0.00  0.00    -0.296 OA
ATOM     41  N   SGN d 501      29.163  26.034 141.997  0.00  0.00    -0.210 NA
ATOM     42  O1  SGN d 501      29.559  26.335 144.752  0.00  0.00    -0.348 OA
ATOM     43  C1  SGN d 501      28.270  25.953 144.275  0.00  0.00     0.150 C 
ATOM     44  C5  SGN d 501      27.144  27.877 145.147  0.00  0.00     0.090 C 
ATOM     45  C3  SGN d 501      27.849  27.939 142.769  0.00  0.00     0.083 C 
ATOM     46  O4S SGN d 501      23.337  25.849 147.443  0.00  0.00    -0.572 OA
ATOM     47  O3  SGN d 501      27.485  28.323 141.457  0.00  0.00    -0.391 OA
ATOM     48  S2  SGN d 501      23.769  27.210 147.050  0.00  0.00     0.251 S 
ATOM     49  C2  SGN d 501      28.047  26.427 142.838  0.00  0.00     0.081 C 
ATOM     50  O2S SGN d 501      29.737  26.097 139.400  0.00  0.00    -0.296 OA
ATOM     51  O4  SGN d 501      26.649  29.789 143.757  0.00  0.00    -0.390 OA
ATOM     52  O5  SGN d 501      27.236  26.449 145.131  0.00  0.00    -0.349 OA
ATOM     53  O1S SGN d 501      29.147  23.949 140.351  0.00  0.00    -0.296 OA
ATOM     54  H   SGN d 501      25.831  27.940 143.464  0.00  0.00     0.091 H 
ATOM     55  H   SGN d 501      25.395  28.951 145.727  0.00  0.00     0.080 H 
ATOM     56  H   SGN d 501      26.664  28.926 146.937  0.00  0.00     0.080 H 
ATOM     57  H   SGN d 501      26.868  25.172 140.632  0.00  0.00     0.231 HD
ATOM     58  H   SGN d 501      29.756  26.857 141.888  0.00  0.00     0.140 HD
ATOM     59  H   SGN d 501      28.229  24.884 144.282  0.00  0.00     0.131 H 
ATOM     60  H   SGN d 501      28.092  28.293 145.416  0.00  0.00     0.090 H 
ATOM     61  H   SGN d 501      28.769  28.422 143.026  0.00  0.00     0.089 H 
ATOM     62  H   SGN d 501      26.651  27.890 141.213  0.00  0.00     0.210 HD
ATOM     63  H   SGN d 501      27.154  25.961 142.479  0.00  0.00     0.076 H 
ATOM     64  H   SGN d 501      30.666  25.952 139.641  0.00  0.00     0.231 HD
ATOM     65  H   SGN d 501      27.496  30.184 144.019  0.00  0.00     0.210 HD
ATOM     66  H   SGN d 501      30.074  23.799 140.594  0.00  0.00     0.231 HD
ATOM     67  O2  IDS d 502      33.430  23.561 145.378  0.00  0.00    -0.244 OA
ATOM     68  C3  IDS d 502      31.470  24.869 144.922  0.00  0.00     0.094 C 
ATOM     69  O2S IDS d 502      33.146  21.596 147.145  0.00  0.00    -0.572 OA
ATOM     70  O1S IDS d 502      33.695  20.969 144.870  0.00  0.00    -0.572 OA
ATOM     71  O5  IDS d 502      31.646  25.938 147.526  0.00  0.00    -0.340 OA
ATOM     72  S   IDS d 502      33.930  21.963 145.943  0.00  0.00     0.252 S 
ATOM     73  C1  IDS d 502      32.737  25.174 146.996  0.00  0.00     0.161 C 
ATOM     74  O61 IDS d 502      28.717  27.276 147.968  0.00  0.00    -0.646 OA
ATOM     75  O62 IDS d 502      30.242  28.090 146.618  0.00  0.00    -0.646 OA
ATOM     76  C5  IDS d 502      30.304  25.745 147.039  0.00  0.00     0.152 C 
ATOM     77  O3  IDS d 502      31.185  23.982 143.861  0.00  0.00    -0.390 OA
ATOM     78  C6  IDS d 502      29.685  27.127 147.196  0.00  0.00     0.206 C 
ATOM     79  O3S IDS d 502      35.368  21.990 146.290  0.00  0.00    -0.572 OA
ATOM     80  C4  IDS d 502      30.175  25.331 145.559  0.00  0.00     0.103 C 
ATOM     81  C2  IDS d 502      32.282  24.157 145.974  0.00  0.00     0.134 C 
ATOM     82  H   IDS d 502      32.015  25.706 144.536  0.00  0.00     0.091 H 
ATOM     83  H   IDS d 502      33.380  25.880 146.513  0.00  0.00     0.133 H 
ATOM     84  H   IDS d 502      29.845  24.942 147.578  0.00  0.00     0.104 H 
ATOM     85  H   IDS d 502      30.691  23.219 144.201  0.00  0.00     0.210 HD
ATOM     86  H   IDS d 502      29.528  24.480 145.593  0.00  0.00     0.092 H 
ATOM     87  H   IDS d 502      31.687  23.397 146.436  0.00  0.00     0.097 H 
ENDROOT
TORSDOF 28
ENDMDL
MODEL 7
REMARK VINA RESULT:      -6.5      3.570     10.201
REMARK  0 active torsions:
REMARK  status: ('A' for Active; 'I' for Inactive)
REMARK       I    between atoms: O3_1  and  C3_18 
REMARK       I    between atoms: O6_2  and  C6_6 
REMARK       I    between atoms: O6_2  and  S2_52 
REMARK       I    between atoms: C4_3  and  O4_50 
REMARK       I    between atoms: C6_4  and  C5_31 
REMARK       I    between atoms: C6_4  and  O6_12 
REMARK       I    between atoms: C6_6  and  C5_15 
REMARK       I    between atoms: O2_7  and  C2_53 
REMARK       I    between atoms: O2_7  and  S_26 
REMARK       I    between atoms: C3_8  and  O3_38 
REMARK       I    between atoms: S1_9  and  N_19 
REMARK       I    between atoms: S1_9  and  O1S_55 
REMARK       I    between atoms: S1_9  and  O2S_49 
REMARK       I    between atoms: S1_9  and  O3S_17 
REMARK       I    between atoms: O6_12  and  S2_45 
REMARK       I    between atoms: O1S_14  and  S1_48 
REMARK       I    between atoms: O3S_16  and  S1_48 
REMARK       I    between atoms: N_19  and  C2_46 
REMARK       I    between atoms: O1_22  and  C1_24 
REMARK       I    between atoms: O1_22  and  C4_41 
REMARK       I    between atoms: N_23  and  C2_47 
REMARK       I    between atoms: N_23  and  S1_48 
REMARK       I    between atoms: O2S_25  and  S1_48 
REMARK       I    between atoms: C1_27  and  O4_44 
REMARK       I    between atoms: C3_34  and  O3_43 
REMARK       I    between atoms: C1_35  and  O1_36 
REMARK       I    between atoms: C5_37  and  C6_39 
REMARK       I    between atoms: O4_44  and  C4_54 
ROOT
ATOM      1  O3  SGN d 503      27.348  24.429 140.128  0.00  0.00    -0.391 OA
ATOM      2  O6  SGN d 503      24.899  23.670 144.029  0.00  0.00    -0.254 OA
ATOM      3  C6  SGN d 503      23.831  23.224 143.201  0.00  0.00     0.067 C 
ATOM      4  O1S SGN d 503      26.511  29.044 140.009  0.00  0.00    -0.296 OA
ATOM      5  C5  SGN d 503      24.080  23.815 141.826  0.00  0.00     0.091 C 
ATOM      6  O3S SGN d 503      28.226  27.343 139.932  0.00  0.00    -0.296 OA
ATOM      7  C3  SGN d 503      25.947  24.471 140.296  0.00  0.00     0.083 C 
ATOM      8  O4S SGN d 503      25.463  22.072 146.054  0.00  0.00    -0.572 OA
ATOM      9  N   SGN d 503      25.774  26.632 139.219  0.00  0.00    -0.210 NA
ATOM     10  O2S SGN d 503      27.361  28.282 137.872  0.00  0.00    -0.296 OA
ATOM     11  O5  SGN d 503      23.710  25.194 141.889  0.00  0.00    -0.350 OA
ATOM     12  O6S SGN d 503      25.587  24.464 146.444  0.00  0.00    -0.572 OA
ATOM     13  O5S SGN d 503      23.443  23.368 146.205  0.00  0.00    -0.572 OA
ATOM     14  C1  SGN d 503      23.983  25.950 140.712  0.00  0.00     0.147 C 
ATOM     15  O1  SGN d 503      23.264  25.421 139.602  0.00  0.00    -0.369 OA
ATOM     16  O4  SGN d 503      25.897  22.324 141.332  0.00  0.00    -0.348 OA
ATOM     17  C2  SGN d 503      25.478  25.907 140.436  0.00  0.00     0.081 C 
ATOM     18  S1  SGN d 503      27.022  27.878 139.257  0.00  0.00     0.156 S 
ATOM     19  S2  SGN d 503      24.847  23.383 145.762  0.00  0.00     0.251 S 
ATOM     20  C4  SGN d 503      25.570  23.696 141.541  0.00  0.00     0.095 C 
ATOM     21  H   SGN d 503      27.593  24.924 139.331  0.00  0.00     0.210 HD
ATOM     22  H   SGN d 503      22.894  23.568 143.588  0.00  0.00     0.080 H 
ATOM     23  H   SGN d 503      23.790  22.156 143.163  0.00  0.00     0.080 H 
ATOM     24  H   SGN d 503      26.291  28.774 140.915  0.00  0.00     0.231 HD
ATOM     25  H   SGN d 503      23.522  23.316 141.061  0.00  0.00     0.090 H 
ATOM     26  H   SGN d 503      27.999  27.080 140.838  0.00  0.00     0.231 HD
ATOM     27  H   SGN d 503      25.480  24.034 139.438  0.00  0.00     0.089 H 
ATOM     28  H   SGN d 503      24.910  27.082 138.920  0.00  0.00     0.140 HD
ATOM     29  H   SGN d 503      28.047  28.967 137.893  0.00  0.00     0.231 HD
ATOM     30  H   SGN d 503      23.671  26.962 140.859  0.00  0.00     0.131 H 
ATOM     31  H   SGN d 503      23.532  24.502 139.451  0.00  0.00     0.212 HD
ATOM     32  H   SGN d 503      25.990  26.363 141.257  0.00  0.00     0.076 H 
ATOM     33  H   SGN d 503      26.105  24.095 142.378  0.00  0.00     0.091 H 
ATOM     34  C4  SGN d 501      32.780  18.707 145.507  0.00  0.00     0.089 C 
ATOM     35  C6  SGN d 501      33.704  19.850 143.457  0.00  0.00     0.067 C 
ATOM     36  O6S SGN d 501      36.230  19.482 141.272  0.00  0.00    -0.572 OA
ATOM     37  S1  SGN d 501      28.904  15.920 146.854  0.00  0.00     0.156 S 
ATOM     38  O6  SGN d 501      33.737  19.228 142.174  0.00  0.00    -0.254 OA
ATOM     39  O5S SGN d 501      35.759  17.579 142.689  0.00  0.00    -0.572 OA
ATOM     40  O3S SGN d 501      30.138  15.110 146.974  0.00  0.00    -0.296 OA
ATOM     41  N   SGN d 501      29.259  17.442 146.020  0.00  0.00    -0.210 NA
ATOM     42  O1  SGN d 501      29.555  19.486 144.131  0.00  0.00    -0.348 OA
ATOM     43  C1  SGN d 501      30.345  18.306 144.004  0.00  0.00     0.150 C 
ATOM     44  C5  SGN d 501      32.446  19.437 144.212  0.00  0.00     0.090 C 
ATOM     45  C3  SGN d 501      31.489  18.404 146.256  0.00  0.00     0.083 C 
ATOM     46  O4S SGN d 501      34.934  17.628 140.416  0.00  0.00    -0.572 OA
ATOM     47  O3  SGN d 501      31.773  17.664 147.428  0.00  0.00    -0.391 OA
ATOM     48  S2  SGN d 501      35.226  18.448 141.615  0.00  0.00     0.251 S 
ATOM     49  C2  SGN d 501      30.538  17.618 145.356  0.00  0.00     0.081 C 
ATOM     50  O2S SGN d 501      28.376  16.210 148.207  0.00  0.00    -0.296 OA
ATOM     51  O4  SGN d 501      33.631  19.521 146.315  0.00  0.00    -0.390 OA
ATOM     52  O5  SGN d 501      31.613  18.598 143.406  0.00  0.00    -0.349 OA
ATOM     53  O1S SGN d 501      27.896  15.163 146.077  0.00  0.00    -0.296 OA
ATOM     54  H   SGN d 501      33.288  17.792 145.283  0.00  0.00     0.091 H 
ATOM     55  H   SGN d 501      34.566  19.552 144.017  0.00  0.00     0.080 H 
ATOM     56  H   SGN d 501      33.701  20.912 143.329  0.00  0.00     0.080 H 
ATOM     57  H   SGN d 501      30.486  14.918 146.089  0.00  0.00     0.231 HD
ATOM     58  H   SGN d 501      29.182  18.184 146.715  0.00  0.00     0.140 HD
ATOM     59  H   SGN d 501      29.817  17.633 143.361  0.00  0.00     0.131 H 
ATOM     60  H   SGN d 501      31.921  20.338 144.449  0.00  0.00     0.090 H 
ATOM     61  H   SGN d 501      31.021  19.325 146.535  0.00  0.00     0.089 H 
ATOM     62  H   SGN d 501      32.197  16.826 147.186  0.00  0.00     0.210 HD
ATOM     63  H   SGN d 501      30.976  16.660 145.171  0.00  0.00     0.076 H 
ATOM     64  H   SGN d 501      27.567  16.741 148.132  0.00  0.00     0.231 HD
ATOM     65  H   SGN d 501      33.178  20.354 146.523  0.00  0.00     0.210 HD
ATOM     66  H   SGN d 501      27.086  15.691 145.997  0.00  0.00     0.231 HD
ATOM     67  O2  IDS d 502      24.975  20.138 142.839  0.00  0.00    -0.244 OA
ATOM     68  C3  IDS d 502      27.219  19.665 143.545  0.00  0.00     0.094 C 
ATOM     69  O2S IDS d 502      24.473  19.849 140.245  0.00  0.00    -0.572 OA
ATOM     70  O1S IDS d 502      23.301  18.377 141.771  0.00  0.00    -0.572 OA
ATOM     71  O5  IDS d 502      28.076  21.978 142.178  0.00  0.00    -0.340 OA
ATOM     72  S   IDS d 502      23.810  19.752 141.567  0.00  0.00     0.252 S 
ATOM     73  C1  IDS d 502      26.675  21.747 142.376  0.00  0.00     0.161 C 
ATOM     74  O61 IDS d 502      31.296  21.568 141.993  0.00  0.00    -0.646 OA
ATOM     75  O62 IDS d 502      30.226  22.035 143.851  0.00  0.00    -0.646 OA
ATOM     76  C5  IDS d 502      29.010  20.880 142.158  0.00  0.00     0.152 C 
ATOM     77  O3  IDS d 502      26.809  18.336 143.791  0.00  0.00    -0.390 OA
ATOM     78  C6  IDS d 502      30.280  21.508 142.715  0.00  0.00     0.206 C 
ATOM     79  O3S IDS d 502      22.686  20.712 141.619  0.00  0.00    -0.572 OA
ATOM     80  C4  IDS d 502      28.649  19.671 143.043  0.00  0.00     0.103 C 
ATOM     81  C2  IDS d 502      26.345  20.276 142.479  0.00  0.00     0.134 C 
ATOM     82  H   IDS d 502      27.142  20.225 144.455  0.00  0.00     0.091 H 
ATOM     83  H   IDS d 502      26.430  22.219 143.304  0.00  0.00     0.133 H 
ATOM     84  H   IDS d 502      29.060  20.477 141.168  0.00  0.00     0.104 H 
ATOM     85  H   IDS d 502      26.875  17.820 142.972  0.00  0.00     0.210 HD
ATOM     86  H   IDS d 502      28.744  18.837 142.378  0.00  0.00     0.092 H 
ATOM     87  H   IDS d 502      26.518  19.783 141.545  0.00  0.00     0.097 H 
ENDROOT
TORSDOF 28
ENDMDL
MODEL 8
REMARK VINA RESULT:      -6.3      4.327      7.533
REMARK  0 active torsions:
REMARK  status: ('A' for Active; 'I' for Inactive)
REMARK       I    between atoms: O3_1  and  C3_18 
REMARK       I    between atoms: O6_2  and  C6_6 
REMARK       I    between atoms: O6_2  and  S2_52 
REMARK       I    between atoms: C4_3  and  O4_50 
REMARK       I    between atoms: C6_4  and  C5_31 
REMARK       I    between atoms: C6_4  and  O6_12 
REMARK       I    between atoms: C6_6  and  C5_15 
REMARK       I    between atoms: O2_7  and  C2_53 
REMARK       I    between atoms: O2_7  and  S_26 
REMARK       I    between atoms: C3_8  and  O3_38 
REMARK       I    between atoms: S1_9  and  N_19 
REMARK       I    between atoms: S1_9  and  O1S_55 
REMARK       I    between atoms: S1_9  and  O2S_49 
REMARK       I    between atoms: S1_9  and  O3S_17 
REMARK       I    between atoms: O6_12  and  S2_45 
REMARK       I    between atoms: O1S_14  and  S1_48 
REMARK       I    between atoms: O3S_16  and  S1_48 
REMARK       I    between atoms: N_19  and  C2_46 
REMARK       I    between atoms: O1_22  and  C1_24 
REMARK       I    between atoms: O1_22  and  C4_41 
REMARK       I    between atoms: N_23  and  C2_47 
REMARK       I    between atoms: N_23  and  S1_48 
REMARK       I    between atoms: O2S_25  and  S1_48 
REMARK       I    between atoms: C1_27  and  O4_44 
REMARK       I    between atoms: C3_34  and  O3_43 
REMARK       I    between atoms: C1_35  and  O1_36 
REMARK       I    between atoms: C5_37  and  C6_39 
REMARK       I    between atoms: O4_44  and  C4_54 
ROOT
ATOM      1  O3  SGN d 503      30.548  18.035 147.125  0.00  0.00    -0.391 OA
ATOM      2  O6  SGN d 503      33.041  21.937 146.534  0.00  0.00    -0.254 OA
ATOM      3  C6  SGN d 503      34.157  21.108 146.231  0.00  0.00     0.067 C 
ATOM      4  O1S SGN d 503      30.873  18.044 151.805  0.00  0.00    -0.296 OA
ATOM      5  C5  SGN d 503      33.853  19.746 146.827  0.00  0.00     0.091 C 
ATOM      6  O3S SGN d 503      29.356  17.907 149.929  0.00  0.00    -0.296 OA
ATOM      7  C3  SGN d 503      31.934  18.216 147.315  0.00  0.00     0.083 C 
ATOM      8  O4S SGN d 503      32.643  23.915 144.831  0.00  0.00    -0.572 OA
ATOM      9  N   SGN d 503      31.875  17.199 149.510  0.00  0.00    -0.210 NA
ATOM     10  O2S SGN d 503      30.125  15.880 151.012  0.00  0.00    -0.296 OA
ATOM     11  O5  SGN d 503      34.068  19.848 148.236  0.00  0.00    -0.350 OA
ATOM     12  O6S SGN d 503      32.255  24.366 147.183  0.00  0.00    -0.572 OA
ATOM     13  O5S SGN d 503      34.508  24.118 146.335  0.00  0.00    -0.572 OA
ATOM     14  C1  SGN d 503      33.721  18.689 148.989  0.00  0.00     0.147 C 
ATOM     15  O1  SGN d 503      34.501  17.572 148.573  0.00  0.00    -0.369 OA
ATOM     16  O4  SGN d 503      32.214  19.198 145.160  0.00  0.00    -0.348 OA
ATOM     17  C2  SGN d 503      32.242  18.398 148.790  0.00  0.00     0.081 C 
ATOM     18  S1  SGN d 503      30.498  17.257 150.611  0.00  0.00     0.156 S 
ATOM     19  S2  SGN d 503      33.113  23.662 146.209  0.00  0.00     0.251 S 
ATOM     20  C4  SGN d 503      32.387  19.445 146.554  0.00  0.00     0.095 C 
ATOM     21  H   SGN d 503      30.255  17.249 147.611  0.00  0.00     0.210 HD
ATOM     22  H   SGN d 503      35.047  21.512 146.665  0.00  0.00     0.080 H 
ATOM     23  H   SGN d 503      34.315  21.042 145.175  0.00  0.00     0.080 H 
ATOM     24  H   SGN d 503      31.115  18.944 151.536  0.00  0.00     0.231 HD
ATOM     25  H   SGN d 503      34.467  18.974 146.413  0.00  0.00     0.090 H 
ATOM     26  H   SGN d 503      29.605  18.808 149.669  0.00  0.00     0.231 HD
ATOM     27  H   SGN d 503      32.452  17.352 146.956  0.00  0.00     0.089 H 
ATOM     28  H   SGN d 503      32.687  16.919 150.060  0.00  0.00     0.140 HD
ATOM     29  H   SGN d 503      29.368  15.913 151.617  0.00  0.00     0.231 HD
ATOM     30  H   SGN d 503      33.919  18.865 150.026  0.00  0.00     0.131 H 
ATOM     31  H   SGN d 503      34.336  17.395 147.633  0.00  0.00     0.212 HD
ATOM     32  H   SGN d 503      31.678  19.227 149.165  0.00  0.00     0.076 H 
ATOM     33  H   SGN d 503      31.806  20.287 146.868  0.00  0.00     0.091 H 
ATOM     34  C4  SGN d 501      25.744  23.214 140.699  0.00  0.00     0.089 C 
ATOM     35  C6  SGN d 501      24.713  21.186 141.788  0.00  0.00     0.067 C 
ATOM     36  O6S SGN d 501      22.256  18.970 141.205  0.00  0.00    -0.572 OA
ATOM     37  S1  SGN d 501      29.895  24.523 138.318  0.00  0.00     0.156 S 
ATOM     38  O6  SGN d 501      24.756  19.887 141.201  0.00  0.00    -0.254 OA
ATOM     39  O5S SGN d 501      22.924  20.341 139.327  0.00  0.00    -0.572 OA
ATOM     40  O3S SGN d 501      28.757  24.611 137.376  0.00  0.00    -0.296 OA
ATOM     41  N   SGN d 501      29.379  23.726 139.814  0.00  0.00    -0.210 NA
ATOM     42  O1  SGN d 501      28.873  21.888 141.864  0.00  0.00    -0.348 OA
ATOM     43  C1  SGN d 501      28.217  21.723 140.608  0.00  0.00     0.150 C 
ATOM     44  C5  SGN d 501      26.004  21.942 141.496  0.00  0.00     0.090 C 
ATOM     45  C3  SGN d 501      27.056  23.967 140.519  0.00  0.00     0.083 C 
ATOM     46  O4S SGN d 501      23.753  18.077 139.527  0.00  0.00    -0.572 OA
ATOM     47  O3  SGN d 501      26.848  25.116 139.722  0.00  0.00    -0.391 OA
ATOM     48  S2  SGN d 501      23.366  19.295 140.278  0.00  0.00     0.251 S 
ATOM     49  C2  SGN d 501      28.093  23.056 139.867  0.00  0.00     0.081 C 
ATOM     50  O2S SGN d 501      30.379  25.888 138.629  0.00  0.00    -0.296 OA
ATOM     51  O4  SGN d 501      24.804  24.036 141.393  0.00  0.00    -0.390 OA
ATOM     52  O5  SGN d 501      26.929  21.122 140.775  0.00  0.00    -0.349 OA
ATOM     53  O1S SGN d 501      30.984  23.736 137.698  0.00  0.00    -0.296 OA
ATOM     54  H   SGN d 501      25.342  22.962 139.740  0.00  0.00     0.091 H 
ATOM     55  H   SGN d 501      23.885  21.731 141.382  0.00  0.00     0.080 H 
ATOM     56  H   SGN d 501      24.600  21.086 142.847  0.00  0.00     0.080 H 
ATOM     57  H   SGN d 501      28.437  23.718 137.170  0.00  0.00     0.231 HD
ATOM     58  H   SGN d 501      29.371  24.441 140.542  0.00  0.00     0.140 HD
ATOM     59  H   SGN d 501      28.821  21.068 140.015  0.00  0.00     0.131 H 
ATOM     60  H   SGN d 501      26.425  22.207 142.442  0.00  0.00     0.090 H 
ATOM     61  H   SGN d 501      27.418  24.274 141.479  0.00  0.00     0.089 H 
ATOM     62  H   SGN d 501      26.520  24.849 138.849  0.00  0.00     0.210 HD
ATOM     63  H   SGN d 501      27.764  22.842 138.872  0.00  0.00     0.076 H 
ATOM     64  H   SGN d 501      31.125  25.834 139.247  0.00  0.00     0.231 HD
ATOM     65  H   SGN d 501      25.161  24.269 142.264  0.00  0.00     0.210 HD
ATOM     66  H   SGN d 501      31.732  23.677 138.313  0.00  0.00     0.231 HD
ATOM     67  O2  IDS d 502      33.361  20.655 143.048  0.00  0.00    -0.244 OA
ATOM     68  C3  IDS d 502      31.178  21.329 142.314  0.00  0.00     0.094 C 
ATOM     69  O2S IDS d 502      33.907  18.059 142.886  0.00  0.00    -0.572 OA
ATOM     70  O1S IDS d 502      35.225  19.556 141.511  0.00  0.00    -0.572 OA
ATOM     71  O5  IDS d 502      30.081  20.015 144.554  0.00  0.00    -0.340 OA
ATOM     72  S   IDS d 502      34.569  19.384 142.827  0.00  0.00     0.252 S 
ATOM     73  C1  IDS d 502      31.497  20.218 144.474  0.00  0.00     0.161 C 
ATOM     74  O61 IDS d 502      26.927  19.790 143.799  0.00  0.00    -0.646 OA
ATOM     75  O62 IDS d 502      27.927  21.669 144.331  0.00  0.00    -0.646 OA
ATOM     76  C5  IDS d 502      29.273  19.957 143.362  0.00  0.00     0.152 C 
ATOM     77  O3  IDS d 502      31.730  21.544 141.032  0.00  0.00    -0.390 OA
ATOM     78  C6  IDS d 502      27.938  20.519 143.831  0.00  0.00     0.206 C 
ATOM     79  O3S IDS d 502      35.580  19.471 143.903  0.00  0.00    -0.572 OA
ATOM     80  C4  IDS d 502      29.760  20.813 142.176  0.00  0.00     0.103 C 
ATOM     81  C2  IDS d 502      31.986  20.286 143.045  0.00  0.00     0.134 C 
ATOM     82  H   IDS d 502      31.188  22.253 142.854  0.00  0.00     0.091 H 
ATOM     83  H   IDS d 502      31.683  21.161 144.944  0.00  0.00     0.133 H 
ATOM     84  H   IDS d 502      29.274  18.957 142.982  0.00  0.00     0.104 H 
ATOM     85  H   IDS d 502      31.726  20.711 140.533  0.00  0.00     0.210 HD
ATOM     86  H   IDS d 502      29.761  20.127 141.355  0.00  0.00     0.092 H 
ATOM     87  H   IDS d 502      31.874  19.339 142.561  0.00  0.00     0.097 H 
ENDROOT
TORSDOF 28
ENDMDL
MODEL 9
REMARK VINA RESULT:      -6.1      4.072      6.415
REMARK  0 active torsions:
REMARK  status: ('A' for Active; 'I' for Inactive)
REMARK       I    between atoms: O3_1  and  C3_18 
REMARK       I    between atoms: O6_2  and  C6_6 
REMARK       I    between atoms: O6_2  and  S2_52 
REMARK       I    between atoms: C4_3  and  O4_50 
REMARK       I    between atoms: C6_4  and  C5_31 
REMARK       I    between atoms: C6_4  and  O6_12 
REMARK       I    between atoms: C6_6  and  C5_15 
REMARK       I    between atoms: O2_7  and  C2_53 
REMARK       I    between atoms: O2_7  and  S_26 
REMARK       I    between atoms: C3_8  and  O3_38 
REMARK       I    between atoms: S1_9  and  N_19 
REMARK       I    between atoms: S1_9  and  O1S_55 
REMARK       I    between atoms: S1_9  and  O2S_49 
REMARK       I    between atoms: S1_9  and  O3S_17 
REMARK       I    between atoms: O6_12  and  S2_45 
REMARK       I    between atoms: O1S_14  and  S1_48 
REMARK       I    between atoms: O3S_16  and  S1_48 
REMARK       I    between atoms: N_19  and  C2_46 
REMARK       I    between atoms: O1_22  and  C1_24 
REMARK       I    between atoms: O1_22  and  C4_41 
REMARK       I    between atoms: N_23  and  C2_47 
REMARK       I    between atoms: N_23  and  S1_48 
REMARK       I    between atoms: O2S_25  and  S1_48 
REMARK       I    between atoms: C1_27  and  O4_44 
REMARK       I    between atoms: C3_34  and  O3_43 
REMARK       I    between atoms: C1_35  and  O1_36 
REMARK       I    between atoms: C5_37  and  C6_39 
REMARK       I    between atoms: O4_44  and  C4_54 
ROOT
ATOM      1  O3  SGN d 503      31.417  24.981 150.010  0.00  0.00    -0.391 OA
ATOM      2  O6  SGN d 503      34.506  25.994 146.660  0.00  0.00    -0.254 OA
ATOM      3  C6  SGN d 503      35.026  24.679 146.824  0.00  0.00     0.067 C 
ATOM      4  O1S SGN d 503      33.787  27.154 153.426  0.00  0.00    -0.296 OA
ATOM      5  C5  SGN d 503      34.594  24.217 148.203  0.00  0.00     0.091 C 
ATOM      6  O3S SGN d 503      31.640  26.937 152.338  0.00  0.00    -0.296 OA
ATOM      7  C3  SGN d 503      32.715  24.454 149.838  0.00  0.00     0.083 C 
ATOM      8  O4S SGN d 503      34.061  26.697 144.155  0.00  0.00    -0.572 OA
ATOM      9  N   SGN d 503      33.315  24.893 152.141  0.00  0.00    -0.210 NA
ATOM     10  O2S SGN d 503      32.100  25.690 154.364  0.00  0.00    -0.296 OA
ATOM     11  O5  SGN d 503      35.438  24.875 149.150  0.00  0.00    -0.350 OA
ATOM     12  O6S SGN d 503      34.940  28.390 145.655  0.00  0.00    -0.572 OA
ATOM     13  O5S SGN d 503      36.352  26.587 144.875  0.00  0.00    -0.572 OA
ATOM     14  C1  SGN d 503      35.106  24.652 150.518  0.00  0.00     0.147 C 
ATOM     15  O1  SGN d 503      35.202  23.266 150.834  0.00  0.00    -0.369 OA
ATOM     16  O4  SGN d 503      32.304  23.891 147.558  0.00  0.00    -0.348 OA
ATOM     17  C2  SGN d 503      33.691  25.150 150.768  0.00  0.00     0.081 C 
ATOM     18  S1  SGN d 503      32.682  26.224 153.110  0.00  0.00     0.156 S 
ATOM     19  S2  SGN d 503      34.986  26.963 145.276  0.00  0.00     0.251 S 
ATOM     20  C4  SGN d 503      33.153  24.663 148.403  0.00  0.00     0.095 C 
ATOM     21  H   SGN d 503      31.133  24.848 150.927  0.00  0.00     0.210 HD
ATOM     22  H   SGN d 503      36.094  24.692 146.756  0.00  0.00     0.080 H 
ATOM     23  H   SGN d 503      34.663  24.021 146.063  0.00  0.00     0.080 H 
ATOM     24  H   SGN d 503      34.164  27.500 152.602  0.00  0.00     0.231 HD
ATOM     25  H   SGN d 503      34.665  23.155 148.318  0.00  0.00     0.090 H 
ATOM     26  H   SGN d 503      32.026  27.285 151.519  0.00  0.00     0.231 HD
ATOM     27  H   SGN d 503      32.701  23.409 150.067  0.00  0.00     0.089 H 
ATOM     28  H   SGN d 503      34.145  24.542 152.619  0.00  0.00     0.140 HD
ATOM     29  H   SGN d 503      31.752  26.422 154.897  0.00  0.00     0.231 HD
ATOM     30  H   SGN d 503      35.792  25.184 151.142  0.00  0.00     0.131 H 
ATOM     31  H   SGN d 503      34.585  22.765 150.277  0.00  0.00     0.212 HD
ATOM     32  H   SGN d 503      33.662  26.203 150.580  0.00  0.00     0.076 H 
ATOM     33  H   SGN d 503      33.087  25.704 148.165  0.00  0.00     0.091 H 
ATOM     34  C4  SGN d 501      26.242  27.861 142.519  0.00  0.00     0.089 C 
ATOM     35  C6  SGN d 501      25.207  27.584 144.803  0.00  0.00     0.067 C 
ATOM     36  O6S SGN d 501      22.175  27.107 146.170  0.00  0.00    -0.572 OA
ATOM     37  S1  SGN d 501      29.057  25.328 139.315  0.00  0.00     0.156 S 
ATOM     38  O6  SGN d 501      24.554  26.385 145.215  0.00  0.00    -0.254 OA
ATOM     39  O5S SGN d 501      22.340  26.740 143.785  0.00  0.00    -0.572 OA
ATOM     40  O3S SGN d 501      27.717  25.527 138.718  0.00  0.00    -0.296 OA
ATOM     41  N   SGN d 501      29.037  25.812 141.018  0.00  0.00    -0.210 NA
ATOM     42  O1  SGN d 501      28.931  25.863 143.816  0.00  0.00    -0.348 OA
ATOM     43  C1  SGN d 501      27.769  25.474 143.085  0.00  0.00     0.150 C 
ATOM     44  C5  SGN d 501      26.398  27.257 143.909  0.00  0.00     0.090 C 
ATOM     45  C3  SGN d 501      27.500  27.577 141.708  0.00  0.00     0.083 C 
ATOM     46  O4S SGN d 501      22.376  24.858 145.304  0.00  0.00    -0.572 OA
ATOM     47  O3  SGN d 501      27.347  28.070 140.391  0.00  0.00    -0.391 OA
ATOM     48  S2  SGN d 501      22.790  26.268 145.115  0.00  0.00     0.251 S 
ATOM     49  C2  SGN d 501      27.771  26.075 141.678  0.00  0.00     0.081 C 
ATOM     50  O2S SGN d 501      30.047  26.150 138.580  0.00  0.00    -0.296 OA
ATOM     51  O4  SGN d 501      26.041  29.271 142.625  0.00  0.00    -0.390 OA
ATOM     52  O5  SGN d 501      26.575  25.842 143.784  0.00  0.00    -0.349 OA
ATOM     53  O1S SGN d 501      29.427  23.898 139.219  0.00  0.00    -0.296 OA
ATOM     54  H   SGN d 501      25.395  27.426 142.030  0.00  0.00     0.091 H 
ATOM     55  H   SGN d 501      24.516  28.195 144.260  0.00  0.00     0.080 H 
ATOM     56  H   SGN d 501      25.555  28.107 145.669  0.00  0.00     0.080 H 
ATOM     57  H   SGN d 501      27.067  24.990 139.197  0.00  0.00     0.231 HD
ATOM     58  H   SGN d 501      29.590  26.667 141.089  0.00  0.00     0.140 HD
ATOM     59  H   SGN d 501      27.790  24.409 142.991  0.00  0.00     0.131 H 
ATOM     60  H   SGN d 501      27.260  27.684 144.377  0.00  0.00     0.090 H 
ATOM     61  H   SGN d 501      28.331  28.071 142.166  0.00  0.00     0.089 H 
ATOM     62  H   SGN d 501      26.595  27.628 139.966  0.00  0.00     0.210 HD
ATOM     63  H   SGN d 501      26.982  25.608 141.127  0.00  0.00     0.076 H 
ATOM     64  H   SGN d 501      30.927  26.021 138.970  0.00  0.00     0.231 HD
ATOM     65  H   SGN d 501      26.805  29.674 143.067  0.00  0.00     0.210 HD
ATOM     66  H   SGN d 501      30.306  23.764 139.610  0.00  0.00     0.231 HD
ATOM     67  O2  IDS d 502      32.790  23.207 144.875  0.00  0.00    -0.244 OA
ATOM     68  C3  IDS d 502      30.867  24.469 144.194  0.00  0.00     0.094 C 
ATOM     69  O2S IDS d 502      32.320  21.070 146.384  0.00  0.00    -0.572 OA
ATOM     70  O1S IDS d 502      33.291  20.690 144.197  0.00  0.00    -0.572 OA
ATOM     71  O5  IDS d 502      30.526  25.288 146.870  0.00  0.00    -0.340 OA
ATOM     72  S   IDS d 502      33.278  21.584 145.377  0.00  0.00     0.252 S 
ATOM     73  C1  IDS d 502      31.735  24.626 146.479  0.00  0.00     0.161 C 
ATOM     74  O61 IDS d 502      27.491  26.453 146.900  0.00  0.00    -0.646 OA
ATOM     75  O62 IDS d 502      29.178  27.457 145.919  0.00  0.00    -0.646 OA
ATOM     76  C5  IDS d 502      29.302  25.087 146.138  0.00  0.00     0.152 C 
ATOM     77  O3  IDS d 502      30.822  23.677 143.026  0.00  0.00    -0.390 OA
ATOM     78  C6  IDS d 502      28.586  26.420 146.303  0.00  0.00     0.206 C 
ATOM     79  O3S IDS d 502      34.630  21.638 145.976  0.00  0.00    -0.572 OA
ATOM     80  C4  IDS d 502      29.456  24.813 144.629  0.00  0.00     0.103 C 
ATOM     81  C2  IDS d 502      31.524  23.694 145.307  0.00  0.00     0.134 C 
ATOM     82  H   IDS d 502      31.420  25.362 143.985  0.00  0.00     0.091 H 
ATOM     83  H   IDS d 502      32.410  25.401 146.182  0.00  0.00     0.133 H 
ATOM     84  H   IDS d 502      28.804  24.217 146.514  0.00  0.00     0.104 H 
ATOM     85  H   IDS d 502      30.322  22.864 143.204  0.00  0.00     0.210 HD
ATOM     86  H   IDS d 502      28.864  23.936 144.472  0.00  0.00     0.092 H 
ATOM     87  H   IDS d 502      30.903  22.868 145.587  0.00  0.00     0.097 H 
ENDROOT
TORSDOF 28
ENDMDL
MODEL 10
REMARK VINA RESULT:      -6.1      4.303     10.263
REMARK  0 active torsions:
REMARK  status: ('A' for Active; 'I' for Inactive)
REMARK       I    between atoms: O3_1  and  C3_18 
REMARK       I    between atoms: O6_2  and  C6_6 
REMARK       I    between atoms: O6_2  and  S2_52 
REMARK       I    between atoms: C4_3  and  O4_50 
REMARK       I    between atoms: C6_4  and  C5_31 
REMARK       I    between atoms: C6_4  and  O6_12 
REMARK       I    between atoms: C6_6  and  C5_15 
REMARK       I    between atoms: O2_7  and  C2_53 
REMARK       I    between atoms: O2_7  and  S_26 
REMARK       I    between atoms: C3_8  and  O3_38 
REMARK       I    between atoms: S1_9  and  N_19 
REMARK       I    between atoms: S1_9  and  O1S_55 
REMARK       I    between atoms: S1_9  and  O2S_49 
REMARK       I    between atoms: S1_9  and  O3S_17 
REMARK       I    between atoms: O6_12  and  S2_45 
REMARK       I    between atoms: O1S_14  and  S1_48 
REMARK       I    between atoms: O3S_16  and  S1_48 
REMARK       I    between atoms: N_19  and  C2_46 
REMARK       I    between atoms: O1_22  and  C1_24 
REMARK       I    between atoms: O1_22  and  C4_41 
REMARK       I    between atoms: N_23  and  C2_47 
REMARK       I    between atoms: N_23  and  S1_48 
REMARK       I    between atoms: O2S_25  and  S1_48 
REMARK       I    between atoms: C1_27  and  O4_44 
REMARK       I    between atoms: C3_34  and  O3_43 
REMARK       I    between atoms: C1_35  and  O1_36 
REMARK       I    between atoms: C5_37  and  C6_39 
REMARK       I    between atoms: O4_44  and  C4_54 
ROOT
ATOM      1  O3  SGN d 503      28.589  26.448 142.169  0.00  0.00    -0.391 OA
ATOM      2  O6  SGN d 503      27.185  27.021 146.584  0.00  0.00    -0.254 OA
ATOM      3  C6  SGN d 503      26.454  25.808 146.446  0.00  0.00     0.067 C 
ATOM      4  O1S SGN d 503      25.451  29.424 140.350  0.00  0.00    -0.296 OA
ATOM      5  C5  SGN d 503      26.258  25.593 144.957  0.00  0.00     0.091 C 
ATOM      6  O3S SGN d 503      27.793  28.834 140.444  0.00  0.00    -0.296 OA
ATOM      7  C3  SGN d 503      27.390  25.999 142.764  0.00  0.00     0.083 C 
ATOM      8  O4S SGN d 503      28.645  27.184 148.778  0.00  0.00    -0.572 OA
ATOM      9  N   SGN d 503      26.034  26.926 140.986  0.00  0.00    -0.210 NA
ATOM     10  O2S SGN d 503      26.420  28.046 138.609  0.00  0.00    -0.296 OA
ATOM     11  O5  SGN d 503      25.226  26.487 144.537  0.00  0.00    -0.350 OA
ATOM     12  O6S SGN d 503      27.525  29.200 148.024  0.00  0.00    -0.572 OA
ATOM     13  O5S SGN d 503      26.263  27.393 149.025  0.00  0.00    -0.572 OA
ATOM     14  C1  SGN d 503      24.978  26.510 143.133  0.00  0.00     0.147 C 
ATOM     15  O1  SGN d 503      24.565  25.225 142.679  0.00  0.00    -0.369 OA
ATOM     16  O4  SGN d 503      28.546  24.971 144.578  0.00  0.00    -0.348 OA
ATOM     17  C2  SGN d 503      26.249  26.937 142.416  0.00  0.00     0.081 C 
ATOM     18  S1  SGN d 503      26.443  28.368 140.055  0.00  0.00     0.156 S 
ATOM     19  S2  SGN d 503      27.415  27.735 148.173  0.00  0.00     0.251 S 
ATOM     20  C4  SGN d 503      27.564  25.957 144.268  0.00  0.00     0.095 C 
ATOM     21  H   SGN d 503      28.481  26.476 141.206  0.00  0.00     0.210 HD
ATOM     22  H   SGN d 503      25.506  25.890 146.936  0.00  0.00     0.080 H 
ATOM     23  H   SGN d 503      26.977  24.987 146.892  0.00  0.00     0.080 H 
ATOM     24  H   SGN d 503      25.471  29.630 141.298  0.00  0.00     0.231 HD
ATOM     25  H   SGN d 503      25.992  24.583 144.723  0.00  0.00     0.090 H 
ATOM     26  H   SGN d 503      27.802  29.043 141.392  0.00  0.00     0.231 HD
ATOM     27  H   SGN d 503      27.162  25.021 142.395  0.00  0.00     0.089 H 
ATOM     28  H   SGN d 503      25.044  26.740 140.833  0.00  0.00     0.140 HD
ATOM     29  H   SGN d 503      26.645  28.839 138.097  0.00  0.00     0.231 HD
ATOM     30  H   SGN d 503      24.193  27.206 142.922  0.00  0.00     0.131 H 
ATOM     31  H   SGN d 503      25.265  24.578 142.860  0.00  0.00     0.212 HD
ATOM     32  H   SGN d 503      26.503  27.927 142.732  0.00  0.00     0.076 H 
ATOM     33  H   SGN d 503      27.869  26.923 144.613  0.00  0.00     0.091 H 
ATOM     34  C4  SGN d 501      36.580  27.397 147.309  0.00  0.00     0.089 C 
ATOM     35  C6  SGN d 501      36.620  27.494 144.789  0.00  0.00     0.067 C 
ATOM     36  O6S SGN d 501      38.801  27.062 142.270  0.00  0.00    -0.572 OA
ATOM     37  S1  SGN d 501      34.847  24.511 150.953  0.00  0.00     0.156 S 
ATOM     38  O6  SGN d 501      36.883  26.352 143.976  0.00  0.00    -0.254 OA
ATOM     39  O5S SGN d 501      39.500  26.248 144.439  0.00  0.00    -0.572 OA
ATOM     40  O3S SGN d 501      36.327  24.486 150.987  0.00  0.00    -0.296 OA
ATOM     41  N   SGN d 501      34.292  25.317 149.476  0.00  0.00    -0.210 NA
ATOM     42  O1  SGN d 501      33.337  25.905 146.911  0.00  0.00    -0.348 OA
ATOM     43  C1  SGN d 501      34.617  25.293 147.050  0.00  0.00     0.150 C 
ATOM     44  C5  SGN d 501      35.822  27.091 146.024  0.00  0.00     0.090 C 
ATOM     45  C3  SGN d 501      35.696  27.058 148.503  0.00  0.00     0.083 C 
ATOM     46  O4S SGN d 501      38.613  24.708 142.797  0.00  0.00    -0.572 OA
ATOM     47  O3  SGN d 501      36.408  27.270 149.706  0.00  0.00    -0.391 OA
ATOM     48  S2  SGN d 501      38.515  26.082 143.345  0.00  0.00     0.251 S 
ATOM     49  C2  SGN d 501      35.238  25.605 148.413  0.00  0.00     0.081 C 
ATOM     50  O2S SGN d 501      34.343  25.247 152.135  0.00  0.00    -0.296 OA
ATOM     51  O4  SGN d 501      36.933  28.782 147.344  0.00  0.00    -0.390 OA
ATOM     52  O5  SGN d 501      35.498  25.697 145.996  0.00  0.00    -0.349 OA
ATOM     53  O1S SGN d 501      34.334  23.123 150.973  0.00  0.00    -0.296 OA
ATOM     54  H   SGN d 501      37.475  26.812 147.348  0.00  0.00     0.091 H 
ATOM     55  H   SGN d 501      37.547  27.932 145.095  0.00  0.00     0.080 H 
ATOM     56  H   SGN d 501      36.051  28.202 144.223  0.00  0.00     0.080 H 
ATOM     57  H   SGN d 501      36.660  24.004 150.214  0.00  0.00     0.231 HD
ATOM     58  H   SGN d 501      33.886  26.208 149.761  0.00  0.00     0.140 HD
ATOM     59  H   SGN d 501      34.476  24.235 146.984  0.00  0.00     0.131 H 
ATOM     60  H   SGN d 501      34.921  27.667 146.009  0.00  0.00     0.090 H 
ATOM     61  H   SGN d 501      34.836  27.695 148.494  0.00  0.00     0.089 H 
ATOM     62  H   SGN d 501      37.191  26.697 149.724  0.00  0.00     0.210 HD
ATOM     63  H   SGN d 501      36.098  24.980 148.527  0.00  0.00     0.076 H 
ATOM     64  H   SGN d 501      33.373  25.266 152.115  0.00  0.00     0.231 HD
ATOM     65  H   SGN d 501      36.127  29.320 147.309  0.00  0.00     0.210 HD
ATOM     66  H   SGN d 501      33.363  23.136 150.950  0.00  0.00     0.231 HD
ATOM     67  O2  IDS d 502      29.017  23.814 147.096  0.00  0.00    -0.244 OA
ATOM     68  C3  IDS d 502      31.219  24.767 147.133  0.00  0.00     0.094 C 
ATOM     69  O2S IDS d 502      28.558  21.985 145.224  0.00  0.00    -0.572 OA
ATOM     70  O1S IDS d 502      28.444  21.260 147.533  0.00  0.00    -0.572 OA
ATOM     71  O5  IDS d 502      30.637  26.065 144.699  0.00  0.00    -0.340 OA
ATOM     72  S   IDS d 502      28.140  22.364 146.594  0.00  0.00     0.252 S 
ATOM     73  C1  IDS d 502      29.583  25.434 145.437  0.00  0.00     0.161 C 
ATOM     74  O61 IDS d 502      33.571  26.975 143.635  0.00  0.00    -0.646 OA
ATOM     75  O62 IDS d 502      32.551  27.895 145.345  0.00  0.00    -0.646 OA
ATOM     76  C5  IDS d 502      32.004  25.630 144.843  0.00  0.00     0.152 C 
ATOM     77  O3  IDS d 502      31.585  23.760 148.054  0.00  0.00    -0.390 OA
ATOM     78  C6  IDS d 502      32.792  26.911 144.607  0.00  0.00     0.206 C 
ATOM     79  O3S IDS d 502      26.687  22.638 146.601  0.00  0.00    -0.572 OA
ATOM     80  C4  IDS d 502      32.394  25.079 146.228  0.00  0.00     0.103 C 
ATOM     81  C2  IDS d 502      30.082  24.277 146.273  0.00  0.00     0.134 C 
ATOM     82  H   IDS d 502      30.925  25.641 147.676  0.00  0.00     0.091 H 
ATOM     83  H   IDS d 502      29.194  26.186 146.091  0.00  0.00     0.133 H 
ATOM     84  H   IDS d 502      32.187  24.815 144.174  0.00  0.00     0.104 H 
ATOM     85  H   IDS d 502      31.854  22.962 147.571  0.00  0.00     0.210 HD
ATOM     86  H   IDS d 502      32.864  24.145 146.003  0.00  0.00     0.092 H 
ATOM     87  H   IDS d 502      30.421  23.477 145.648  0.00  0.00     0.097 H 
ENDROOT
TORSDOF 28
ENDMDL
MODEL 11
REMARK VINA RESULT:      -6.1      3.106      6.914
REMARK  0 active torsions:
REMARK  status: ('A' for Active; 'I' for Inactive)
REMARK       I    between atoms: O3_1  and  C3_18 
REMARK       I    between atoms: O6_2  and  C6_6 
REMARK       I    between atoms: O6_2  and  S2_52 
REMARK       I    between atoms: C4_3  and  O4_50 
REMARK       I    between atoms: C6_4  and  C5_31 
REMARK       I    between atoms: C6_4  and  O6_12 
REMARK       I    between atoms: C6_6  and  C5_15 
REMARK       I    between atoms: O2_7  and  C2_53 
REMARK       I    between atoms: O2_7  and  S_26 
REMARK       I    between atoms: C3_8  and  O3_38 
REMARK       I    between atoms: S1_9  and  N_19 
REMARK       I    between atoms: S1_9  and  O1S_55 
REMARK       I    between atoms: S1_9  and  O2S_49 
REMARK       I    between atoms: S1_9  and  O3S_17 
REMARK       I    between atoms: O6_12  and  S2_45 
REMARK       I    between atoms: O1S_14  and  S1_48 
REMARK       I    between atoms: O3S_16  and  S1_48 
REMARK       I    between atoms: N_19  and  C2_46 
REMARK       I    between atoms: O1_22  and  C1_24 
REMARK       I    between atoms: O1_22  and  C4_41 
REMARK       I    between atoms: N_23  and  C2_47 
REMARK       I    between atoms: N_23  and  S1_48 
REMARK       I    between atoms: O2S_25  and  S1_48 
REMARK       I    between atoms: C1_27  and  O4_44 
REMARK       I    between atoms: C3_34  and  O3_43 
REMARK       I    between atoms: C1_35  and  O1_36 
REMARK       I    between atoms: C5_37  and  C6_39 
REMARK       I    between atoms: O4_44  and  C4_54 
ROOT
ATOM      1  O3  SGN d 503      29.463  19.596 143.260  0.00  0.00    -0.391 OA
ATOM      2  O6  SGN d 503      29.205  20.837 147.752  0.00  0.00    -0.254 OA
ATOM      3  C6  SGN d 503      30.609  20.621 147.832  0.00  0.00     0.067 C 
ATOM      4  O1S SGN d 503      27.988  15.199 143.962  0.00  0.00    -0.296 OA
ATOM      5  C5  SGN d 503      30.967  19.706 146.675  0.00  0.00     0.091 C 
ATOM      6  O3S SGN d 503      27.652  17.214 142.672  0.00  0.00    -0.296 OA
ATOM      7  C3  SGN d 503      30.293  19.182 144.324  0.00  0.00     0.083 C 
ATOM      8  O4S SGN d 503      28.381  23.119 148.796  0.00  0.00    -0.572 OA
ATOM      9  N   SGN d 503      30.045  16.844 143.750  0.00  0.00    -0.210 NA
ATOM     10  O2S SGN d 503      29.000  15.413 141.772  0.00  0.00    -0.296 OA
ATOM     11  O5  SGN d 503      30.550  18.389 147.038  0.00  0.00    -0.350 OA
ATOM     12  O6S SGN d 503      26.978  21.166 149.121  0.00  0.00    -0.572 OA
ATOM     13  O5S SGN d 503      29.065  21.394 150.325  0.00  0.00    -0.572 OA
ATOM     14  C1  SGN d 503      30.702  17.402 146.021  0.00  0.00     0.147 C 
ATOM     15  O1  SGN d 503      32.072  17.271 145.654  0.00  0.00    -0.369 OA
ATOM     16  O4  SGN d 503      30.707  21.425 145.019  0.00  0.00    -0.348 OA
ATOM     17  C2  SGN d 503      29.872  17.809 144.814  0.00  0.00     0.081 C 
ATOM     18  S1  SGN d 503      28.611  16.137 143.005  0.00  0.00     0.156 S 
ATOM     19  S2  SGN d 503      28.367  21.664 149.057  0.00  0.00     0.251 S 
ATOM     20  C4  SGN d 503      30.180  20.176 145.461  0.00  0.00     0.095 C 
ATOM     21  H   SGN d 503      29.533  18.962 142.530  0.00  0.00     0.210 HD
ATOM     22  H   SGN d 503      30.860  20.156 148.762  0.00  0.00     0.080 H 
ATOM     23  H   SGN d 503      31.147  21.544 147.777  0.00  0.00     0.080 H 
ATOM     24  H   SGN d 503      27.735  15.678 144.767  0.00  0.00     0.231 HD
ATOM     25  H   SGN d 503      32.015  19.717 146.457  0.00  0.00     0.090 H 
ATOM     26  H   SGN d 503      27.401  17.685 143.482  0.00  0.00     0.231 HD
ATOM     27  H   SGN d 503      31.305  19.134 143.979  0.00  0.00     0.089 H 
ATOM     28  H   SGN d 503      30.596  16.075 144.129  0.00  0.00     0.140 HD
ATOM     29  H   SGN d 503      28.212  15.024 141.362  0.00  0.00     0.231 HD
ATOM     30  H   SGN d 503      30.365  16.456 146.389  0.00  0.00     0.131 H 
ATOM     31  H   SGN d 503      32.398  18.120 145.316  0.00  0.00     0.212 HD
ATOM     32  H   SGN d 503      28.842  17.842 145.102  0.00  0.00     0.076 H 
ATOM     33  H   SGN d 503      29.152  20.273 145.743  0.00  0.00     0.091 H 
ATOM     34  C4  SGN d 501      25.297  28.188 143.323  0.00  0.00     0.089 C 
ATOM     35  C6  SGN d 501      25.337  26.763 141.243  0.00  0.00     0.067 C 
ATOM     36  O6S SGN d 501      25.065  27.130 137.914  0.00  0.00    -0.572 OA
ATOM     37  S1  SGN d 501      28.407  29.920 146.777  0.00  0.00     0.156 S 
ATOM     38  O6  SGN d 501      26.342  26.890 140.239  0.00  0.00    -0.254 OA
ATOM     39  O5S SGN d 501      25.432  29.155 139.184  0.00  0.00    -0.572 OA
ATOM     40  O3S SGN d 501      27.875  31.062 146.000  0.00  0.00    -0.296 OA
ATOM     41  N   SGN d 501      27.955  28.396 145.998  0.00  0.00    -0.210 NA
ATOM     42  O1  SGN d 501      27.915  26.029 144.502  0.00  0.00    -0.348 OA
ATOM     43  C1  SGN d 501      27.994  27.279 143.819  0.00  0.00     0.150 C 
ATOM     44  C5  SGN d 501      25.938  26.997 142.624  0.00  0.00     0.090 C 
ATOM     45  C3  SGN d 501      25.873  28.312 144.728  0.00  0.00     0.083 C 
ATOM     46  O4S SGN d 501      27.283  28.084 138.054  0.00  0.00    -0.572 OA
ATOM     47  O3  SGN d 501      25.341  29.455 145.369  0.00  0.00    -0.391 OA
ATOM     48  S2  SGN d 501      26.017  27.854 138.789  0.00  0.00     0.251 S 
ATOM     49  C2  SGN d 501      27.395  28.409 144.658  0.00  0.00     0.081 C 
ATOM     50  O2S SGN d 501      27.848  29.958 148.149  0.00  0.00    -0.296 OA
ATOM     51  O4  SGN d 501      23.882  28.003 143.394  0.00  0.00    -0.390 OA
ATOM     52  O5  SGN d 501      27.351  27.210 142.542  0.00  0.00    -0.349 OA
ATOM     53  O1S SGN d 501      29.884  30.016 146.839  0.00  0.00    -0.296 OA
ATOM     54  H   SGN d 501      25.502  29.082 142.772  0.00  0.00     0.091 H 
ATOM     55  H   SGN d 501      24.567  27.485 141.066  0.00  0.00     0.080 H 
ATOM     56  H   SGN d 501      24.928  25.775 141.203  0.00  0.00     0.080 H 
ATOM     57  H   SGN d 501      28.241  31.040 145.102  0.00  0.00     0.231 HD
ATOM     58  H   SGN d 501      27.265  27.948 146.602  0.00  0.00     0.140 HD
ATOM     59  H   SGN d 501      29.030  27.495 143.663  0.00  0.00     0.131 H 
ATOM     60  H   SGN d 501      25.743  26.114 143.197  0.00  0.00     0.090 H 
ATOM     61  H   SGN d 501      25.606  27.443 145.294  0.00  0.00     0.089 H 
ATOM     62  H   SGN d 501      25.578  30.248 144.864  0.00  0.00     0.210 HD
ATOM     63  H   SGN d 501      27.645  29.333 144.180  0.00  0.00     0.076 H 
ATOM     64  H   SGN d 501      28.195  29.210 148.661  0.00  0.00     0.231 HD
ATOM     65  H   SGN d 501      23.687  27.194 143.892  0.00  0.00     0.210 HD
ATOM     66  H   SGN d 501      30.236  29.269 147.348  0.00  0.00     0.231 HD
ATOM     67  O2  IDS d 502      31.457  23.593 146.643  0.00  0.00    -0.244 OA
ATOM     68  C3  IDS d 502      29.749  24.948 145.641  0.00  0.00     0.094 C 
ATOM     69  O2S IDS d 502      33.429  22.812 145.042  0.00  0.00    -0.572 OA
ATOM     70  O1S IDS d 502      34.011  24.275 146.884  0.00  0.00    -0.572 OA
ATOM     71  O5  IDS d 502      28.905  22.695 144.170  0.00  0.00    -0.340 OA
ATOM     72  S   IDS d 502      33.156  23.143 146.461  0.00  0.00     0.252 S 
ATOM     73  C1  IDS d 502      29.841  22.533 145.242  0.00  0.00     0.161 C 
ATOM     74  O61 IDS d 502      27.025  23.994 141.856  0.00  0.00    -0.646 OA
ATOM     75  O62 IDS d 502      26.458  23.879 143.973  0.00  0.00    -0.646 OA
ATOM     76  C5  IDS d 502      28.787  23.952 143.474  0.00  0.00     0.152 C 
ATOM     77  O3  IDS d 502      30.491  26.085 146.031  0.00  0.00    -0.390 OA
ATOM     78  C6  IDS d 502      27.321  23.978 143.068  0.00  0.00     0.206 C 
ATOM     79  O3S IDS d 502      33.446  21.960 147.299  0.00  0.00    -0.572 OA
ATOM     80  C4  IDS d 502      29.072  25.215 144.311  0.00  0.00     0.103 C 
ATOM     81  C2  IDS d 502      30.677  23.772 145.466  0.00  0.00     0.134 C 
ATOM     82  H   IDS d 502      29.019  24.736 146.394  0.00  0.00     0.091 H 
ATOM     83  H   IDS d 502      29.254  22.354 146.118  0.00  0.00     0.133 H 
ATOM     84  H   IDS d 502      29.512  23.990 142.687  0.00  0.00     0.104 H 
ATOM     85  H   IDS d 502      31.156  26.285 145.354  0.00  0.00     0.210 HD
ATOM     86  H   IDS d 502      29.773  25.759 143.714  0.00  0.00     0.092 H 
ATOM     87  H   IDS d 502      31.326  23.947 144.633  0.00  0.00     0.097 H 
ENDROOT
TORSDOF 28
ENDMDL
MODEL 12
REMARK VINA RESULT:      -6.1      3.753      9.462
REMARK  0 active torsions:
REMARK  status: ('A' for Active; 'I' for Inactive)
REMARK       I    between atoms: O3_1  and  C3_18 
REMARK       I    between atoms: O6_2  and  C6_6 
REMARK       I    between atoms: O6_2  and  S2_52 
REMARK       I    between atoms: C4_3  and  O4_50 
REMARK       I    between atoms: C6_4  and  C5_31 
REMARK       I    between atoms: C6_4  and  O6_12 
REMARK       I    between atoms: C6_6  and  C5_15 
REMARK       I    between atoms: O2_7  and  C2_53 
REMARK       I    between atoms: O2_7  and  S_26 
REMARK       I    between atoms: C3_8  and  O3_38 
REMARK       I    between atoms: S1_9  and  N_19 
REMARK       I    between atoms: S1_9  and  O1S_55 
REMARK       I    between atoms: S1_9  and  O2S_49 
REMARK       I    between atoms: S1_9  and  O3S_17 
REMARK       I    between atoms: O6_12  and  S2_45 
REMARK       I    between atoms: O1S_14  and  S1_48 
REMARK       I    between atoms: O3S_16  and  S1_48 
REMARK       I    between atoms: N_19  and  C2_46 
REMARK       I    between atoms: O1_22  and  C1_24 
REMARK       I    between atoms: O1_22  and  C4_41 
REMARK       I    between atoms: N_23  and  C2_47 
REMARK       I    between atoms: N_23  and  S1_48 
REMARK       I    between atoms: O2S_25  and  S1_48 
REMARK       I    between atoms: C1_27  and  O4_44 
REMARK       I    between atoms: C3_34  and  O3_43 
REMARK       I    between atoms: C1_35  and  O1_36 
REMARK       I    between atoms: C5_37  and  C6_39 
REMARK       I    between atoms: O4_44  and  C4_54 
ROOT
ATOM      1  O3  SGN d 503      27.924  24.688 149.856  0.00  0.00    -0.391 OA
ATOM      2  O6  SGN d 503      27.060  28.402 147.163  0.00  0.00    -0.254 OA
ATOM      3  C6  SGN d 503      28.243  28.988 147.694  0.00  0.00     0.067 C 
ATOM      4  O1S SGN d 503      24.902  25.914 153.229  0.00  0.00    -0.296 OA
ATOM      5  C5  SGN d 503      28.525  28.273 149.002  0.00  0.00     0.091 C 
ATOM      6  O3S SGN d 503      25.595  24.136 151.746  0.00  0.00    -0.296 OA
ATOM      7  C3  SGN d 503      28.285  26.032 150.090  0.00  0.00     0.083 C 
ATOM      8  O4S SGN d 503      26.853  28.529 144.534  0.00  0.00    -0.572 OA
ATOM      9  N   SGN d 503      27.388  25.996 152.337  0.00  0.00    -0.210 NA
ATOM     10  O2S SGN d 503      26.410  24.195 154.027  0.00  0.00    -0.296 OA
ATOM     11  O5  SGN d 503      27.607  28.787 149.969  0.00  0.00    -0.350 OA
ATOM     12  O6S SGN d 503      24.828  28.840 145.835  0.00  0.00    -0.572 OA
ATOM     13  O5S SGN d 503      26.521  30.569 145.763  0.00  0.00    -0.572 OA
ATOM     14  C1  SGN d 503      27.643  28.149 151.242  0.00  0.00     0.147 C 
ATOM     15  O1  SGN d 503      28.930  28.295 151.836  0.00  0.00    -0.369 OA
ATOM     16  O4  SGN d 503      29.271  26.257 147.931  0.00  0.00    -0.348 OA
ATOM     17  C2  SGN d 503      27.314  26.675 151.063  0.00  0.00     0.081 C 
ATOM     18  S1  SGN d 503      26.016  25.016 152.859  0.00  0.00     0.156 S 
ATOM     19  S2  SGN d 503      26.277  29.116 145.762  0.00  0.00     0.251 S 
ATOM     20  C4  SGN d 503      28.258  26.791 148.779  0.00  0.00     0.095 C 
ATOM     21  H   SGN d 503      27.940  24.199 150.693  0.00  0.00     0.210 HD
ATOM     22  H   SGN d 503      28.092  30.033 147.869  0.00  0.00     0.080 H 
ATOM     23  H   SGN d 503      29.063  28.891 147.014  0.00  0.00     0.080 H 
ATOM     24  H   SGN d 503      24.648  26.449 152.460  0.00  0.00     0.231 HD
ATOM     25  H   SGN d 503      29.532  28.415 149.336  0.00  0.00     0.090 H 
ATOM     26  H   SGN d 503      25.338  24.679 150.984  0.00  0.00     0.231 HD
ATOM     27  H   SGN d 503      29.268  26.061 150.509  0.00  0.00     0.089 H 
ATOM     28  H   SGN d 503      27.535  26.710 153.050  0.00  0.00     0.140 HD
ATOM     29  H   SGN d 503      25.656  23.656 154.314  0.00  0.00     0.231 HD
ATOM     30  H   SGN d 503      26.924  28.604 151.890  0.00  0.00     0.131 H 
ATOM     31  H   SGN d 503      29.598  27.887 151.264  0.00  0.00     0.212 HD
ATOM     32  H   SGN d 503      26.321  26.592 150.671  0.00  0.00     0.076 H 
ATOM     33  H   SGN d 503      27.291  26.688 148.333  0.00  0.00     0.091 H 
ATOM     34  C4  SGN d 501      27.085  21.288 140.972  0.00  0.00     0.089 C 
ATOM     35  C6  SGN d 501      27.119  19.749 142.970  0.00  0.00     0.067 C 
ATOM     36  O6S SGN d 501      27.781  16.533 143.680  0.00  0.00    -0.572 OA
ATOM     37  S1  SGN d 501      29.696  25.042 139.049  0.00  0.00     0.156 S 
ATOM     38  O6  SGN d 501      28.312  19.132 143.449  0.00  0.00    -0.254 OA
ATOM     39  O5S SGN d 501      28.514  17.320 141.513  0.00  0.00    -0.572 OA
ATOM     40  O3S SGN d 501      29.789  23.880 138.136  0.00  0.00    -0.296 OA
ATOM     41  N   SGN d 501      28.943  24.552 140.575  0.00  0.00    -0.210 NA
ATOM     42  O1  SGN d 501      28.443  23.749 143.210  0.00  0.00    -0.348 OA
ATOM     43  C1  SGN d 501      29.106  22.848 142.325  0.00  0.00     0.150 C 
ATOM     44  C5  SGN d 501      27.421  21.151 142.451  0.00  0.00     0.090 C 
ATOM     45  C3  SGN d 501      27.320  22.730 140.539  0.00  0.00     0.083 C 
ATOM     46  O4S SGN d 501      30.093  17.157 143.339  0.00  0.00    -0.572 OA
ATOM     47  O3  SGN d 501      27.080  22.863 139.152  0.00  0.00    -0.391 OA
ATOM     48  S2  SGN d 501      28.690  17.468 142.976  0.00  0.00     0.251 S 
ATOM     49  C2  SGN d 501      28.753  23.142 140.866  0.00  0.00     0.081 C 
ATOM     50  O2S SGN d 501      28.878  26.100 138.412  0.00  0.00    -0.296 OA
ATOM     51  O4  SGN d 501      25.718  20.933 140.752  0.00  0.00    -0.390 OA
ATOM     52  O5  SGN d 501      28.798  21.488 142.649  0.00  0.00    -0.349 OA
ATOM     53  O1S SGN d 501      31.057  25.559 139.321  0.00  0.00    -0.296 OA
ATOM     54  H   SGN d 501      27.709  20.636 140.399  0.00  0.00     0.091 H 
ATOM     55  H   SGN d 501      26.710  19.160 142.176  0.00  0.00     0.080 H 
ATOM     56  H   SGN d 501      26.416  19.819 143.773  0.00  0.00     0.080 H 
ATOM     57  H   SGN d 501      30.325  23.185 138.551  0.00  0.00     0.231 HD
ATOM     58  H   SGN d 501      28.020  24.986 140.601  0.00  0.00     0.140 HD
ATOM     59  H   SGN d 501      30.159  22.994 142.449  0.00  0.00     0.131 H 
ATOM     60  H   SGN d 501      26.805  21.824 143.010  0.00  0.00     0.090 H 
ATOM     61  H   SGN d 501      26.645  23.370 141.069  0.00  0.00     0.089 H 
ATOM     62  H   SGN d 501      27.688  22.286 138.662  0.00  0.00     0.210 HD
ATOM     63  H   SGN d 501      29.411  22.564 140.252  0.00  0.00     0.076 H 
ATOM     64  H   SGN d 501      28.815  26.863 139.008  0.00  0.00     0.231 HD
ATOM     65  H   SGN d 501      25.145  21.521 141.268  0.00  0.00     0.210 HD
ATOM     66  H   SGN d 501      30.999  26.322 139.919  0.00  0.00     0.231 HD
ATOM     67  O2  IDS d 502      30.318  27.459 145.615  0.00  0.00    -0.244 OA
ATOM     68  C3  IDS d 502      29.469  25.654 144.282  0.00  0.00     0.094 C 
ATOM     69  O2S IDS d 502      32.218  26.835 147.366  0.00  0.00    -0.572 OA
ATOM     70  O1S IDS d 502      32.817  28.352 145.574  0.00  0.00    -0.572 OA
ATOM     71  O5  IDS d 502      28.271  24.581 146.599  0.00  0.00    -0.340 OA
ATOM     72  S   IDS d 502      31.749  27.960 146.522  0.00  0.00     0.252 S 
ATOM     73  C1  IDS d 502      28.814  25.907 146.629  0.00  0.00     0.161 C 
ATOM     74  O61 IDS d 502      27.554  21.537 145.711  0.00  0.00    -0.646 OA
ATOM     75  O62 IDS d 502      26.501  23.310 144.961  0.00  0.00    -0.646 OA
ATOM     76  C5  IDS d 502      28.761  23.603 145.661  0.00  0.00     0.152 C 
ATOM     77  O3  IDS d 502      30.443  25.977 143.312  0.00  0.00    -0.390 OA
ATOM     78  C6  IDS d 502      27.532  22.744 145.396  0.00  0.00     0.206 C 
ATOM     79  O3S IDS d 502      31.408  29.108 147.389  0.00  0.00    -0.572 OA
ATOM     80  C4  IDS d 502      29.258  24.153 144.310  0.00  0.00     0.103 C 
ATOM     81  C2  IDS d 502      29.948  26.085 145.645  0.00  0.00     0.134 C 
ATOM     82  H   IDS d 502      28.555  26.153 144.034  0.00  0.00     0.091 H 
ATOM     83  H   IDS d 502      28.012  26.557 146.347  0.00  0.00     0.133 H 
ATOM     84  H   IDS d 502      29.617  23.113 146.077  0.00  0.00     0.104 H 
ATOM     85  H   IDS d 502      31.276  25.529 143.528  0.00  0.00     0.210 HD
ATOM     86  H   IDS d 502      30.224  23.706 144.197  0.00  0.00     0.092 H 
ATOM     87  H   IDS d 502      30.794  25.496 145.932  0.00  0.00     0.097 H 
ENDROOT
TORSDOF 28
ENDMDL
MODEL 13
REMARK VINA RESULT:      -6.1      3.594      7.337
REMARK  0 active torsions:
REMARK  status: ('A' for Active; 'I' for Inactive)
REMARK       I    between atoms: O3_1  and  C3_18 
REMARK       I    between atoms: O6_2  and  C6_6 
REMARK       I    between atoms: O6_2  and  S2_52 
REMARK       I    between atoms: C4_3  and  O4_50 
REMARK       I    between atoms: C6_4  and  C5_31 
REMARK       I    between atoms: C6_4  and  O6_12 
REMARK       I    between atoms: C6_6  and  C5_15 
REMARK       I    between atoms: O2_7  and  C2_53 
REMARK       I    between atoms: O2_7  and  S_26 
REMARK       I    between atoms: C3_8  and  O3_38 
REMARK       I    between atoms: S1_9  and  N_19 
REMARK       I    between atoms: S1_9  and  O1S_55 
REMARK       I    between atoms: S1_9  and  O2S_49 
REMARK       I    between atoms: S1_9  and  O3S_17 
REMARK       I    between atoms: O6_12  and  S2_45 
REMARK       I    between atoms: O1S_14  and  S1_48 
REMARK       I    between atoms: O3S_16  and  S1_48 
REMARK       I    between atoms: N_19  and  C2_46 
REMARK       I    between atoms: O1_22  and  C1_24 
REMARK       I    between atoms: O1_22  and  C4_41 
REMARK       I    between atoms: N_23  and  C2_47 
REMARK       I    between atoms: N_23  and  S1_48 
REMARK       I    between atoms: O2S_25  and  S1_48 
REMARK       I    between atoms: C1_27  and  O4_44 
REMARK       I    between atoms: C3_34  and  O3_43 
REMARK       I    between atoms: C1_35  and  O1_36 
REMARK       I    between atoms: C5_37  and  C6_39 
REMARK       I    between atoms: O4_44  and  C4_54 
ROOT
ATOM      1  O3  SGN d 503      26.939  18.619 143.745  0.00  0.00    -0.391 OA
ATOM      2  O6  SGN d 503      30.587  18.341 146.644  0.00  0.00    -0.254 OA
ATOM      3  C6  SGN d 503      31.291  17.679 145.599  0.00  0.00     0.067 C 
ATOM      4  O1S SGN d 503      24.678  14.938 145.574  0.00  0.00    -0.296 OA
ATOM      5  C5  SGN d 503      30.238  17.128 144.656  0.00  0.00     0.091 C 
ATOM      6  O3S SGN d 503      24.482  17.260 144.937  0.00  0.00    -0.296 OA
ATOM      7  C3  SGN d 503      27.956  17.641 143.769  0.00  0.00     0.083 C 
ATOM      8  O4S SGN d 503      31.927  20.294 147.811  0.00  0.00    -0.572 OA
ATOM      9  N   SGN d 503      26.358  15.823 143.736  0.00  0.00    -0.210 NA
ATOM     10  O2S SGN d 503      23.738  15.523 143.419  0.00  0.00    -0.296 OA
ATOM     11  O5  SGN d 503      29.683  15.967 145.278  0.00  0.00    -0.350 OA
ATOM     12  O6S SGN d 503      30.537  18.890 149.220  0.00  0.00    -0.572 OA
ATOM     13  O5S SGN d 503      32.611  18.042 148.305  0.00  0.00    -0.572 OA
ATOM     14  C1  SGN d 503      28.589  15.372 144.586  0.00  0.00     0.147 C 
ATOM     15  O1  SGN d 503      28.993  14.943 143.289  0.00  0.00    -0.369 OA
ATOM     16  O4  SGN d 503      29.686  19.282 143.749  0.00  0.00    -0.348 OA
ATOM     17  C2  SGN d 503      27.465  16.391 144.474  0.00  0.00     0.081 C 
ATOM     18  S1  SGN d 503      24.744  15.889 144.445  0.00  0.00     0.156 S 
ATOM     19  S2  SGN d 503      31.452  18.917 148.061  0.00  0.00     0.251 S 
ATOM     20  C4  SGN d 503      29.161  18.192 144.503  0.00  0.00     0.095 C 
ATOM     21  H   SGN d 503      26.165  18.270 143.275  0.00  0.00     0.210 HD
ATOM     22  H   SGN d 503      31.883  16.882 145.999  0.00  0.00     0.080 H 
ATOM     23  H   SGN d 503      31.953  18.349 145.093  0.00  0.00     0.080 H 
ATOM     24  H   SGN d 503      25.338  15.182 146.242  0.00  0.00     0.231 HD
ATOM     25  H   SGN d 503      30.641  16.878 143.697  0.00  0.00     0.090 H 
ATOM     26  H   SGN d 503      25.143  17.495 145.607  0.00  0.00     0.231 HD
ATOM     27  H   SGN d 503      28.223  17.391 142.763  0.00  0.00     0.089 H 
ATOM     28  H   SGN d 503      26.576  14.840 143.577  0.00  0.00     0.140 HD
ATOM     29  H   SGN d 503      22.851  15.559 143.809  0.00  0.00     0.231 HD
ATOM     30  H   SGN d 503      28.248  14.516 145.129  0.00  0.00     0.131 H 
ATOM     31  H   SGN d 503      29.306  15.706 142.779  0.00  0.00     0.212 HD
ATOM     32  H   SGN d 503      27.141  16.651 145.461  0.00  0.00     0.076 H 
ATOM     33  H   SGN d 503      28.861  18.510 145.480  0.00  0.00     0.091 H 
ATOM     34  C4  SGN d 501      28.648  27.570 146.600  0.00  0.00     0.089 C 
ATOM     35  C6  SGN d 501      26.533  26.966 145.366  0.00  0.00     0.067 C 
ATOM     36  O6S SGN d 501      24.164  28.464 143.513  0.00  0.00    -0.572 OA
ATOM     37  S1  SGN d 501      33.558  27.004 146.183  0.00  0.00     0.156 S 
ATOM     38  O6  SGN d 501      26.402  27.089 143.951  0.00  0.00    -0.254 OA
ATOM     39  O5S SGN d 501      26.184  29.739 143.897  0.00  0.00    -0.572 OA
ATOM     40  O3S SGN d 501      33.232  28.443 146.063  0.00  0.00    -0.296 OA
ATOM     41  N   SGN d 501      32.071  26.043 146.142  0.00  0.00    -0.210 NA
ATOM     42  O1  SGN d 501      29.909  24.435 145.381  0.00  0.00    -0.348 OA
ATOM     43  C1  SGN d 501      30.025  25.746 144.832  0.00  0.00     0.150 C 
ATOM     44  C5  SGN d 501      27.949  26.533 145.730  0.00  0.00     0.090 C 
ATOM     45  C3  SGN d 501      30.018  27.040 147.004  0.00  0.00     0.083 C 
ATOM     46  O4S SGN d 501      25.871  28.569 141.803  0.00  0.00    -0.572 OA
ATOM     47  O3  SGN d 501      30.711  28.017 147.755  0.00  0.00    -0.391 OA
ATOM     48  S2  SGN d 501      25.623  28.523 143.263  0.00  0.00     0.251 S 
ATOM     49  C2  SGN d 501      30.819  26.669 145.759  0.00  0.00     0.081 C 
ATOM     50  O2S SGN d 501      34.263  26.767 147.465  0.00  0.00    -0.296 OA
ATOM     51  O4  SGN d 501      27.865  27.829 147.767  0.00  0.00    -0.390 OA
ATOM     52  O5  SGN d 501      28.735  26.304 144.556  0.00  0.00    -0.349 OA
ATOM     53  O1S SGN d 501      34.429  26.603 145.055  0.00  0.00    -0.296 OA
ATOM     54  H   SGN d 501      28.764  28.481 146.052  0.00  0.00     0.091 H 
ATOM     55  H   SGN d 501      26.323  27.910 145.824  0.00  0.00     0.080 H 
ATOM     56  H   SGN d 501      25.842  26.228 145.717  0.00  0.00     0.080 H 
ATOM     57  H   SGN d 501      32.771  28.601 145.224  0.00  0.00     0.231 HD
ATOM     58  H   SGN d 501      31.938  25.665 147.080  0.00  0.00     0.140 HD
ATOM     59  H   SGN d 501      30.559  25.662 143.909  0.00  0.00     0.131 H 
ATOM     60  H   SGN d 501      27.859  25.622 146.282  0.00  0.00     0.090 H 
ATOM     61  H   SGN d 501      29.891  26.166 147.609  0.00  0.00     0.089 H 
ATOM     62  H   SGN d 501      30.831  28.814 147.216  0.00  0.00     0.210 HD
ATOM     63  H   SGN d 501      31.025  27.569 145.218  0.00  0.00     0.076 H 
ATOM     64  H   SGN d 501      34.478  25.824 147.547  0.00  0.00     0.231 HD
ATOM     65  H   SGN d 501      27.754  27.007 148.270  0.00  0.00     0.210 HD
ATOM     66  H   SGN d 501      34.644  25.660 145.131  0.00  0.00     0.231 HD
ATOM     67  O2  IDS d 502      32.227  20.447 144.042  0.00  0.00    -0.244 OA
ATOM     68  C3  IDS d 502      31.212  22.521 144.696  0.00  0.00     0.094 C 
ATOM     69  O2S IDS d 502      31.771  19.651 141.547  0.00  0.00    -0.572 OA
ATOM     70  O1S IDS d 502      34.062  20.170 142.144  0.00  0.00    -0.572 OA
ATOM     71  O5  IDS d 502      28.693  21.260 144.577  0.00  0.00    -0.340 OA
ATOM     72  S   IDS d 502      32.794  19.569 142.617  0.00  0.00     0.252 S 
ATOM     73  C1  IDS d 502      29.886  20.470 144.508  0.00  0.00     0.161 C 
ATOM     74  O61 IDS d 502      26.620  23.765 144.564  0.00  0.00    -0.646 OA
ATOM     75  O62 IDS d 502      27.787  23.151 146.317  0.00  0.00    -0.646 OA
ATOM     76  C5  IDS d 502      28.698  22.644 144.174  0.00  0.00     0.152 C 
ATOM     77  O3  IDS d 502      32.398  23.172 144.291  0.00  0.00    -0.390 OA
ATOM     78  C6  IDS d 502      27.640  23.263 145.077  0.00  0.00     0.206 C 
ATOM     79  O3S IDS d 502      33.017  18.149 142.968  0.00  0.00    -0.572 OA
ATOM     80  C4  IDS d 502      30.019  23.406 144.397  0.00  0.00     0.103 C 
ATOM     81  C2  IDS d 502      31.049  21.237 143.922  0.00  0.00     0.134 C 
ATOM     82  H   IDS d 502      31.270  22.317 145.745  0.00  0.00     0.091 H 
ATOM     83  H   IDS d 502      30.123  20.210 145.519  0.00  0.00     0.133 H 
ATOM     84  H   IDS d 502      28.533  22.705 143.118  0.00  0.00     0.104 H 
ATOM     85  H   IDS d 502      32.355  23.361 143.341  0.00  0.00     0.210 HD
ATOM     86  H   IDS d 502      30.207  23.864 143.449  0.00  0.00     0.092 H 
ATOM     87  H   IDS d 502      30.874  21.459 142.890  0.00  0.00     0.097 H 
ENDROOT
TORSDOF 28
ENDMDL
MODEL 14
REMARK VINA RESULT:      -6.1      3.144      3.775
REMARK  0 active torsions:
REMARK  status: ('A' for Active; 'I' for Inactive)
REMARK       I    between atoms: O3_1  and  C3_18 
REMARK       I    between atoms: O6_2  and  C6_6 
REMARK       I    between atoms: O6_2  and  S2_52 
REMARK       I    between atoms: C4_3  and  O4_50 
REMARK       I    between atoms: C6_4  and  C5_31 
REMARK       I    between atoms: C6_4  and  O6_12 
REMARK       I    between atoms: C6_6  and  C5_15 
REMARK       I    between atoms: O2_7  and  C2_53 
REMARK       I    between atoms: O2_7  and  S_26 
REMARK       I    between atoms: C3_8  and  O3_38 
REMARK       I    between atoms: S1_9  and  N_19 
REMARK       I    between atoms: S1_9  and  O1S_55 
REMARK       I    between atoms: S1_9  and  O2S_49 
REMARK       I    between atoms: S1_9  and  O3S_17 
REMARK       I    between atoms: O6_12  and  S2_45 
REMARK       I    between atoms: O1S_14  and  S1_48 
REMARK       I    between atoms: O3S_16  and  S1_48 
REMARK       I    between atoms: N_19  and  C2_46 
REMARK       I    between atoms: O1_22  and  C1_24 
REMARK       I    between atoms: O1_22  and  C4_41 
REMARK       I    between atoms: N_23  and  C2_47 
REMARK       I    between atoms: N_23  and  S1_48 
REMARK       I    between atoms: O2S_25  and  S1_48 
REMARK       I    between atoms: C1_27  and  O4_44 
REMARK       I    between atoms: C3_34  and  O3_43 
REMARK       I    between atoms: C1_35  and  O1_36 
REMARK       I    between atoms: C5_37  and  C6_39 
REMARK       I    between atoms: O4_44  and  C4_54 
ROOT
ATOM      1  O3  SGN d 503      28.776  18.701 147.085  0.00  0.00    -0.391 OA
ATOM      2  O6  SGN d 503      29.831  19.013 142.549  0.00  0.00    -0.254 OA
ATOM      3  C6  SGN d 503      28.797  18.067 142.304  0.00  0.00     0.067 C 
ATOM      4  O1S SGN d 503      32.268  15.743 148.117  0.00  0.00    -0.296 OA
ATOM      5  C5  SGN d 503      28.562  17.340 143.615  0.00  0.00     0.091 C 
ATOM      6  O3S SGN d 503      31.198  17.824 148.719  0.00  0.00    -0.296 OA
ATOM      7  C3  SGN d 503      28.620  17.715 146.088  0.00  0.00     0.083 C 
ATOM      8  O4S SGN d 503      29.777  21.135 140.978  0.00  0.00    -0.572 OA
ATOM      9  N   SGN d 503      29.734  16.033 147.425  0.00  0.00    -0.210 NA
ATOM     10  O2S SGN d 503      30.640  15.789 149.910  0.00  0.00    -0.296 OA
ATOM     11  O5  SGN d 503      29.636  16.412 143.778  0.00  0.00    -0.350 OA
ATOM     12  O6S SGN d 503      31.950  20.220 141.552  0.00  0.00    -0.572 OA
ATOM     13  O5S SGN d 503      30.500  19.061 140.000  0.00  0.00    -0.572 OA
ATOM     14  C1  SGN d 503      29.650  15.711 145.019  0.00  0.00     0.147 C 
ATOM     15  O1  SGN d 503      28.463  14.938 145.167  0.00  0.00    -0.369 OA
ATOM     16  O4  SGN d 503      27.451  19.206 144.641  0.00  0.00    -0.348 OA
ATOM     17  C2  SGN d 503      29.763  16.719 146.152  0.00  0.00     0.081 C 
ATOM     18  S1  SGN d 503      31.013  16.361 148.595  0.00  0.00     0.156 S 
ATOM     19  S2  SGN d 503      30.550  19.897 141.211  0.00  0.00     0.251 S 
ATOM     20  C4  SGN d 503      28.609  18.378 144.727  0.00  0.00     0.095 C 
ATOM     21  H   SGN d 503      28.784  18.279 147.959  0.00  0.00     0.210 HD
ATOM     22  H   SGN d 503      29.101  17.375 141.547  0.00  0.00     0.080 H 
ATOM     23  H   SGN d 503      27.905  18.548 141.962  0.00  0.00     0.080 H 
ATOM     24  H   SGN d 503      32.508  16.121 147.256  0.00  0.00     0.231 HD
ATOM     25  H   SGN d 503      27.623  16.828 143.635  0.00  0.00     0.090 H 
ATOM     26  H   SGN d 503      31.442  18.193 147.856  0.00  0.00     0.231 HD
ATOM     27  H   SGN d 503      27.698  17.197 146.250  0.00  0.00     0.089 H 
ATOM     28  H   SGN d 503      29.757  15.033 147.228  0.00  0.00     0.140 HD
ATOM     29  H   SGN d 503      31.343  15.970 150.553  0.00  0.00     0.231 HD
ATOM     30  H   SGN d 503      30.486  15.044 145.043  0.00  0.00     0.131 H 
ATOM     31  H   SGN d 503      27.690  15.524 145.149  0.00  0.00     0.212 HD
ATOM     32  H   SGN d 503      30.690  17.244 146.050  0.00  0.00     0.076 H 
ATOM     33  H   SGN d 503      29.502  18.956 144.610  0.00  0.00     0.091 H 
ATOM     34  C4  SGN d 501      28.230  27.992 144.948  0.00  0.00     0.089 C 
ATOM     35  C6  SGN d 501      28.204  27.190 147.339  0.00  0.00     0.067 C 
ATOM     36  O6S SGN d 501      27.205  28.265 150.362  0.00  0.00    -0.572 OA
ATOM     37  S1  SGN d 501      25.945  27.096 140.637  0.00  0.00     0.156 S 
ATOM     38  O6  SGN d 501      26.997  26.944 148.058  0.00  0.00    -0.254 OA
ATOM     39  O5S SGN d 501      26.359  29.495 148.458  0.00  0.00    -0.572 OA
ATOM     40  O3S SGN d 501      25.606  28.467 141.080  0.00  0.00    -0.296 OA
ATOM     41  N   SGN d 501      26.784  26.232 141.936  0.00  0.00    -0.210 NA
ATOM     42  O1  SGN d 501      27.447  24.589 144.104  0.00  0.00    -0.348 OA
ATOM     43  C1  SGN d 501      26.583  25.703 144.318  0.00  0.00     0.150 C 
ATOM     44  C5  SGN d 501      28.035  26.799 145.875  0.00  0.00     0.090 C 
ATOM     45  C3  SGN d 501      28.141  27.519 143.502  0.00  0.00     0.083 C 
ATOM     46  O4S SGN d 501      24.972  27.834 149.539  0.00  0.00    -0.572 OA
ATOM     47  O3  SGN d 501      28.250  28.624 142.626  0.00  0.00    -0.391 OA
ATOM     48  S2  SGN d 501      26.357  28.185 149.148  0.00  0.00     0.251 S 
ATOM     49  C2  SGN d 501      26.816  26.796 143.273  0.00  0.00     0.081 C 
ATOM     50  O2S SGN d 501      26.823  27.169 139.446  0.00  0.00    -0.296 OA
ATOM     51  O4  SGN d 501      29.508  28.585 145.186  0.00  0.00    -0.390 OA
ATOM     52  O5  SGN d 501      26.743  26.232 145.638  0.00  0.00    -0.349 OA
ATOM     53  O1S SGN d 501      24.700  26.371 140.295  0.00  0.00    -0.296 OA
ATOM     54  H   SGN d 501      27.470  28.721 145.134  0.00  0.00     0.091 H 
ATOM     55  H   SGN d 501      28.447  28.230 147.401  0.00  0.00     0.080 H 
ATOM     56  H   SGN d 501      28.990  26.605 147.767  0.00  0.00     0.080 H 
ATOM     57  H   SGN d 501      25.031  28.422 141.860  0.00  0.00     0.231 HD
ATOM     58  H   SGN d 501      27.753  26.120 141.638  0.00  0.00     0.140 HD
ATOM     59  H   SGN d 501      25.577  25.354 144.214  0.00  0.00     0.131 H 
ATOM     60  H   SGN d 501      28.789  26.070 145.663  0.00  0.00     0.090 H 
ATOM     61  H   SGN d 501      28.945  26.842 143.304  0.00  0.00     0.089 H 
ATOM     62  H   SGN d 501      27.525  29.245 142.796  0.00  0.00     0.210 HD
ATOM     63  H   SGN d 501      26.028  27.512 143.374  0.00  0.00     0.076 H 
ATOM     64  H   SGN d 501      27.047  26.271 139.154  0.00  0.00     0.231 HD
ATOM     65  H   SGN d 501      30.204  27.931 145.019  0.00  0.00     0.210 HD
ATOM     66  H   SGN d 501      24.919  25.471 140.003  0.00  0.00     0.231 HD
ATOM     67  O2  IDS d 502      26.334  20.281 142.296  0.00  0.00    -0.244 OA
ATOM     68  C3  IDS d 502      26.797  22.501 143.081  0.00  0.00     0.094 C 
ATOM     69  O2S IDS d 502      24.563  18.882 143.699  0.00  0.00    -0.572 OA
ATOM     70  O1S IDS d 502      23.982  19.426 141.410  0.00  0.00    -0.572 OA
ATOM     71  O5  IDS d 502      28.079  21.378 145.327  0.00  0.00    -0.340 OA
ATOM     72  S   IDS d 502      25.083  19.033 142.320  0.00  0.00     0.252 S 
ATOM     73  C1  IDS d 502      27.720  20.540 144.222  0.00  0.00     0.161 C 
ATOM     74  O61 IDS d 502      28.295  23.891 147.379  0.00  0.00    -0.646 OA
ATOM     75  O62 IDS d 502      29.487  23.702 145.546  0.00  0.00    -0.646 OA
ATOM     76  C5  IDS d 502      27.370  22.606 145.585  0.00  0.00     0.152 C 
ATOM     77  O3  IDS d 502      25.777  22.964 142.221  0.00  0.00    -0.390 OA
ATOM     78  C6  IDS d 502      28.442  23.491 146.206  0.00  0.00     0.206 C 
ATOM     79  O3S IDS d 502      25.660  17.746 141.875  0.00  0.00    -0.572 OA
ATOM     80  C4  IDS d 502      26.810  23.334 144.347  0.00  0.00     0.103 C 
ATOM     81  C2  IDS d 502      26.523  21.069 143.467  0.00  0.00     0.134 C 
ATOM     82  H   IDS d 502      27.737  22.576 142.575  0.00  0.00     0.091 H 
ATOM     83  H   IDS d 502      28.566  20.543 143.567  0.00  0.00     0.133 H 
ATOM     84  H   IDS d 502      26.506  22.397 146.180  0.00  0.00     0.104 H 
ATOM     85  H   IDS d 502      24.919  22.899 142.670  0.00  0.00     0.210 HD
ATOM     86  H   IDS d 502      25.789  23.518 144.605  0.00  0.00     0.092 H 
ATOM     87  H   IDS d 502      25.642  21.021 144.072  0.00  0.00     0.097 H 
ENDROOT
TORSDOF 28
ENDMDL
MODEL 15
REMARK VINA RESULT:      -6.1      3.974      5.862
REMARK  0 active torsions:
REMARK  status: ('A' for Active; 'I' for Inactive)
REMARK       I    between atoms: O3_1  and  C3_18 
REMARK       I    between atoms: O6_2  and  C6_6 
REMARK       I    between atoms: O6_2  and  S2_52 
REMARK       I    between atoms: C4_3  and  O4_50 
REMARK       I    between atoms: C6_4  and  C5_31 
REMARK       I    between atoms: C6_4  and  O6_12 
REMARK       I    between atoms: C6_6  and  C5_15 
REMARK       I    between atoms: O2_7  and  C2_53 
REMARK       I    between atoms: O2_7  and  S_26 
REMARK       I    between atoms: C3_8  and  O3_38 
REMARK       I    between atoms: S1_9  and  N_19 
REMARK       I    between atoms: S1_9  and  O1S_55 
REMARK       I    between atoms: S1_9  and  O2S_49 
REMARK       I    between atoms: S1_9  and  O3S_17 
REMARK       I    between atoms: O6_12  and  S2_45 
REMARK       I    between atoms: O1S_14  and  S1_48 
REMARK       I    between atoms: O3S_16  and  S1_48 
REMARK       I    between atoms: N_19  and  C2_46 
REMARK       I    between atoms: O1_22  and  C1_24 
REMARK       I    between atoms: O1_22  and  C4_41 
REMARK       I    between atoms: N_23  and  C2_47 
REMARK       I    between atoms: N_23  and  S1_48 
REMARK       I    between atoms: O2S_25  and  S1_48 
REMARK       I    between atoms: C1_27  and  O4_44 
REMARK       I    between atoms: C3_34  and  O3_43 
REMARK       I    between atoms: C1_35  and  O1_36 
REMARK       I    between atoms: C5_37  and  C6_39 
REMARK       I    between atoms: O4_44  and  C4_54 
ROOT
ATOM      1  O3  SGN d 503      24.743  18.819 146.894  0.00  0.00    -0.391 OA
ATOM      2  O6  SGN d 503      27.623  18.516 143.234  0.00  0.00    -0.254 OA
ATOM      3  C6  SGN d 503      26.571  17.859 142.536  0.00  0.00     0.067 C 
ATOM      4  O1S SGN d 503      26.561  15.132 149.154  0.00  0.00    -0.296 OA
ATOM      5  C5  SGN d 503      25.630  17.316 143.594  0.00  0.00     0.091 C 
ATOM      6  O3S SGN d 503      25.938  17.459 149.348  0.00  0.00    -0.296 OA
ATOM      7  C3  SGN d 503      24.756  17.839 145.879  0.00  0.00     0.083 C 
ATOM      8  O4S SGN d 503      28.795  20.459 141.883  0.00  0.00    -0.572 OA
ATOM      9  N   SGN d 503      24.721  16.025 147.481  0.00  0.00    -0.210 NA
ATOM     10  O2S SGN d 503      24.414  15.732 150.103  0.00  0.00    -0.296 OA
ATOM     11  O5  SGN d 503      26.247  16.153 144.148  0.00  0.00    -0.350 OA
ATOM     12  O6S SGN d 503      30.202  19.051 143.270  0.00  0.00    -0.572 OA
ATOM     13  O5S SGN d 503      29.273  18.203 141.202  0.00  0.00    -0.572 OA
ATOM     14  C1  SGN d 503      25.558  15.564 145.247  0.00  0.00     0.147 C 
ATOM     15  O1  SGN d 503      24.257  15.141 144.851  0.00  0.00    -0.369 OA
ATOM     16  O4  SGN d 503      24.738  19.476 144.146  0.00  0.00    -0.348 OA
ATOM     17  C2  SGN d 503      25.457  16.586 146.369  0.00  0.00     0.081 C 
ATOM     18  S1  SGN d 503      25.437  16.090 149.092  0.00  0.00     0.156 S 
ATOM     19  S2  SGN d 503      29.039  19.082 142.360  0.00  0.00     0.251 S 
ATOM     20  C4  SGN d 503      25.488  18.383 144.670  0.00  0.00     0.095 C 
ATOM     21  H   SGN d 503      24.275  18.474 147.670  0.00  0.00     0.210 HD
ATOM     22  H   SGN d 503      26.964  17.059 141.944  0.00  0.00     0.080 H 
ATOM     23  H   SGN d 503      26.066  18.531 141.874  0.00  0.00     0.080 H 
ATOM     24  H   SGN d 503      27.228  15.371 148.490  0.00  0.00     0.231 HD
ATOM     25  H   SGN d 503      24.667  17.070 143.196  0.00  0.00     0.090 H 
ATOM     26  H   SGN d 503      26.607  17.688 148.684  0.00  0.00     0.231 HD
ATOM     27  H   SGN d 503      23.748  17.594 145.617  0.00  0.00     0.089 H 
ATOM     28  H   SGN d 503      24.555  15.042 147.266  0.00  0.00     0.140 HD
ATOM     29  H   SGN d 503      24.808  15.768 150.988  0.00  0.00     0.231 HD
ATOM     30  H   SGN d 503      26.097  14.705 145.588  0.00  0.00     0.131 H 
ATOM     31  H   SGN d 503      23.749  15.907 144.538  0.00  0.00     0.212 HD
ATOM     32  H   SGN d 503      26.446  16.841 146.688  0.00  0.00     0.076 H 
ATOM     33  H   SGN d 503      26.468  18.696 144.964  0.00  0.00     0.091 H 
ATOM     34  C4  SGN d 501      27.642  27.749 145.153  0.00  0.00     0.089 C 
ATOM     35  C6  SGN d 501      26.414  27.157 147.275  0.00  0.00     0.067 C 
ATOM     36  O6S SGN d 501      24.582  28.671 149.649  0.00  0.00    -0.572 OA
ATOM     37  S1  SGN d 501      27.199  27.175 140.245  0.00  0.00     0.156 S 
ATOM     38  O6  SGN d 501      25.001  27.289 147.412  0.00  0.00    -0.254 OA
ATOM     39  O5S SGN d 501      24.963  29.939 147.625  0.00  0.00    -0.572 OA
ATOM     40  O3S SGN d 501      27.089  28.616 140.569  0.00  0.00    -0.296 OA
ATOM     41  N   SGN d 501      27.159  26.218 141.735  0.00  0.00    -0.210 NA
ATOM     42  O1  SGN d 501      26.399  24.619 143.903  0.00  0.00    -0.348 OA
ATOM     43  C1  SGN d 501      25.857  25.933 143.788  0.00  0.00     0.150 C 
ATOM     44  C5  SGN d 501      26.769  26.719 145.858  0.00  0.00     0.090 C 
ATOM     45  C3  SGN d 501      28.037  27.214 143.782  0.00  0.00     0.083 C 
ATOM     46  O4S SGN d 501      22.864  28.782 147.950  0.00  0.00    -0.572 OA
ATOM     47  O3  SGN d 501      28.790  28.185 143.083  0.00  0.00    -0.391 OA
ATOM     48  S2  SGN d 501      24.325  28.728 148.191  0.00  0.00     0.251 S 
ATOM     49  C2  SGN d 501      26.785  26.848 142.988  0.00  0.00     0.081 C 
ATOM     50  O2S SGN d 501      28.476  26.930 139.535  0.00  0.00    -0.296 OA
ATOM     51  O4  SGN d 501      28.814  28.003 145.930  0.00  0.00    -0.390 OA
ATOM     52  O5  SGN d 501      25.591  26.495 145.077  0.00  0.00    -0.349 OA
ATOM     53  O1S SGN d 501      26.064  26.780 139.381  0.00  0.00    -0.296 OA
ATOM     54  H   SGN d 501      27.099  28.664 145.037  0.00  0.00     0.091 H 
ATOM     55  H   SGN d 501      26.879  28.099 147.480  0.00  0.00     0.080 H 
ATOM     56  H   SGN d 501      26.764  26.418 147.965  0.00  0.00     0.080 H 
ATOM     57  H   SGN d 501      26.253  28.780 141.033  0.00  0.00     0.231 HD
ATOM     58  H   SGN d 501      28.096  25.834 141.865  0.00  0.00     0.140 HD
ATOM     59  H   SGN d 501      24.931  25.853 143.258  0.00  0.00     0.131 H 
ATOM     60  H   SGN d 501      27.317  25.805 145.947  0.00  0.00     0.090 H 
ATOM     61  H   SGN d 501      28.637  26.337 143.908  0.00  0.00     0.089 H 
ATOM     62  H   SGN d 501      28.255  28.985 142.963  0.00  0.00     0.210 HD
ATOM     63  H   SGN d 501      26.249  27.751 142.782  0.00  0.00     0.076 H 
ATOM     64  H   SGN d 501      28.552  25.986 139.322  0.00  0.00     0.231 HD
ATOM     65  H   SGN d 501      29.313  27.179 146.039  0.00  0.00     0.210 HD
ATOM     66  H   SGN d 501      26.134  25.835 139.167  0.00  0.00     0.231 HD
ATOM     67  O2  IDS d 502      25.026  20.634 141.601  0.00  0.00    -0.244 OA
ATOM     68  C3  IDS d 502      25.697  22.706 142.608  0.00  0.00     0.094 C 
ATOM     69  O2S IDS d 502      22.529  19.854 142.070  0.00  0.00    -0.572 OA
ATOM     70  O1S IDS d 502      23.117  20.364 139.775  0.00  0.00    -0.572 OA
ATOM     71  O5  IDS d 502      25.582  21.451 145.131  0.00  0.00    -0.340 OA
ATOM     72  S   IDS d 502      23.593  19.763 141.043  0.00  0.00     0.252 S 
ATOM     73  C1  IDS d 502      25.503  20.659 143.939  0.00  0.00     0.161 C 
ATOM     74  O61 IDS d 502      25.593  23.961 147.198  0.00  0.00    -0.646 OA
ATOM     75  O62 IDS d 502      27.338  23.334 146.024  0.00  0.00    -0.646 OA
ATOM     76  C5  IDS d 502      25.188  22.838 145.124  0.00  0.00     0.152 C 
ATOM     77  O3  IDS d 502      25.290  23.357 141.422  0.00  0.00    -0.390 OA
ATOM     78  C6  IDS d 502      26.099  23.453 146.177  0.00  0.00     0.206 C 
ATOM     79  O3S IDS d 502      23.935  18.341 140.821  0.00  0.00    -0.572 OA
ATOM     80  C4  IDS d 502      25.408  23.596 143.800  0.00  0.00     0.103 C 
ATOM     81  C2  IDS d 502      24.916  21.428 142.778  0.00  0.00     0.134 C 
ATOM     82  H   IDS d 502      26.745  22.496 142.545  0.00  0.00     0.091 H 
ATOM     83  H   IDS d 502      26.511  20.393 143.699  0.00  0.00     0.133 H 
ATOM     84  H   IDS d 502      24.133  22.905 145.294  0.00  0.00     0.104 H 
ATOM     85  H   IDS d 502      24.341  23.552 141.469  0.00  0.00     0.210 HD
ATOM     86  H   IDS d 502      24.462  24.059 143.616  0.00  0.00     0.092 H 
ATOM     87  H   IDS d 502      23.886  21.656 142.957  0.00  0.00     0.097 H 
ENDROOT
TORSDOF 28
ENDMDL
MODEL 16
REMARK VINA RESULT:      -6.0      5.273      9.778
REMARK  0 active torsions:
REMARK  status: ('A' for Active; 'I' for Inactive)
REMARK       I    between atoms: O3_1  and  C3_18 
REMARK       I    between atoms: O6_2  and  C6_6 
REMARK       I    between atoms: O6_2  and  S2_52 
REMARK       I    between atoms: C4_3  and  O4_50 
REMARK       I    between atoms: C6_4  and  C5_31 
REMARK       I    between atoms: C6_4  and  O6_12 
REMARK       I    between atoms: C6_6  and  C5_15 
REMARK       I    between atoms: O2_7  and  C2_53 
REMARK       I    between atoms: O2_7  and  S_26 
REMARK       I    between atoms: C3_8  and  O3_38 
REMARK       I    between atoms: S1_9  and  N_19 
REMARK       I    between atoms: S1_9  and  O1S_55 
REMARK       I    between atoms: S1_9  and  O2S_49 
REMARK       I    between atoms: S1_9  and  O3S_17 
REMARK       I    between atoms: O6_12  and  S2_45 
REMARK       I    between atoms: O1S_14  and  S1_48 
REMARK       I    between atoms: O3S_16  and  S1_48 
REMARK       I    between atoms: N_19  and  C2_46 
REMARK       I    between atoms: O1_22  and  C1_24 
REMARK       I    between atoms: O1_22  and  C4_41 
REMARK       I    between atoms: N_23  and  C2_47 
REMARK       I    between atoms: N_23  and  S1_48 
REMARK       I    between atoms: O2S_25  and  S1_48 
REMARK       I    between atoms: C1_27  and  O4_44 
REMARK       I    between atoms: C3_34  and  O3_43 
REMARK       I    between atoms: C1_35  and  O1_36 
REMARK       I    between atoms: C5_37  and  C6_39 
REMARK       I    between atoms: O4_44  and  C4_54 
ROOT
ATOM      1  O3  SGN d 503      37.118  21.639 141.014  0.00  0.00    -0.391 OA
ATOM      2  O6  SGN d 503      37.902  17.453 142.925  0.00  0.00    -0.254 OA
ATOM      3  C6  SGN d 503      38.762  18.103 143.854  0.00  0.00     0.067 C 
ATOM      4  O1S SGN d 503      40.144  21.049 137.478  0.00  0.00    -0.296 OA
ATOM      5  C5  SGN d 503      39.161  19.421 143.217  0.00  0.00     0.091 C 
ATOM      6  O3S SGN d 503      37.879  21.658 138.061  0.00  0.00    -0.296 OA
ATOM      7  C3  SGN d 503      38.273  21.198 141.695  0.00  0.00     0.083 C 
ATOM      8  O4S SGN d 503      36.174  15.778 144.012  0.00  0.00    -0.572 OA
ATOM      9  N   SGN d 503      39.739  21.958 139.926  0.00  0.00    -0.210 NA
ATOM     10  O2S SGN d 503      39.539  23.385 137.695  0.00  0.00    -0.296 OA
ATOM     11  O5  SGN d 503      40.143  19.126 142.222  0.00  0.00    -0.350 OA
ATOM     12  O6S SGN d 503      37.172  15.141 141.894  0.00  0.00    -0.572 OA
ATOM     13  O5S SGN d 503      38.475  15.085 143.933  0.00  0.00    -0.572 OA
ATOM     14  C1  SGN d 503      40.559  20.236 141.430  0.00  0.00     0.147 C 
ATOM     15  O1  SGN d 503      41.150  21.239 142.251  0.00  0.00    -0.369 OA
ATOM     16  O4  SGN d 503      37.010  20.431 143.567  0.00  0.00    -0.348 OA
ATOM     17  C2  SGN d 503      39.349  20.801 140.702  0.00  0.00     0.081 C 
ATOM     18  S1  SGN d 503      39.307  22.018 138.216  0.00  0.00     0.156 S 
ATOM     19  S2  SGN d 503      37.409  15.789 143.200  0.00  0.00     0.251 S 
ATOM     20  C4  SGN d 503      37.920  20.003 142.556  0.00  0.00     0.095 C 
ATOM     21  H   SGN d 503      37.341  22.404 140.463  0.00  0.00     0.210 HD
ATOM     22  H   SGN d 503      39.629  17.504 144.038  0.00  0.00     0.080 H 
ATOM     23  H   SGN d 503      38.273  18.258 144.793  0.00  0.00     0.080 H 
ATOM     24  H   SGN d 503      39.987  20.156 137.823  0.00  0.00     0.231 HD
ATOM     25  H   SGN d 503      39.553  20.116 143.930  0.00  0.00     0.090 H 
ATOM     26  H   SGN d 503      37.732  20.763 138.404  0.00  0.00     0.231 HD
ATOM     27  H   SGN d 503      38.642  21.994 142.309  0.00  0.00     0.089 H 
ATOM     28  H   SGN d 503      40.755  22.029 139.981  0.00  0.00     0.140 HD
ATOM     29  H   SGN d 503      39.302  23.418 136.755  0.00  0.00     0.231 HD
ATOM     30  H   SGN d 503      41.291  19.914 140.720  0.00  0.00     0.131 H 
ATOM     31  H   SGN d 503      40.501  21.547 142.904  0.00  0.00     0.212 HD
ATOM     32  H   SGN d 503      38.961  20.048 140.049  0.00  0.00     0.076 H 
ATOM     33  H   SGN d 503      37.480  19.245 141.941  0.00  0.00     0.091 H 
ATOM     34  C4  SGN d 501      28.499  18.132 143.159  0.00  0.00     0.089 C 
ATOM     35  C6  SGN d 501      28.762  20.173 141.701  0.00  0.00     0.067 C 
ATOM     36  O6S SGN d 501      26.962  22.836 140.721  0.00  0.00    -0.572 OA
ATOM     37  S1  SGN d 501      30.049  16.393 147.539  0.00  0.00     0.156 S 
ATOM     38  O6  SGN d 501      28.716  21.502 142.217  0.00  0.00    -0.254 OA
ATOM     39  O5S SGN d 501      26.086  21.588 142.599  0.00  0.00    -0.572 OA
ATOM     40  O3S SGN d 501      28.586  16.611 147.603  0.00  0.00    -0.296 OA
ATOM     41  N   SGN d 501      30.699  17.095 146.048  0.00  0.00    -0.210 NA
ATOM     42  O1  SGN d 501      31.900  18.752 144.138  0.00  0.00    -0.348 OA
ATOM     43  C1  SGN d 501      30.679  19.168 144.747  0.00  0.00     0.150 C 
ATOM     44  C5  SGN d 501      29.437  19.241 142.701  0.00  0.00     0.090 C 
ATOM     45  C3  SGN d 501      29.259  17.186 144.081  0.00  0.00     0.083 C 
ATOM     46  O4S SGN d 501      27.317  23.635 142.976  0.00  0.00    -0.572 OA
ATOM     47  O3  SGN d 501      28.386  16.187 144.573  0.00  0.00    -0.391 OA
ATOM     48  S2  SGN d 501      27.209  22.428 142.124  0.00  0.00     0.251 S 
ATOM     49  C2  SGN d 501      29.867  17.969 145.241  0.00  0.00     0.081 C 
ATOM     50  O2S SGN d 501      30.328  14.938 147.561  0.00  0.00    -0.296 OA
ATOM     51  O4  SGN d 501      28.009  17.414 142.025  0.00  0.00    -0.390 OA
ATOM     52  O5  SGN d 501      29.900  19.963 143.847  0.00  0.00    -0.349 OA
ATOM     53  O1S SGN d 501      30.692  17.042 148.704  0.00  0.00    -0.296 OA
ATOM     54  H   SGN d 501      27.670  18.556 143.685  0.00  0.00     0.091 H 
ATOM     55  H   SGN d 501      27.765  19.830 141.517  0.00  0.00     0.080 H 
ATOM     56  H   SGN d 501      29.322  20.172 140.790  0.00  0.00     0.080 H 
ATOM     57  H   SGN d 501      28.400  17.563 147.589  0.00  0.00     0.231 HD
ATOM     58  H   SGN d 501      30.975  16.315 145.451  0.00  0.00     0.140 HD
ATOM     59  H   SGN d 501      30.932  19.770 145.594  0.00  0.00     0.131 H 
ATOM     60  H   SGN d 501      30.271  18.802 142.195  0.00  0.00     0.090 H 
ATOM     61  H   SGN d 501      30.045  16.715 143.529  0.00  0.00     0.089 H 
ATOM     62  H   SGN d 501      27.668  16.604 145.075  0.00  0.00     0.210 HD
ATOM     63  H   SGN d 501      29.066  18.347 145.840  0.00  0.00     0.076 H 
ATOM     64  H   SGN d 501      31.286  14.791 147.519  0.00  0.00     0.231 HD
ATOM     65  H   SGN d 501      28.755  17.026 141.541  0.00  0.00     0.210 HD
ATOM     66  H   SGN d 501      31.651  16.900 148.664  0.00  0.00     0.231 HD
ATOM     67  O2  IDS d 502      36.350  19.041 145.920  0.00  0.00    -0.244 OA
ATOM     68  C3  IDS d 502      34.077  18.846 145.178  0.00  0.00     0.094 C 
ATOM     69  O2S IDS d 502      37.216  21.504 146.420  0.00  0.00    -0.572 OA
ATOM     70  O1S IDS d 502      37.117  19.963 148.288  0.00  0.00    -0.572 OA
ATOM     71  O5  IDS d 502      34.822  20.072 142.751  0.00  0.00    -0.340 OA
ATOM     72  S   IDS d 502      37.422  20.099 146.845  0.00  0.00     0.252 S 
ATOM     73  C1  IDS d 502      35.834  19.634 143.666  0.00  0.00     0.161 C 
ATOM     74  O61 IDS d 502      31.966  20.927 141.455  0.00  0.00    -0.646 OA
ATOM     75  O62 IDS d 502      32.671  18.855 141.603  0.00  0.00    -0.646 OA
ATOM     76  C5  IDS d 502      33.498  20.403 143.216  0.00  0.00     0.152 C 
ATOM     77  O3  IDS d 502      33.702  18.683 146.530  0.00  0.00    -0.390 OA
ATOM     78  C6  IDS d 502      32.621  20.034 142.028  0.00  0.00     0.206 C 
ATOM     79  O3S IDS d 502      38.829  19.717 146.595  0.00  0.00    -0.572 OA
ATOM     80  C4  IDS d 502      32.997  19.613 144.441  0.00  0.00     0.103 C 
ATOM     81  C2  IDS d 502      35.354  19.642 145.099  0.00  0.00     0.134 C 
ATOM     82  H   IDS d 502      34.213  17.880 144.738  0.00  0.00     0.091 H 
ATOM     83  H   IDS d 502      36.063  18.627 143.387  0.00  0.00     0.133 H 
ATOM     84  H   IDS d 502      33.481  21.424 143.535  0.00  0.00     0.104 H 
ATOM     85  H   IDS d 502      33.576  19.554 146.939  0.00  0.00     0.210 HD
ATOM     86  H   IDS d 502      32.654  20.376 145.107  0.00  0.00     0.092 H 
ATOM     87  H   IDS d 502      35.176  20.643 145.433  0.00  0.00     0.097 H 
ENDROOT
TORSDOF 28
ENDMDL
MODEL 17
REMARK VINA RESULT:      -6.0      3.675      7.820
REMARK  0 active torsions:
REMARK  status: ('A' for Active; 'I' for Inactive)
REMARK       I    between atoms: O3_1  and  C3_18 
REMARK       I    between atoms: O6_2  and  C6_6 
REMARK       I    between atoms: O6_2  and  S2_52 
REMARK       I    between atoms: C4_3  and  O4_50 
REMARK       I    between atoms: C6_4  and  C5_31 
REMARK       I    between atoms: C6_4  and  O6_12 
REMARK       I    between atoms: C6_6  and  C5_15 
REMARK       I    between atoms: O2_7  and  C2_53 
REMARK       I    between atoms: O2_7  and  S_26 
REMARK       I    between atoms: C3_8  and  O3_38 
REMARK       I    between atoms: S1_9  and  N_19 
REMARK       I    between atoms: S1_9  and  O1S_55 
REMARK       I    between atoms: S1_9  and  O2S_49 
REMARK       I    between atoms: S1_9  and  O3S_17 
REMARK       I    between atoms: O6_12  and  S2_45 
REMARK       I    between atoms: O1S_14  and  S1_48 
REMARK       I    between atoms: O3S_16  and  S1_48 
REMARK       I    between atoms: N_19  and  C2_46 
REMARK       I    between atoms: O1_22  and  C1_24 
REMARK       I    between atoms: O1_22  and  C4_41 
REMARK       I    between atoms: N_23  and  C2_47 
REMARK       I    between atoms: N_23  and  S1_48 
REMARK       I    between atoms: O2S_25  and  S1_48 
REMARK       I    between atoms: C1_27  and  O4_44 
REMARK       I    between atoms: C3_34  and  O3_43 
REMARK       I    between atoms: C1_35  and  O1_36 
REMARK       I    between atoms: C5_37  and  C6_39 
REMARK       I    between atoms: O4_44  and  C4_54 
ROOT
ATOM      1  O3  SGN d 503      33.677  21.886 147.208  0.00  0.00    -0.391 OA
ATOM      2  O6  SGN d 503      30.135  23.467 149.805  0.00  0.00    -0.254 OA
ATOM      3  C6  SGN d 503      31.069  24.324 150.451  0.00  0.00     0.067 C 
ATOM      4  O1S SGN d 503      34.348  17.999 149.748  0.00  0.00    -0.296 OA
ATOM      5  C5  SGN d 503      32.440  23.717 150.217  0.00  0.00     0.091 C 
ATOM      6  O3S SGN d 503      34.009  18.870 147.520  0.00  0.00    -0.296 OA
ATOM      7  C3  SGN d 503      33.727  22.406 148.519  0.00  0.00     0.083 C 
ATOM      8  O4S SGN d 503      27.909  24.652 149.024  0.00  0.00    -0.572 OA
ATOM      9  N   SGN d 503      35.012  20.523 149.333  0.00  0.00    -0.210 NA
ATOM     10  O2S SGN d 503      36.253  18.410 148.309  0.00  0.00    -0.296 OA
ATOM     11  O5  SGN d 503      32.562  22.602 151.101  0.00  0.00    -0.350 OA
ATOM     12  O6S SGN d 503      27.728  22.403 149.915  0.00  0.00    -0.572 OA
ATOM     13  O5S SGN d 503      28.184  24.273 151.382  0.00  0.00    -0.572 OA
ATOM     14  C1  SGN d 503      33.749  21.829 150.945  0.00  0.00     0.147 C 
ATOM     15  O1  SGN d 503      34.900  22.629 151.195  0.00  0.00    -0.369 OA
ATOM     16  O4  SGN d 503      32.515  24.365 147.906  0.00  0.00    -0.348 OA
ATOM     17  C2  SGN d 503      33.792  21.276 149.529  0.00  0.00     0.081 C 
ATOM     18  S1  SGN d 503      34.903  18.880 148.699  0.00  0.00     0.156 S 
ATOM     19  S2  SGN d 503      28.411  23.706 150.042  0.00  0.00     0.251 S 
ATOM     20  C4  SGN d 503      32.485  23.235 148.775  0.00  0.00     0.095 C 
ATOM     21  H   SGN d 503      34.471  21.354 147.041  0.00  0.00     0.210 HD
ATOM     22  H   SGN d 503      30.861  24.375 151.499  0.00  0.00     0.080 H 
ATOM     23  H   SGN d 503      31.014  25.320 150.063  0.00  0.00     0.080 H 
ATOM     24  H   SGN d 503      33.464  18.312 150.000  0.00  0.00     0.231 HD
ATOM     25  H   SGN d 503      33.231  24.417 150.392  0.00  0.00     0.090 H 
ATOM     26  H   SGN d 503      33.127  19.179 147.781  0.00  0.00     0.231 HD
ATOM     27  H   SGN d 503      34.601  23.014 148.621  0.00  0.00     0.089 H 
ATOM     28  H   SGN d 503      35.478  20.466 150.238  0.00  0.00     0.140 HD
ATOM     29  H   SGN d 503      36.193  17.506 147.961  0.00  0.00     0.231 HD
ATOM     30  H   SGN d 503      33.745  21.023 151.649  0.00  0.00     0.131 H 
ATOM     31  H   SGN d 503      34.924  23.368 150.566  0.00  0.00     0.212 HD
ATOM     32  H   SGN d 503      32.949  20.632 149.389  0.00  0.00     0.076 H 
ATOM     33  H   SGN d 503      31.619  22.635 148.593  0.00  0.00     0.091 H 
ATOM     34  C4  SGN d 501      27.037  24.812 141.000  0.00  0.00     0.089 C 
ATOM     35  C6  SGN d 501      29.022  23.445 140.254  0.00  0.00     0.067 C 
ATOM     36  O6S SGN d 501      30.760  22.823 137.447  0.00  0.00    -0.572 OA
ATOM     37  S1  SGN d 501      26.035  28.885 143.648  0.00  0.00     0.156 S 
ATOM     38  O6  SGN d 501      30.222  24.034 139.757  0.00  0.00    -0.254 OA
ATOM     39  O5S SGN d 501      29.259  24.719 137.375  0.00  0.00    -0.572 OA
ATOM     40  O3S SGN d 501      25.657  29.128 142.237  0.00  0.00    -0.296 OA
ATOM     41  N   SGN d 501      26.943  27.370 143.776  0.00  0.00    -0.210 NA
ATOM     42  O1  SGN d 501      28.948  25.427 143.979  0.00  0.00    -0.348 OA
ATOM     43  C1  SGN d 501      28.845  26.193 142.781  0.00  0.00     0.150 C 
ATOM     44  C5  SGN d 501      28.429  24.310 141.362  0.00  0.00     0.090 C 
ATOM     45  C3  SGN d 501      26.465  25.588 142.179  0.00  0.00     0.083 C 
ATOM     46  O4S SGN d 501      31.625  25.062 137.742  0.00  0.00    -0.572 OA
ATOM     47  O3  SGN d 501      25.201  26.123 141.838  0.00  0.00    -0.391 OA
ATOM     48  S2  SGN d 501      30.477  24.165 138.010  0.00  0.00     0.251 S 
ATOM     49  C2  SGN d 501      27.421  26.711 142.574  0.00  0.00     0.081 C 
ATOM     50  O2S SGN d 501      24.809  28.797 144.475  0.00  0.00    -0.296 OA
ATOM     51  O4  SGN d 501      26.189  23.704 140.691  0.00  0.00    -0.390 OA
ATOM     52  O5  SGN d 501      29.270  25.432 141.645  0.00  0.00    -0.349 OA
ATOM     53  O1S SGN d 501      26.881  30.002 144.126  0.00  0.00    -0.296 OA
ATOM     54  H   SGN d 501      27.096  25.451 140.145  0.00  0.00     0.091 H 
ATOM     55  H   SGN d 501      28.314  23.358 139.457  0.00  0.00     0.080 H 
ATOM     56  H   SGN d 501      29.247  22.477 140.651  0.00  0.00     0.080 H 
ATOM     57  H   SGN d 501      26.458  29.187 141.693  0.00  0.00     0.231 HD
ATOM     58  H   SGN d 501      26.340  26.704 144.258  0.00  0.00     0.140 HD
ATOM     59  H   SGN d 501      29.495  27.037 142.883  0.00  0.00     0.131 H 
ATOM     60  H   SGN d 501      28.358  23.689 142.230  0.00  0.00     0.090 H 
ATOM     61  H   SGN d 501      26.347  24.925 143.011  0.00  0.00     0.089 H 
ATOM     62  H   SGN d 501      25.298  26.726 141.084  0.00  0.00     0.210 HD
ATOM     63  H   SGN d 501      27.449  27.418 141.771  0.00  0.00     0.076 H 
ATOM     64  H   SGN d 501      25.054  28.638 145.400  0.00  0.00     0.231 HD
ATOM     65  H   SGN d 501      26.130  23.119 141.462  0.00  0.00     0.210 HD
ATOM     66  H   SGN d 501      27.130  29.846 145.051  0.00  0.00     0.231 HD
ATOM     67  O2  IDS d 502      30.968  26.700 148.147  0.00  0.00    -0.244 OA
ATOM     68  C3  IDS d 502      29.892  26.214 146.058  0.00  0.00     0.094 C 
ATOM     69  O2S IDS d 502      33.570  27.230 148.034  0.00  0.00    -0.572 OA
ATOM     70  O1S IDS d 502      32.108  29.011 148.784  0.00  0.00    -0.572 OA
ATOM     71  O5  IDS d 502      31.323  23.787 145.949  0.00  0.00    -0.340 OA
ATOM     72  S   IDS d 502      32.359  27.552 148.826  0.00  0.00     0.252 S 
ATOM     73  C1  IDS d 502      31.318  24.555 147.159  0.00  0.00     0.161 C 
ATOM     74  O61 IDS d 502      30.984  22.875 142.847  0.00  0.00    -0.646 OA
ATOM     75  O62 IDS d 502      29.359  22.830 144.321  0.00  0.00    -0.646 OA
ATOM     76  C5  IDS d 502      31.101  24.418 144.672  0.00  0.00     0.152 C 
ATOM     77  O3  IDS d 502      29.588  27.590 145.951  0.00  0.00    -0.390 OA
ATOM     78  C6  IDS d 502      30.420  23.320 143.867  0.00  0.00     0.206 C 
ATOM     79  O3S IDS d 502      32.566  27.123 150.226  0.00  0.00    -0.572 OA
ATOM     80  C4  IDS d 502      30.172  25.648 144.680  0.00  0.00     0.103 C 
ATOM     81  C2  IDS d 502      31.129  26.032 146.900  0.00  0.00     0.134 C 
ATOM     82  H   IDS d 502      29.060  25.711 146.505  0.00  0.00     0.091 H 
ATOM     83  H   IDS d 502      30.484  24.199 147.727  0.00  0.00     0.133 H 
ATOM     84  H   IDS d 502      32.031  24.792 144.297  0.00  0.00     0.104 H 
ATOM     85  H   IDS d 502      30.337  28.056 145.546  0.00  0.00     0.210 HD
ATOM     86  H   IDS d 502      30.735  26.390 144.152  0.00  0.00     0.092 H 
ATOM     87  H   IDS d 502      31.977  26.438 146.387  0.00  0.00     0.097 H 
ENDROOT
TORSDOF 28
ENDMDL
MODEL 18
REMARK VINA RESULT:      -6.0      3.512      7.563
REMARK  0 active torsions:
REMARK  status: ('A' for Active; 'I' for Inactive)
REMARK       I    between atoms: O3_1  and  C3_18 
REMARK       I    between atoms: O6_2  and  C6_6 
REMARK       I    between atoms: O6_2  and  S2_52 
REMARK       I    between atoms: C4_3  and  O4_50 
REMARK       I    between atoms: C6_4  and  C5_31 
REMARK       I    between atoms: C6_4  and  O6_12 
REMARK       I    between atoms: C6_6  and  C5_15 
REMARK       I    between atoms: O2_7  and  C2_53 
REMARK       I    between atoms: O2_7  and  S_26 
REMARK       I    between atoms: C3_8  and  O3_38 
REMARK       I    between atoms: S1_9  and  N_19 
REMARK       I    between atoms: S1_9  and  O1S_55 
REMARK       I    between atoms: S1_9  and  O2S_49 
REMARK       I    between atoms: S1_9  and  O3S_17 
REMARK       I    between atoms: O6_12  and  S2_45 
REMARK       I    between atoms: O1S_14  and  S1_48 
REMARK       I    between atoms: O3S_16  and  S1_48 
REMARK       I    between atoms: N_19  and  C2_46 
REMARK       I    between atoms: O1_22  and  C1_24 
REMARK       I    between atoms: O1_22  and  C4_41 
REMARK       I    between atoms: N_23  and  C2_47 
REMARK       I    between atoms: N_23  and  S1_48 
REMARK       I    between atoms: O2S_25  and  S1_48 
REMARK       I    between atoms: C1_27  and  O4_44 
REMARK       I    between atoms: C3_34  and  O3_43 
REMARK       I    between atoms: C1_35  and  O1_36 
REMARK       I    between atoms: C5_37  and  C6_39 
REMARK       I    between atoms: O4_44  and  C4_54 
ROOT
ATOM      1  O3  SGN d 503      34.593  22.437 145.263  0.00  0.00    -0.391 OA
ATOM      2  O6  SGN d 503      32.523  24.341 148.988  0.00  0.00    -0.254 OA
ATOM      3  C6  SGN d 503      33.644  25.211 149.093  0.00  0.00     0.067 C 
ATOM      4  O1S SGN d 503      36.298  18.736 147.587  0.00  0.00    -0.296 OA
ATOM      5  C5  SGN d 503      34.779  24.539 148.343  0.00  0.00     0.091 C 
ATOM      6  O3S SGN d 503      35.028  19.445 145.657  0.00  0.00    -0.296 OA
ATOM      7  C3  SGN d 503      35.204  23.054 146.375  0.00  0.00     0.083 C 
ATOM      8  O4S SGN d 503      30.177  25.543 149.145  0.00  0.00    -0.572 OA
ATOM      9  N   SGN d 503      36.716  21.195 146.712  0.00  0.00    -0.210 NA
ATOM     10  O2S SGN d 503      37.393  18.965 145.437  0.00  0.00    -0.296 OA
ATOM     11  O5  SGN d 503      35.271  23.491 149.180  0.00  0.00    -0.350 OA
ATOM     12  O6S SGN d 503      30.401  23.377 150.216  0.00  0.00    -0.572 OA
ATOM     13  O5S SGN d 503      31.445  25.337 151.178  0.00  0.00    -0.572 OA
ATOM     14  C1  SGN d 503      36.275  22.666 148.594  0.00  0.00     0.147 C 
ATOM     15  O1  SGN d 503      37.420  23.440 148.253  0.00  0.00    -0.369 OA
ATOM     16  O4  SGN d 503      33.846  25.004 146.180  0.00  0.00    -0.348 OA
ATOM     17  C2  SGN d 503      35.701  22.004 147.350  0.00  0.00     0.081 C 
ATOM     18  S1  SGN d 503      36.345  19.513 146.330  0.00  0.00     0.156 S 
ATOM     19  S2  SGN d 503      31.070  24.661 149.924  0.00  0.00     0.251 S 
ATOM     20  C4  SGN d 503      34.196  23.946 147.069  0.00  0.00     0.095 C 
ATOM     21  H   SGN d 503      35.236  21.866 144.816  0.00  0.00     0.210 HD
ATOM     22  H   SGN d 503      33.910  25.350 150.120  0.00  0.00     0.080 H 
ATOM     23  H   SGN d 503      33.426  26.175 148.684  0.00  0.00     0.080 H 
ATOM     24  H   SGN d 503      35.610  19.099 148.167  0.00  0.00     0.231 HD
ATOM     25  H   SGN d 503      35.567  25.221 148.100  0.00  0.00     0.090 H 
ATOM     26  H   SGN d 503      34.345  19.805 146.245  0.00  0.00     0.231 HD
ATOM     27  H   SGN d 503      36.036  23.637 146.037  0.00  0.00     0.089 H 
ATOM     28  H   SGN d 503      37.528  21.190 147.329  0.00  0.00     0.140 HD
ATOM     29  H   SGN d 503      37.188  18.040 145.228  0.00  0.00     0.231 HD
ATOM     30  H   SGN d 503      36.576  21.917 149.296  0.00  0.00     0.131 H 
ATOM     31  H   SGN d 503      37.169  24.127 147.615  0.00  0.00     0.212 HD
ATOM     32  H   SGN d 503      34.880  21.383 147.642  0.00  0.00     0.076 H 
ATOM     33  H   SGN d 503      33.336  23.365 147.331  0.00  0.00     0.091 H 
ATOM     34  C4  SGN d 501      25.919  25.116 142.300  0.00  0.00     0.089 C 
ATOM     35  C6  SGN d 501      27.386  23.625 140.891  0.00  0.00     0.067 C 
ATOM     36  O6S SGN d 501      27.738  22.726 137.673  0.00  0.00    -0.572 OA
ATOM     37  S1  SGN d 501      26.159  29.416 144.764  0.00  0.00     0.156 S 
ATOM     38  O6  SGN d 501      28.253  24.130 139.877  0.00  0.00    -0.254 OA
ATOM     39  O5S SGN d 501      26.353  24.664 138.094  0.00  0.00    -0.572 OA
ATOM     40  O3S SGN d 501      25.208  29.563 143.639  0.00  0.00    -0.296 OA
ATOM     41  N   SGN d 501      27.034  27.883 144.617  0.00  0.00    -0.210 NA
ATOM     42  O1  SGN d 501      28.931  25.889 144.100  0.00  0.00    -0.348 OA
ATOM     43  C1  SGN d 501      28.319  26.564 143.003  0.00  0.00     0.150 C 
ATOM     44  C5  SGN d 501      27.331  24.593 142.068  0.00  0.00     0.090 C 
ATOM     45  C3  SGN d 501      25.913  26.002 143.540  0.00  0.00     0.083 C 
ATOM     46  O4S SGN d 501      28.645  24.948 137.375  0.00  0.00    -0.572 OA
ATOM     47  O3  SGN d 501      24.626  26.554 143.733  0.00  0.00    -0.391 OA
ATOM     48  S2  SGN d 501      27.726  24.116 138.186  0.00  0.00     0.251 S 
ATOM     49  C2  SGN d 501      26.945  27.117 143.387  0.00  0.00     0.081 C 
ATOM     50  O2S SGN d 501      25.412  29.436 146.043  0.00  0.00    -0.296 OA
ATOM     51  O4  SGN d 501      25.021  24.020 142.483  0.00  0.00    -0.390 OA
ATOM     52  O5  SGN d 501      28.211  25.703 141.864  0.00  0.00    -0.349 OA
ATOM     53  O1S SGN d 501      27.128  30.535 144.734  0.00  0.00    -0.296 OA
ATOM     54  H   SGN d 501      25.602  25.686 141.452  0.00  0.00     0.091 H 
ATOM     55  H   SGN d 501      26.403  23.503 140.488  0.00  0.00     0.080 H 
ATOM     56  H   SGN d 501      27.761  22.683 141.233  0.00  0.00     0.080 H 
ATOM     57  H   SGN d 501      25.694  29.551 142.800  0.00  0.00     0.231 HD
ATOM     58  H   SGN d 501      26.699  27.278 145.367  0.00  0.00     0.140 HD
ATOM     59  H   SGN d 501      28.948  27.390 142.743  0.00  0.00     0.131 H 
ATOM     60  H   SGN d 501      27.643  24.045 142.932  0.00  0.00     0.090 H 
ATOM     61  H   SGN d 501      26.166  25.410 144.395  0.00  0.00     0.089 H 
ATOM     62  H   SGN d 501      24.386  27.093 142.963  0.00  0.00     0.210 HD
ATOM     63  H   SGN d 501      26.622  27.758 142.594  0.00  0.00     0.076 H 
ATOM     64  H   SGN d 501      26.033  29.339 146.782  0.00  0.00     0.231 HD
ATOM     65  H   SGN d 501      25.301  23.498 143.251  0.00  0.00     0.210 HD
ATOM     66  H   SGN d 501      27.754  30.441 145.471  0.00  0.00     0.231 HD
ATOM     67  O2  IDS d 502      32.554  27.405 146.864  0.00  0.00    -0.244 OA
ATOM     68  C3  IDS d 502      30.680  26.800 145.493  0.00  0.00     0.094 C 
ATOM     69  O2S IDS d 502      34.851  27.829 145.596  0.00  0.00    -0.572 OA
ATOM     70  O1S IDS d 502      33.856  29.715 146.748  0.00  0.00    -0.572 OA
ATOM     71  O5  IDS d 502      31.925  24.321 144.985  0.00  0.00    -0.340 OA
ATOM     72  S   IDS d 502      34.102  28.255 146.802  0.00  0.00     0.252 S 
ATOM     73  C1  IDS d 502      32.443  25.179 146.009  0.00  0.00     0.161 C 
ATOM     74  O61 IDS d 502      30.277  23.185 142.423  0.00  0.00    -0.646 OA
ATOM     75  O62 IDS d 502      29.449  23.313 144.451  0.00  0.00    -0.646 OA
ATOM     76  C5  IDS d 502      31.171  24.859 143.881  0.00  0.00     0.152 C 
ATOM     77  O3  IDS d 502      30.360  28.173 145.411  0.00  0.00    -0.390 OA
ATOM     78  C6  IDS d 502      30.210  23.728 143.545  0.00  0.00     0.206 C 
ATOM     79  O3S IDS d 502      34.894  27.928 148.007  0.00  0.00    -0.572 OA
ATOM     80  C4  IDS d 502      30.337  26.119 144.183  0.00  0.00     0.103 C 
ATOM     81  C2  IDS d 502      32.160  26.638 145.731  0.00  0.00     0.134 C 
ATOM     82  H   IDS d 502      30.124  26.362 146.296  0.00  0.00     0.091 H 
ATOM     83  H   IDS d 502      31.937  24.898 146.909  0.00  0.00     0.133 H 
ATOM     84  H   IDS d 502      31.847  25.169 143.110  0.00  0.00     0.104 H 
ATOM     85  H   IDS d 502      30.859  28.579 144.685  0.00  0.00     0.210 HD
ATOM     86  H   IDS d 502      30.615  26.797 143.403  0.00  0.00     0.092 H 
ATOM     87  H   IDS d 502      32.702  26.972 144.871  0.00  0.00     0.097 H 
ENDROOT
TORSDOF 28
ENDMDL
MODEL 19
REMARK VINA RESULT:      -6.0      3.454      4.677
REMARK  0 active torsions:
REMARK  status: ('A' for Active; 'I' for Inactive)
REMARK       I    between atoms: O3_1  and  C3_18 
REMARK       I    between atoms: O6_2  and  C6_6 
REMARK       I    between atoms: O6_2  and  S2_52 
REMARK       I    between atoms: C4_3  and  O4_50 
REMARK       I    between atoms: C6_4  and  C5_31 
REMARK       I    between atoms: C6_4  and  O6_12 
REMARK       I    between atoms: C6_6  and  C5_15 
REMARK       I    between atoms: O2_7  and  C2_53 
REMARK       I    between atoms: O2_7  and  S_26 
REMARK       I    between atoms: C3_8  and  O3_38 
REMARK       I    between atoms: S1_9  and  N_19 
REMARK       I    between atoms: S1_9  and  O1S_55 
REMARK       I    between atoms: S1_9  and  O2S_49 
REMARK       I    between atoms: S1_9  and  O3S_17 
REMARK       I    between atoms: O6_12  and  S2_45 
REMARK       I    between atoms: O1S_14  and  S1_48 
REMARK       I    between atoms: O3S_16  and  S1_48 
REMARK       I    between atoms: N_19  and  C2_46 
REMARK       I    between atoms: O1_22  and  C1_24 
REMARK       I    between atoms: O1_22  and  C4_41 
REMARK       I    between atoms: N_23  and  C2_47 
REMARK       I    between atoms: N_23  and  S1_48 
REMARK       I    between atoms: O2S_25  and  S1_48 
REMARK       I    between atoms: C1_27  and  O4_44 
REMARK       I    between atoms: C3_34  and  O3_43 
REMARK       I    between atoms: C1_35  and  O1_36 
REMARK       I    between atoms: C5_37  and  C6_39 
REMARK       I    between atoms: O4_44  and  C4_54 
ROOT
ATOM      1  O3  SGN d 503      26.751  19.070 147.337  0.00  0.00    -0.391 OA
ATOM      2  O6  SGN d 503      28.831  19.011 143.159  0.00  0.00    -0.254 OA
ATOM      3  C6  SGN d 503      27.780  18.161 142.714  0.00  0.00     0.067 C 
ATOM      4  O1S SGN d 503      29.570  15.842 149.245  0.00  0.00    -0.296 OA
ATOM      5  C5  SGN d 503      27.177  17.539 143.959  0.00  0.00     0.091 C 
ATOM      6  O3S SGN d 503      28.629  18.051 149.514  0.00  0.00    -0.296 OA
ATOM      7  C3  SGN d 503      26.716  18.048 146.365  0.00  0.00     0.083 C 
ATOM      8  O4S SGN d 503      29.368  21.033 141.548  0.00  0.00    -0.572 OA
ATOM      9  N   SGN d 503      27.306  16.344 147.978  0.00  0.00    -0.210 NA
ATOM     10  O2S SGN d 503      27.594  16.155 150.612  0.00  0.00    -0.296 OA
ATOM     11  O5  SGN d 503      28.076  16.519 144.396  0.00  0.00    -0.350 OA
ATOM     12  O6S SGN d 503      31.240  19.940 142.638  0.00  0.00    -0.572 OA
ATOM     13  O5S SGN d 503      30.059  18.844 140.833  0.00  0.00    -0.572 OA
ATOM     14  C1  SGN d 503      27.732  15.893 145.629  0.00  0.00     0.147 C 
ATOM     15  O1  SGN d 503      26.464  15.252 145.526  0.00  0.00    -0.369 OA
ATOM     16  O4  SGN d 503      26.077  19.563 144.637  0.00  0.00    -0.348 OA
ATOM     17  C2  SGN d 503      27.697  16.948 146.724  0.00  0.00     0.081 C 
ATOM     18  S1  SGN d 503      28.316  16.609 149.400  0.00  0.00     0.156 S 
ATOM     19  S2  SGN d 503      29.927  19.740 141.994  0.00  0.00     0.251 S 
ATOM     20  C4  SGN d 503      27.086  18.630 145.016  0.00  0.00     0.095 C 
ATOM     21  H   SGN d 503      26.514  18.701 148.202  0.00  0.00     0.210 HD
ATOM     22  H   SGN d 503      28.169  17.399 142.070  0.00  0.00     0.080 H 
ATOM     23  H   SGN d 503      27.048  18.708 142.159  0.00  0.00     0.080 H 
ATOM     24  H   SGN d 503      30.038  16.144 148.451  0.00  0.00     0.231 HD
ATOM     25  H   SGN d 503      26.206  17.125 143.778  0.00  0.00     0.090 H 
ATOM     26  H   SGN d 503      29.101  18.344 148.718  0.00  0.00     0.231 HD
ATOM     27  H   SGN d 503      25.730  17.636 146.327  0.00  0.00     0.089 H 
ATOM     28  H   SGN d 503      27.262  15.336 147.825  0.00  0.00     0.140 HD
ATOM     29  H   SGN d 503      28.150  16.301 151.393  0.00  0.00     0.231 HD
ATOM     30  H   SGN d 503      28.462  15.148 145.868  0.00  0.00     0.131 H 
ATOM     31  H   SGN d 503      25.785  15.911 145.310  0.00  0.00     0.212 HD
ATOM     32  H   SGN d 503      28.675  17.371 146.821  0.00  0.00     0.076 H 
ATOM     33  H   SGN d 503      28.041  19.107 145.089  0.00  0.00     0.091 H 
ATOM     34  C4  SGN d 501      27.735  28.229 144.821  0.00  0.00     0.089 C 
ATOM     35  C6  SGN d 501      27.080  27.574 147.167  0.00  0.00     0.067 C 
ATOM     36  O6S SGN d 501      25.550  28.918 149.840  0.00  0.00    -0.572 OA
ATOM     37  S1  SGN d 501      26.397  27.318 140.132  0.00  0.00     0.156 S 
ATOM     38  O6  SGN d 501      25.723  27.493 147.596  0.00  0.00    -0.254 OA
ATOM     39  O5S SGN d 501      25.297  30.113 147.753  0.00  0.00    -0.572 OA
ATOM     40  O3S SGN d 501      26.121  28.740 140.439  0.00  0.00    -0.296 OA
ATOM     41  N   SGN d 501      26.819  26.451 141.618  0.00  0.00    -0.210 NA
ATOM     42  O1  SGN d 501      26.790  24.879 143.934  0.00  0.00    -0.348 OA
ATOM     43  C1  SGN d 501      26.029  26.085 143.905  0.00  0.00     0.150 C 
ATOM     44  C5  SGN d 501      27.204  27.118 145.718  0.00  0.00     0.090 C 
ATOM     45  C3  SGN d 501      27.922  27.685 143.410  0.00  0.00     0.083 C 
ATOM     46  O4S SGN d 501      23.527  28.665 148.539  0.00  0.00    -0.572 OA
ATOM     47  O3  SGN d 501      28.348  28.720 142.546  0.00  0.00    -0.391 OA
ATOM     48  S2  SGN d 501      24.995  28.852 148.468  0.00  0.00     0.251 S 
ATOM     49  C2  SGN d 501      26.612  27.086 142.907  0.00  0.00     0.081 C 
ATOM     50  O2S SGN d 501      27.524  27.234 139.174  0.00  0.00    -0.296 OA
ATOM     51  O4  SGN d 501      28.983  28.705 145.327  0.00  0.00    -0.390 OA
ATOM     52  O5  SGN d 501      25.944  26.670 145.209  0.00  0.00    -0.349 OA
ATOM     53  O1S SGN d 501      25.189  26.703 139.536  0.00  0.00    -0.296 OA
ATOM     54  H   SGN d 501      27.037  29.040 144.802  0.00  0.00     0.091 H 
ATOM     55  H   SGN d 501      27.417  28.587 147.249  0.00  0.00     0.080 H 
ATOM     56  H   SGN d 501      27.680  26.939 147.785  0.00  0.00     0.080 H 
ATOM     57  H   SGN d 501      25.383  28.798 141.065  0.00  0.00     0.231 HD
ATOM     58  H   SGN d 501      27.812  26.226 141.556  0.00  0.00     0.140 HD
ATOM     59  H   SGN d 501      25.040  25.832 143.584  0.00  0.00     0.131 H 
ATOM     60  H   SGN d 501      27.901  26.306 145.710  0.00  0.00     0.090 H 
ATOM     61  H   SGN d 501      28.670  26.920 143.427  0.00  0.00     0.089 H 
ATOM     62  H   SGN d 501      27.676  29.420 142.524  0.00  0.00     0.210 HD
ATOM     63  H   SGN d 501      25.905  27.882 142.799  0.00  0.00     0.076 H 
ATOM     64  H   SGN d 501      27.707  26.303 138.971  0.00  0.00     0.231 HD
ATOM     65  H   SGN d 501      29.622  27.975 145.348  0.00  0.00     0.210 HD
ATOM     66  H   SGN d 501      25.367  25.771 139.334  0.00  0.00     0.231 HD
ATOM     67  O2  IDS d 502      25.644  20.606 142.063  0.00  0.00    -0.244 OA
ATOM     68  C3  IDS d 502      26.160  22.810 142.859  0.00  0.00     0.094 C 
ATOM     69  O2S IDS d 502      23.458  19.476 143.066  0.00  0.00    -0.572 OA
ATOM     70  O1S IDS d 502      23.473  19.941 140.688  0.00  0.00    -0.572 OA
ATOM     71  O5  IDS d 502      26.770  21.697 145.377  0.00  0.00    -0.340 OA
ATOM     72  S   IDS d 502      24.290  19.493 141.840  0.00  0.00     0.252 S 
ATOM     73  C1  IDS d 502      26.579  20.836 144.247  0.00  0.00     0.161 C 
ATOM     74  O61 IDS d 502      26.794  24.290 147.338  0.00  0.00    -0.646 OA
ATOM     75  O62 IDS d 502      28.340  23.877 145.837  0.00  0.00    -0.646 OA
ATOM     76  C5  IDS d 502      26.162  23.003 145.423  0.00  0.00     0.152 C 
ATOM     77  O3  IDS d 502      25.419  23.323 141.772  0.00  0.00    -0.390 OA
ATOM     78  C6  IDS d 502      27.156  23.810 146.245  0.00  0.00     0.206 C 
ATOM     79  O3S IDS d 502      24.806  18.131 141.583  0.00  0.00    -0.572 OA
ATOM     80  C4  IDS d 502      25.980  23.710 144.065  0.00  0.00     0.103 C 
ATOM     81  C2  IDS d 502      25.650  21.438 143.219  0.00  0.00     0.134 C 
ATOM     82  H   IDS d 502      27.193  22.762 142.581  0.00  0.00     0.091 H 
ATOM     83  H   IDS d 502      27.547  20.716 143.805  0.00  0.00     0.133 H 
ATOM     84  H   IDS d 502      25.167  22.916 145.809  0.00  0.00     0.104 H 
ATOM     85  H   IDS d 502      24.480  23.371 142.013  0.00  0.00     0.210 HD
ATOM     86  H   IDS d 502      24.953  24.010 144.074  0.00  0.00     0.092 H 
ATOM     87  H   IDS d 502      24.655  21.513 143.606  0.00  0.00     0.097 H 
ENDROOT
TORSDOF 28
ENDMDL
MODEL 20
REMARK VINA RESULT:      -5.9      3.121      4.487
REMARK  0 active torsions:
REMARK  status: ('A' for Active; 'I' for Inactive)
REMARK       I    between atoms: O3_1  and  C3_18 
REMARK       I    between atoms: O6_2  and  C6_6 
REMARK       I    between atoms: O6_2  and  S2_52 
REMARK       I    between atoms: C4_3  and  O4_50 
REMARK       I    between atoms: C6_4  and  C5_31 
REMARK       I    between atoms: C6_4  and  O6_12 
REMARK       I    between atoms: C6_6  and  C5_15 
REMARK       I    between atoms: O2_7  and  C2_53 
REMARK       I    between atoms: O2_7  and  S_26 
REMARK       I    between atoms: C3_8  and  O3_38 
REMARK       I    between atoms: S1_9  and  N_19 
REMARK       I    between atoms: S1_9  and  O1S_55 
REMARK       I    between atoms: S1_9  and  O2S_49 
REMARK       I    between atoms: S1_9  and  O3S_17 
REMARK       I    between atoms: O6_12  and  S2_45 
REMARK       I    between atoms: O1S_14  and  S1_48 
REMARK       I    between atoms: O3S_16  and  S1_48 
REMARK       I    between atoms: N_19  and  C2_46 
REMARK       I    between atoms: O1_22  and  C1_24 
REMARK       I    between atoms: O1_22  and  C4_41 
REMARK       I    between atoms: N_23  and  C2_47 
REMARK       I    between atoms: N_23  and  S1_48 
REMARK       I    between atoms: O2S_25  and  S1_48 
REMARK       I    between atoms: C1_27  and  O4_44 
REMARK       I    between atoms: C3_34  and  O3_43 
REMARK       I    between atoms: C1_35  and  O1_36 
REMARK       I    between atoms: C5_37  and  C6_39 
REMARK       I    between atoms: O4_44  and  C4_54 
ROOT
ATOM      1  O3  SGN d 503      32.046  20.794 144.067  0.00  0.00    -0.391 OA
ATOM      2  O6  SGN d 503      29.887  23.383 140.839  0.00  0.00    -0.254 OA
ATOM      3  C6  SGN d 503      28.861  22.398 140.820  0.00  0.00     0.067 C 
ATOM      4  O1S SGN d 503      35.050  18.808 141.060  0.00  0.00    -0.296 OA
ATOM      5  C5  SGN d 503      29.476  21.129 141.380  0.00  0.00     0.091 C 
ATOM      6  O3S SGN d 503      34.845  20.004 143.150  0.00  0.00    -0.296 OA
ATOM      7  C3  SGN d 503      31.180  20.358 143.043  0.00  0.00     0.083 C 
ATOM      8  O4S SGN d 503      29.021  25.871 141.019  0.00  0.00    -0.572 OA
ATOM      9  N   SGN d 503      32.728  18.648 142.312  0.00  0.00    -0.210 NA
ATOM     10  O2S SGN d 503      35.013  17.587 143.152  0.00  0.00    -0.296 OA
ATOM     11  O5  SGN d 503      30.297  20.571 140.352  0.00  0.00    -0.350 OA
ATOM     12  O6S SGN d 503      30.934  25.451 139.588  0.00  0.00    -0.572 OA
ATOM     13  O5S SGN d 503      28.718  24.751 138.913  0.00  0.00    -0.572 OA
ATOM     14  C1  SGN d 503      31.054  19.425 140.733  0.00  0.00     0.147 C 
ATOM     15  O1  SGN d 503      30.188  18.368 141.135  0.00  0.00    -0.369 OA
ATOM     16  O4  SGN d 503      29.499  21.941 143.640  0.00  0.00    -0.348 OA
ATOM     17  C2  SGN d 503      31.980  19.807 141.877  0.00  0.00     0.081 C 
ATOM     18  S1  SGN d 503      34.485  18.765 142.425  0.00  0.00     0.156 S 
ATOM     19  S2  SGN d 503      29.632  24.935 140.053  0.00  0.00     0.251 S 
ATOM     20  C4  SGN d 503      30.341  21.527 142.567  0.00  0.00     0.095 C 
ATOM     21  H   SGN d 503      32.585  20.049 144.374  0.00  0.00     0.210 HD
ATOM     22  H   SGN d 503      28.524  22.234 139.818  0.00  0.00     0.080 H 
ATOM     23  H   SGN d 503      28.015  22.707 141.397  0.00  0.00     0.080 H 
ATOM     24  H   SGN d 503      34.700  19.581 140.589  0.00  0.00     0.231 HD
ATOM     25  H   SGN d 503      28.737  20.420 141.690  0.00  0.00     0.090 H 
ATOM     26  H   SGN d 503      34.497  20.772 142.670  0.00  0.00     0.231 HD
ATOM     27  H   SGN d 503      30.546  19.586 143.426  0.00  0.00     0.089 H 
ATOM     28  H   SGN d 503      32.519  17.893 141.659  0.00  0.00     0.140 HD
ATOM     29  H   SGN d 503      35.979  17.651 143.214  0.00  0.00     0.231 HD
ATOM     30  H   SGN d 503      31.630  19.085 139.899  0.00  0.00     0.131 H 
ATOM     31  H   SGN d 503      29.655  18.656 141.893  0.00  0.00     0.212 HD
ATOM     32  H   SGN d 503      32.657  20.560 141.532  0.00  0.00     0.076 H 
ATOM     33  H   SGN d 503      30.989  22.321 142.259  0.00  0.00     0.091 H 
ATOM     34  C4  SGN d 501      31.134  29.483 147.922  0.00  0.00     0.089 C 
ATOM     35  C6  SGN d 501      32.607  27.727 148.975  0.00  0.00     0.067 C 
ATOM     36  O6S SGN d 501      33.948  27.007 151.970  0.00  0.00    -0.572 OA
ATOM     37  S1  SGN d 501      26.507  30.003 146.210  0.00  0.00     0.156 S 
ATOM     38  O6  SGN d 501      32.152  26.856 150.009  0.00  0.00    -0.254 OA
ATOM     39  O5S SGN d 501      32.184  28.663 151.961  0.00  0.00    -0.572 OA
ATOM     40  O3S SGN d 501      26.677  30.874 147.395  0.00  0.00    -0.296 OA
ATOM     41  N   SGN d 501      27.904  28.926 146.047  0.00  0.00    -0.210 NA
ATOM     42  O1  SGN d 501      29.664  26.750 146.112  0.00  0.00    -0.348 OA
ATOM     43  C1  SGN d 501      29.266  27.356 147.341  0.00  0.00     0.150 C 
ATOM     44  C5  SGN d 501      31.481  28.001 147.983  0.00  0.00     0.090 C 
ATOM     45  C3  SGN d 501      30.072  29.703 146.852  0.00  0.00     0.083 C 
ATOM     46  O4S SGN d 501      31.696  26.378 152.588  0.00  0.00    -0.572 OA
ATOM     47  O3  SGN d 501      29.685  31.062 146.828  0.00  0.00    -0.391 OA
ATOM     48  S2  SGN d 501      32.510  27.242 151.701  0.00  0.00     0.251 S 
ATOM     49  C2  SGN d 501      28.861  28.817 147.133  0.00  0.00     0.081 C 
ATOM     50  O2S SGN d 501      26.389  30.845 144.997  0.00  0.00    -0.296 OA
ATOM     51  O4  SGN d 501      32.303  30.241 147.608  0.00  0.00    -0.390 OA
ATOM     52  O5  SGN d 501      30.304  27.260 148.322  0.00  0.00    -0.349 OA
ATOM     53  O1S SGN d 501      25.281  29.189 146.374  0.00  0.00    -0.296 OA
ATOM     54  H   SGN d 501      30.758  29.804 148.871  0.00  0.00     0.091 H 
ATOM     55  H   SGN d 501      32.930  28.651 149.407  0.00  0.00     0.080 H 
ATOM     56  H   SGN d 501      33.419  27.260 148.459  0.00  0.00     0.080 H 
ATOM     57  H   SGN d 501      26.754  30.325 148.192  0.00  0.00     0.231 HD
ATOM     58  H   SGN d 501      28.422  29.237 145.226  0.00  0.00     0.140 HD
ATOM     59  H   SGN d 501      28.412  26.822 147.700  0.00  0.00     0.131 H 
ATOM     60  H   SGN d 501      31.835  27.689 147.024  0.00  0.00     0.090 H 
ATOM     61  H   SGN d 501      30.478  29.442 145.897  0.00  0.00     0.089 H 
ATOM     62  H   SGN d 501      29.314  31.309 147.690  0.00  0.00     0.210 HD
ATOM     63  H   SGN d 501      28.406  29.157 148.040  0.00  0.00     0.076 H 
ATOM     64  H   SGN d 501      26.278  30.276 144.218  0.00  0.00     0.231 HD
ATOM     65  H   SGN d 501      32.651  29.957 146.749  0.00  0.00     0.210 HD
ATOM     66  H   SGN d 501      25.166  28.617 145.598  0.00  0.00     0.231 HD
ATOM     67  O2  IDS d 502      27.228  23.586 143.444  0.00  0.00    -0.244 OA
ATOM     68  C3  IDS d 502      28.304  25.250 144.797  0.00  0.00     0.094 C 
ATOM     69  O2S IDS d 502      26.689  21.271 144.635  0.00  0.00    -0.572 OA
ATOM     70  O1S IDS d 502      24.805  22.592 143.875  0.00  0.00    -0.572 OA
ATOM     71  O5  IDS d 502      30.630  23.656 144.808  0.00  0.00    -0.340 OA
ATOM     72  S   IDS d 502      26.187  22.162 143.562  0.00  0.00     0.252 S 
ATOM     73  C1  IDS d 502      29.555  23.337 143.917  0.00  0.00     0.161 C 
ATOM     74  O61 IDS d 502      32.382  24.933 147.230  0.00  0.00    -0.646 OA
ATOM     75  O62 IDS d 502      32.051  25.928 145.303  0.00  0.00    -0.646 OA
ATOM     76  C5  IDS d 502      30.387  24.383 146.029  0.00  0.00     0.152 C 
ATOM     77  O3  IDS d 502      27.021  25.740 145.127  0.00  0.00    -0.390 OA
ATOM     78  C6  IDS d 502      31.682  25.159 146.222  0.00  0.00     0.206 C 
ATOM     79  O3S IDS d 502      26.202  21.431 142.276  0.00  0.00    -0.572 OA
ATOM     80  C4  IDS d 502      29.226  25.396 145.991  0.00  0.00     0.103 C 
ATOM     81  C2  IDS d 502      28.214  23.785 144.452  0.00  0.00     0.134 C 
ATOM     82  H   IDS d 502      28.682  25.806 143.964  0.00  0.00     0.091 H 
ATOM     83  H   IDS d 502      29.757  23.870 143.012  0.00  0.00     0.133 H 
ATOM     84  H   IDS d 502      30.111  23.695 146.801  0.00  0.00     0.104 H 
ATOM     85  H   IDS d 502      26.669  25.242 145.882  0.00  0.00     0.210 HD
ATOM     86  H   IDS d 502      28.649  25.149 146.857  0.00  0.00     0.092 H 
ATOM     87  H   IDS d 502      27.948  23.225 145.324  0.00  0.00     0.097 H 
ENDROOT
TORSDOF 28
ENDMDL
MODEL 21
REMARK VINA RESULT:      -5.9      3.986      6.287
REMARK  0 active torsions:
REMARK  status: ('A' for Active; 'I' for Inactive)
REMARK       I    between atoms: O3_1  and  C3_18 
REMARK       I    between atoms: O6_2  and  C6_6 
REMARK       I    between atoms: O6_2  and  S2_52 
REMARK       I    between atoms: C4_3  and  O4_50 
REMARK       I    between atoms: C6_4  and  C5_31 
REMARK       I    between atoms: C6_4  and  O6_12 
REMARK       I    between atoms: C6_6  and  C5_15 
REMARK       I    between atoms: O2_7  and  C2_53 
REMARK       I    between atoms: O2_7  and  S_26 
REMARK       I    between atoms: C3_8  and  O3_38 
REMARK       I    between atoms: S1_9  and  N_19 
REMARK       I    between atoms: S1_9  and  O1S_55 
REMARK       I    between atoms: S1_9  and  O2S_49 
REMARK       I    between atoms: S1_9  and  O3S_17 
REMARK       I    between atoms: O6_12  and  S2_45 
REMARK       I    between atoms: O1S_14  and  S1_48 
REMARK       I    between atoms: O3S_16  and  S1_48 
REMARK       I    between atoms: N_19  and  C2_46 
REMARK       I    between atoms: O1_22  and  C1_24 
REMARK       I    between atoms: O1_22  and  C4_41 
REMARK       I    between atoms: N_23  and  C2_47 
REMARK       I    between atoms: N_23  and  S1_48 
REMARK       I    between atoms: O2S_25  and  S1_48 
REMARK       I    between atoms: C1_27  and  O4_44 
REMARK       I    between atoms: C3_34  and  O3_43 
REMARK       I    between atoms: C1_35  and  O1_36 
REMARK       I    between atoms: C5_37  and  C6_39 
REMARK       I    between atoms: O4_44  and  C4_54 
ROOT
ATOM      1  O3  SGN d 503      28.166  18.856 148.158  0.00  0.00    -0.391 OA
ATOM      2  O6  SGN d 503      32.059  18.345 145.633  0.00  0.00    -0.254 OA
ATOM      3  C6  SGN d 503      31.663  16.997 145.404  0.00  0.00     0.067 C 
ATOM      4  O1S SGN d 503      30.292  18.318 152.305  0.00  0.00    -0.296 OA
ATOM      5  C5  SGN d 503      30.683  16.646 146.508  0.00  0.00     0.091 C 
ATOM      6  O3S SGN d 503      28.812  19.722 151.010  0.00  0.00    -0.296 OA
ATOM      7  C3  SGN d 503      28.915  17.678 147.946  0.00  0.00     0.083 C 
ATOM      8  O4S SGN d 503      32.812  19.654 143.467  0.00  0.00    -0.572 OA
ATOM      9  N   SGN d 503      28.991  17.171 150.311  0.00  0.00    -0.210 NA
ATOM     10  O2S SGN d 503      27.892  18.090 152.548  0.00  0.00    -0.296 OA
ATOM     11  O5  SGN d 503      31.449  16.421 147.693  0.00  0.00    -0.350 OA
ATOM     12  O6S SGN d 503      34.042  20.074 145.516  0.00  0.00    -0.572 OA
ATOM     13  O5S SGN d 503      34.318  17.987 144.324  0.00  0.00    -0.572 OA
ATOM     14  C1  SGN d 503      30.686  16.189 148.875  0.00  0.00     0.147 C 
ATOM     15  O1  SGN d 503      29.880  15.024 148.726  0.00  0.00    -0.369 OA
ATOM     16  O4  SGN d 503      28.907  17.969 145.579  0.00  0.00    -0.348 OA
ATOM     17  C2  SGN d 503      29.809  17.402 149.140  0.00  0.00     0.081 C 
ATOM     18  S1  SGN d 503      28.995  18.376 151.599  0.00  0.00     0.156 S 
ATOM     19  S2  SGN d 503      33.368  19.048 144.695  0.00  0.00     0.251 S 
ATOM     20  C4  SGN d 503      29.770  17.847 146.707  0.00  0.00     0.095 C 
ATOM     21  H   SGN d 503      27.617  18.751 148.950  0.00  0.00     0.210 HD
ATOM     22  H   SGN d 503      32.514  16.350 145.445  0.00  0.00     0.080 H 
ATOM     23  H   SGN d 503      31.217  16.883 144.439  0.00  0.00     0.080 H 
ATOM     24  H   SGN d 503      31.010  18.506 151.680  0.00  0.00     0.231 HD
ATOM     25  H   SGN d 503      30.099  15.780 146.274  0.00  0.00     0.090 H 
ATOM     26  H   SGN d 503      29.536  19.904 150.390  0.00  0.00     0.231 HD
ATOM     27  H   SGN d 503      28.243  16.856 147.817  0.00  0.00     0.089 H 
ATOM     28  H   SGN d 503      29.299  16.291 150.723  0.00  0.00     0.140 HD
ATOM     29  H   SGN d 503      27.895  18.753 153.256  0.00  0.00     0.231 HD
ATOM     30  H   SGN d 503      31.347  16.032 149.701  0.00  0.00     0.131 H 
ATOM     31  H   SGN d 503      29.271  15.145 147.980  0.00  0.00     0.212 HD
ATOM     32  H   SGN d 503      30.440  18.250 149.307  0.00  0.00     0.076 H 
ATOM     33  H   SGN d 503      30.381  18.719 146.819  0.00  0.00     0.091 H 
ATOM     34  C4  SGN d 501      27.894  25.769 141.577  0.00  0.00     0.089 C 
ATOM     35  C6  SGN d 501      26.304  25.756 143.535  0.00  0.00     0.067 C 
ATOM     36  O6S SGN d 501      23.311  27.030 144.378  0.00  0.00    -0.572 OA
ATOM     37  S1  SGN d 501      29.507  22.736 137.998  0.00  0.00     0.156 S 
ATOM     38  O6  SGN d 501      24.999  25.182 143.467  0.00  0.00    -0.254 OA
ATOM     39  O5S SGN d 501      23.889  27.126 142.031  0.00  0.00    -0.572 OA
ATOM     40  O3S SGN d 501      28.751  23.847 137.377  0.00  0.00    -0.296 OA
ATOM     41  N   SGN d 501      29.296  22.772 139.757  0.00  0.00    -0.210 NA
ATOM     42  O1  SGN d 501      28.468  22.318 142.392  0.00  0.00    -0.348 OA
ATOM     43  C1  SGN d 501      27.551  22.903 141.469  0.00  0.00     0.150 C 
ATOM     44  C5  SGN d 501      27.284  24.939 142.699  0.00  0.00     0.090 C 
ATOM     45  C3  SGN d 501      28.928  24.928 140.839  0.00  0.00     0.083 C 
ATOM     46  O4S SGN d 501      22.420  25.385 142.844  0.00  0.00    -0.572 OA
ATOM     47  O3  SGN d 501      29.456  25.657 139.749  0.00  0.00    -0.391 OA
ATOM     48  S2  SGN d 501      23.598  26.223 143.168  0.00  0.00     0.251 S 
ATOM     49  C2  SGN d 501      28.286  23.634 140.344  0.00  0.00     0.081 C 
ATOM     50  O2S SGN d 501      30.945  22.878 137.671  0.00  0.00    -0.296 OA
ATOM     51  O4  SGN d 501      28.516  26.935 142.120  0.00  0.00    -0.390 OA
ATOM     52  O5  SGN d 501      26.646  23.789 142.134  0.00  0.00    -0.349 OA
ATOM     53  O1S SGN d 501      29.001  21.447 137.474  0.00  0.00    -0.296 OA
ATOM     54  H   SGN d 501      27.127  26.072 140.895  0.00  0.00     0.091 H 
ATOM     55  H   SGN d 501      26.269  26.758 143.160  0.00  0.00     0.080 H 
ATOM     56  H   SGN d 501      26.631  25.757 144.553  0.00  0.00     0.080 H 
ATOM     57  H   SGN d 501      27.809  23.756 137.589  0.00  0.00     0.231 HD
ATOM     58  H   SGN d 501      30.192  23.053 140.156  0.00  0.00     0.140 HD
ATOM     59  H   SGN d 501      26.984  22.107 141.033  0.00  0.00     0.131 H 
ATOM     60  H   SGN d 501      28.063  24.626 143.360  0.00  0.00     0.090 H 
ATOM     61  H   SGN d 501      29.725  24.685 141.511  0.00  0.00     0.089 H 
ATOM     62  H   SGN d 501      28.740  25.883 139.134  0.00  0.00     0.210 HD
ATOM     63  H   SGN d 501      27.562  23.889 139.598  0.00  0.00     0.076 H 
ATOM     64  H   SGN d 501      31.442  22.151 138.077  0.00  0.00     0.231 HD
ATOM     65  H   SGN d 501      29.213  26.669 142.740  0.00  0.00     0.210 HD
ATOM     66  H   SGN d 501      29.494  20.716 137.879  0.00  0.00     0.231 HD
ATOM     67  O2  IDS d 502      29.635  17.685 142.879  0.00  0.00    -0.244 OA
ATOM     68  C3  IDS d 502      29.061  19.979 142.472  0.00  0.00     0.094 C 
ATOM     69  O2S IDS d 502      27.632  16.073 143.551  0.00  0.00    -0.572 OA
ATOM     70  O1S IDS d 502      28.770  15.613 141.462  0.00  0.00    -0.572 OA
ATOM     71  O5  IDS d 502      28.525  20.274 145.225  0.00  0.00    -0.340 OA
ATOM     72  S   IDS d 502      28.945  16.058 142.864  0.00  0.00     0.252 S 
ATOM     73  C1  IDS d 502      29.187  19.094 144.753  0.00  0.00     0.161 C 
ATOM     74  O61 IDS d 502      26.839  23.051 145.349  0.00  0.00    -0.646 OA
ATOM     75  O62 IDS d 502      28.987  22.942 144.916  0.00  0.00    -0.646 OA
ATOM     76  C5  IDS d 502      27.667  21.038 144.355  0.00  0.00     0.152 C 
ATOM     77  O3  IDS d 502      28.897  19.644 141.110  0.00  0.00    -0.390 OA
ATOM     78  C6  IDS d 502      27.831  22.457 144.880  0.00  0.00     0.206 C 
ATOM     79  O3S IDS d 502      29.853  15.130 143.571  0.00  0.00    -0.572 OA
ATOM     80  C4  IDS d 502      28.047  21.037 142.861  0.00  0.00     0.103 C 
ATOM     81  C2  IDS d 502      28.816  18.760 143.326  0.00  0.00     0.134 C 
ATOM     82  H   IDS d 502      30.056  20.344 142.621  0.00  0.00     0.091 H 
ATOM     83  H   IDS d 502      30.234  19.312 144.792  0.00  0.00     0.133 H 
ATOM     84  H   IDS d 502      26.681  20.622 144.376  0.00  0.00     0.104 H 
ATOM     85  H   IDS d 502      27.997  19.312 140.964  0.00  0.00     0.210 HD
ATOM     86  H   IDS d 502      27.132  20.781 142.369  0.00  0.00     0.092 H 
ATOM     87  H   IDS d 502      27.787  18.474 143.259  0.00  0.00     0.097 H 
ENDROOT
TORSDOF 28
ENDMDL
MODEL 22
REMARK VINA RESULT:      -5.9      4.344     10.323
REMARK  0 active torsions:
REMARK  status: ('A' for Active; 'I' for Inactive)
REMARK       I    between atoms: O3_1  and  C3_18 
REMARK       I    between atoms: O6_2  and  C6_6 
REMARK       I    between atoms: O6_2  and  S2_52 
REMARK       I    between atoms: C4_3  and  O4_50 
REMARK       I    between atoms: C6_4  and  C5_31 
REMARK       I    between atoms: C6_4  and  O6_12 
REMARK       I    between atoms: C6_6  and  C5_15 
REMARK       I    between atoms: O2_7  and  C2_53 
REMARK       I    between atoms: O2_7  and  S_26 
REMARK       I    between atoms: C3_8  and  O3_38 
REMARK       I    between atoms: S1_9  and  N_19 
REMARK       I    between atoms: S1_9  and  O1S_55 
REMARK       I    between atoms: S1_9  and  O2S_49 
REMARK       I    between atoms: S1_9  and  O3S_17 
REMARK       I    between atoms: O6_12  and  S2_45 
REMARK       I    between atoms: O1S_14  and  S1_48 
REMARK       I    between atoms: O3S_16  and  S1_48 
REMARK       I    between atoms: N_19  and  C2_46 
REMARK       I    between atoms: O1_22  and  C1_24 
REMARK       I    between atoms: O1_22  and  C4_41 
REMARK       I    between atoms: N_23  and  C2_47 
REMARK       I    between atoms: N_23  and  S1_48 
REMARK       I    between atoms: O2S_25  and  S1_48 
REMARK       I    between atoms: C1_27  and  O4_44 
REMARK       I    between atoms: C3_34  and  O3_43 
REMARK       I    between atoms: C1_35  and  O1_36 
REMARK       I    between atoms: C5_37  and  C6_39 
REMARK       I    between atoms: O4_44  and  C4_54 
ROOT
ATOM      1  O3  SGN d 503      30.615  22.470 140.740  0.00  0.00    -0.391 OA
ATOM      2  O6  SGN d 503      27.424  21.731 144.065  0.00  0.00    -0.254 OA
ATOM      3  C6  SGN d 503      26.763  20.860 143.155  0.00  0.00     0.067 C 
ATOM      4  O1S SGN d 503      28.794  26.555 139.322  0.00  0.00    -0.296 OA
ATOM      5  C5  SGN d 503      27.240  21.248 141.768  0.00  0.00     0.091 C 
ATOM      6  O3S SGN d 503      30.810  25.432 140.042  0.00  0.00    -0.296 OA
ATOM      7  C3  SGN d 503      29.254  22.136 140.577  0.00  0.00     0.083 C 
ATOM      8  O4S SGN d 503      27.758  20.742 146.491  0.00  0.00    -0.572 OA
ATOM      9  N   SGN d 503      28.889  23.933 138.998  0.00  0.00    -0.210 NA
ATOM     10  O2S SGN d 503      30.359  25.708 137.677  0.00  0.00    -0.296 OA
ATOM     11  O5  SGN d 503      26.558  22.451 141.411  0.00  0.00    -0.350 OA
ATOM     12  O6S SGN d 503      27.208  23.098 146.307  0.00  0.00    -0.572 OA
ATOM     13  O5S SGN d 503      25.532  21.408 145.872  0.00  0.00    -0.572 OA
ATOM     14  C1  SGN d 503      26.963  23.037 140.176  0.00  0.00     0.147 C 
ATOM     15  O1  SGN d 503      26.725  22.139 139.097  0.00  0.00    -0.369 OA
ATOM     16  O4  SGN d 503      29.418  20.281 142.066  0.00  0.00    -0.348 OA
ATOM     17  C2  SGN d 503      28.443  23.378 140.257  0.00  0.00     0.081 C 
ATOM     18  S1  SGN d 503      29.751  25.473 139.008  0.00  0.00     0.156 S 
ATOM     19  S2  SGN d 503      26.960  21.749 145.760  0.00  0.00     0.251 S 
ATOM     20  C4  SGN d 503      28.736  21.515 141.858  0.00  0.00     0.095 C 
ATOM     21  H   SGN d 503      30.950  22.867 139.921  0.00  0.00     0.210 HD
ATOM     22  H   SGN d 503      25.703  20.982 143.229  0.00  0.00     0.080 H 
ATOM     23  H   SGN d 503      26.984  19.835 143.369  0.00  0.00     0.080 H 
ATOM     24  H   SGN d 503      28.400  26.395 140.195  0.00  0.00     0.231 HD
ATOM     25  H   SGN d 503      27.050  20.484 141.043  0.00  0.00     0.090 H 
ATOM     26  H   SGN d 503      30.407  25.278 140.911  0.00  0.00     0.231 HD
ATOM     27  H   SGN d 503      29.159  21.441 139.770  0.00  0.00     0.089 H 
ATOM     28  H   SGN d 503      28.062  24.057 138.415  0.00  0.00     0.140 HD
ATOM     29  H   SGN d 503      30.832  26.555 137.683  0.00  0.00     0.231 HD
ATOM     30  H   SGN d 503      26.396  23.926 140.000  0.00  0.00     0.131 H 
ATOM     31  H   SGN d 503      27.232  21.323 139.237  0.00  0.00     0.212 HD
ATOM     32  H   SGN d 503      28.585  24.098 141.036  0.00  0.00     0.076 H 
ATOM     33  H   SGN d 503      28.909  22.190 142.670  0.00  0.00     0.091 H 
ATOM     34  C4  SGN d 501      35.512  19.580 148.411  0.00  0.00     0.089 C 
ATOM     35  C6  SGN d 501      36.678  20.565 146.403  0.00  0.00     0.067 C 
ATOM     36  O6S SGN d 501      39.725  20.564 144.988  0.00  0.00    -0.572 OA
ATOM     37  S1  SGN d 501      32.174  16.076 149.501  0.00  0.00     0.156 S 
ATOM     38  O6  SGN d 501      37.210  19.765 145.349  0.00  0.00    -0.254 OA
ATOM     39  O5S SGN d 501      39.335  18.883 146.684  0.00  0.00    -0.572 OA
ATOM     40  O3S SGN d 501      33.479  15.689 150.084  0.00  0.00    -0.296 OA
ATOM     41  N   SGN d 501      32.383  17.466 148.423  0.00  0.00    -0.210 NA
ATOM     42  O1  SGN d 501      32.708  19.147 146.208  0.00  0.00    -0.348 OA
ATOM     43  C1  SGN d 501      33.755  18.241 146.549  0.00  0.00     0.150 C 
ATOM     44  C5  SGN d 501      35.391  19.946 146.938  0.00  0.00     0.090 C 
ATOM     45  C3  SGN d 501      34.171  19.054 148.907  0.00  0.00     0.083 C 
ATOM     46  O4S SGN d 501      39.188  18.295 144.342  0.00  0.00    -0.572 OA
ATOM     47  O3  SGN d 501      34.281  18.644 150.255  0.00  0.00    -0.391 OA
ATOM     48  S2  SGN d 501      38.935  19.360 145.340  0.00  0.00     0.251 S 
ATOM     49  C2  SGN d 501      33.718  17.884 148.037  0.00  0.00     0.081 C 
ATOM     50  O2S SGN d 501      31.237  16.434 150.591  0.00  0.00    -0.296 OA
ATOM     51  O4  SGN d 501      35.890  20.733 149.166  0.00  0.00    -0.390 OA
ATOM     52  O5  SGN d 501      35.035  18.775 146.195  0.00  0.00    -0.349 OA
ATOM     53  O1S SGN d 501      31.627  14.938 148.727  0.00  0.00    -0.296 OA
ATOM     54  H   SGN d 501      36.260  18.825 148.535  0.00  0.00     0.091 H 
ATOM     55  H   SGN d 501      37.394  20.629 147.195  0.00  0.00     0.080 H 
ATOM     56  H   SGN d 501      36.463  21.542 146.024  0.00  0.00     0.080 H 
ATOM     57  H   SGN d 501      34.094  15.454 149.372  0.00  0.00     0.231 HD
ATOM     58  H   SGN d 501      31.944  18.264 148.882  0.00  0.00     0.140 HD
ATOM     59  H   SGN d 501      33.598  17.343 145.989  0.00  0.00     0.131 H 
ATOM     60  H   SGN d 501      34.626  20.685 146.827  0.00  0.00     0.090 H 
ATOM     61  H   SGN d 501      33.443  19.836 148.843  0.00  0.00     0.089 H 
ATOM     62  H   SGN d 501      34.940  17.934 150.324  0.00  0.00     0.210 HD
ATOM     63  H   SGN d 501      34.401  17.075 148.191  0.00  0.00     0.076 H 
ATOM     64  H   SGN d 501      30.381  16.688 150.212  0.00  0.00     0.231 HD
ATOM     65  H   SGN d 501      35.217  21.423 149.060  0.00  0.00     0.210 HD
ATOM     66  H   SGN d 501      30.772  15.188 148.344  0.00  0.00     0.231 HD
ATOM     67  O2  IDS d 502      28.648  18.219 143.815  0.00  0.00    -0.244 OA
ATOM     68  C3  IDS d 502      30.653  18.542 145.094  0.00  0.00     0.094 C 
ATOM     69  O2S IDS d 502      28.971  17.351 141.324  0.00  0.00    -0.572 OA
ATOM     70  O1S IDS d 502      27.796  15.893 142.862  0.00  0.00    -0.572 OA
ATOM     71  O5  IDS d 502      31.294  20.728 143.432  0.00  0.00    -0.340 OA
ATOM     72  S   IDS d 502      28.007  17.299 142.449  0.00  0.00     0.252 S 
ATOM     73  C1  IDS d 502      29.987  20.143 143.364  0.00  0.00     0.161 C 
ATOM     74  O61 IDS d 502      34.441  21.236 144.070  0.00  0.00    -0.646 OA
ATOM     75  O62 IDS d 502      32.818  21.692 145.475  0.00  0.00    -0.646 OA
ATOM     76  C5  IDS d 502      32.425  19.959 143.886  0.00  0.00     0.152 C 
ATOM     77  O3  IDS d 502      30.512  17.215 145.558  0.00  0.00    -0.390 OA
ATOM     78  C6  IDS d 502      33.307  21.012 144.542  0.00  0.00     0.206 C 
ATOM     79  O3S IDS d 502      26.722  17.889 142.016  0.00  0.00    -0.572 OA
ATOM     80  C4  IDS d 502      32.124  18.870 144.935  0.00  0.00     0.103 C 
ATOM     81  C2  IDS d 502      29.994  18.680 143.745  0.00  0.00     0.134 C 
ATOM     82  H   IDS d 502      30.198  19.205 145.800  0.00  0.00     0.091 H 
ATOM     83  H   IDS d 502      29.391  20.678 144.072  0.00  0.00     0.133 H 
ATOM     84  H   IDS d 502      32.841  19.421 143.060  0.00  0.00     0.104 H 
ATOM     85  H   IDS d 502      30.922  16.605 144.924  0.00  0.00     0.210 HD
ATOM     86  H   IDS d 502      32.591  17.997 144.531  0.00  0.00     0.092 H 
ATOM     87  H   IDS d 502      30.529  18.102 143.021  0.00  0.00     0.097 H 
ENDROOT
TORSDOF 28
ENDMDL
MODEL 23
REMARK VINA RESULT:      -5.9      3.284      4.640
REMARK  0 active torsions:
REMARK  status: ('A' for Active; 'I' for Inactive)
REMARK       I    between atoms: O3_1  and  C3_18 
REMARK       I    between atoms: O6_2  and  C6_6 
REMARK       I    between atoms: O6_2  and  S2_52 
REMARK       I    between atoms: C4_3  and  O4_50 
REMARK       I    between atoms: C6_4  and  C5_31 
REMARK       I    between atoms: C6_4  and  O6_12 
REMARK       I    between atoms: C6_6  and  C5_15 
REMARK       I    between atoms: O2_7  and  C2_53 
REMARK       I    between atoms: O2_7  and  S_26 
REMARK       I    between atoms: C3_8  and  O3_38 
REMARK       I    between atoms: S1_9  and  N_19 
REMARK       I    between atoms: S1_9  and  O1S_55 
REMARK       I    between atoms: S1_9  and  O2S_49 
REMARK       I    between atoms: S1_9  and  O3S_17 
REMARK       I    between atoms: O6_12  and  S2_45 
REMARK       I    between atoms: O1S_14  and  S1_48 
REMARK       I    between atoms: O3S_16  and  S1_48 
REMARK       I    between atoms: N_19  and  C2_46 
REMARK       I    between atoms: O1_22  and  C1_24 
REMARK       I    between atoms: O1_22  and  C4_41 
REMARK       I    between atoms: N_23  and  C2_47 
REMARK       I    between atoms: N_23  and  S1_48 
REMARK       I    between atoms: O2S_25  and  S1_48 
REMARK       I    between atoms: C1_27  and  O4_44 
REMARK       I    between atoms: C3_34  and  O3_43 
REMARK       I    between atoms: C1_35  and  O1_36 
REMARK       I    between atoms: C5_37  and  C6_39 
REMARK       I    between atoms: O4_44  and  C4_54 
ROOT
ATOM      1  O3  SGN d 503      36.030  21.347 144.261  0.00  0.00    -0.391 OA
ATOM      2  O6  SGN d 503      32.258  20.859 141.555  0.00  0.00    -0.254 OA
ATOM      3  C6  SGN d 503      32.182  19.511 142.005  0.00  0.00     0.067 C 
ATOM      4  O1S SGN d 503      39.115  20.796 140.769  0.00  0.00    -0.296 OA
ATOM      5  C5  SGN d 503      33.565  19.152 142.516  0.00  0.00     0.091 C 
ATOM      6  O3S SGN d 503      38.455  22.201 142.621  0.00  0.00    -0.296 OA
ATOM      7  C3  SGN d 503      35.554  20.172 143.640  0.00  0.00     0.083 C 
ATOM      8  O4S SGN d 503      29.974  22.180 141.644  0.00  0.00    -0.572 OA
ATOM      9  N   SGN d 503      37.726  19.655 142.706  0.00  0.00    -0.210 NA
ATOM     10  O2S SGN d 503      40.214  20.560 142.916  0.00  0.00    -0.296 OA
ATOM     11  O5  SGN d 503      34.389  18.924 141.371  0.00  0.00    -0.350 OA
ATOM     12  O6S SGN d 503      31.436  22.594 139.752  0.00  0.00    -0.572 OA
ATOM     13  O5S SGN d 503      30.214  20.513 139.927  0.00  0.00    -0.572 OA
ATOM     14  C1  SGN d 503      35.765  18.684 141.650  0.00  0.00     0.147 C 
ATOM     15  O1  SGN d 503      35.914  17.517 142.454  0.00  0.00    -0.369 OA
ATOM     16  O4  SGN d 503      33.354  20.474 144.509  0.00  0.00    -0.348 OA
ATOM     17  C2  SGN d 503      36.339  19.893 142.372  0.00  0.00     0.081 C 
ATOM     18  S1  SGN d 503      38.931  20.854 142.235  0.00  0.00     0.156 S 
ATOM     19  S2  SGN d 503      30.912  21.570 140.678  0.00  0.00     0.251 S 
ATOM     20  C4  SGN d 503      34.089  20.349 143.294  0.00  0.00     0.095 C 
ATOM     21  H   SGN d 503      36.967  21.237 144.483  0.00  0.00     0.210 HD
ATOM     22  H   SGN d 503      31.907  18.866 141.197  0.00  0.00     0.080 H 
ATOM     23  H   SGN d 503      31.444  19.399 142.772  0.00  0.00     0.080 H 
ATOM     24  H   SGN d 503      38.272  20.989 140.329  0.00  0.00     0.231 HD
ATOM     25  H   SGN d 503      33.555  18.285 143.144  0.00  0.00     0.090 H 
ATOM     26  H   SGN d 503      37.616  22.389 142.173  0.00  0.00     0.231 HD
ATOM     27  H   SGN d 503      35.674  19.349 144.312  0.00  0.00     0.089 H 
ATOM     28  H   SGN d 503      37.993  18.773 142.269  0.00  0.00     0.140 HD
ATOM     29  H   SGN d 503      40.876  21.219 142.656  0.00  0.00     0.231 HD
ATOM     30  H   SGN d 503      36.293  18.525 140.734  0.00  0.00     0.131 H 
ATOM     31  H   SGN d 503      35.442  17.640 143.293  0.00  0.00     0.212 HD
ATOM     32  H   SGN d 503      36.268  20.742 141.724  0.00  0.00     0.076 H 
ATOM     33  H   SGN d 503      33.975  21.222 142.686  0.00  0.00     0.091 H 
ATOM     34  C4  SGN d 501      30.037  28.290 146.920  0.00  0.00     0.089 C 
ATOM     35  C6  SGN d 501      32.440  28.262 147.687  0.00  0.00     0.067 C 
ATOM     36  O6S SGN d 501      34.323  29.524 150.168  0.00  0.00    -0.572 OA
ATOM     37  S1  SGN d 501      26.101  25.277 146.718  0.00  0.00     0.156 S 
ATOM     38  O6  SGN d 501      32.849  27.685 148.926  0.00  0.00    -0.254 OA
ATOM     39  O5S SGN d 501      31.927  29.633 150.485  0.00  0.00    -0.572 OA
ATOM     40  O3S SGN d 501      25.803  26.389 147.649  0.00  0.00    -0.296 OA
ATOM     41  N   SGN d 501      27.816  25.305 146.273  0.00  0.00    -0.210 NA
ATOM     42  O1  SGN d 501      30.569  24.836 146.084  0.00  0.00    -0.348 OA
ATOM     43  C1  SGN d 501      30.046  25.422 147.275  0.00  0.00     0.150 C 
ATOM     44  C5  SGN d 501      31.300  27.453 147.078  0.00  0.00     0.090 C 
ATOM     45  C3  SGN d 501      28.970  27.454 146.224  0.00  0.00     0.083 C 
ATOM     46  O4S SGN d 501      33.210  27.884 151.555  0.00  0.00    -0.572 OA
ATOM     47  O3  SGN d 501      27.766  28.190 146.130  0.00  0.00    -0.391 OA
ATOM     48  S2  SGN d 501      33.087  28.723 150.341  0.00  0.00     0.251 S 
ATOM     49  C2  SGN d 501      28.735  26.161 147.001  0.00  0.00     0.081 C 
ATOM     50  O2S SGN d 501      25.273  25.425 145.498  0.00  0.00    -0.296 OA
ATOM     51  O4  SGN d 501      30.324  29.454 146.143  0.00  0.00    -0.390 OA
ATOM     52  O5  SGN d 501      31.000  26.303 147.877  0.00  0.00    -0.349 OA
ATOM     53  O1S SGN d 501      25.790  23.989 147.379  0.00  0.00    -0.296 OA
ATOM     54  H   SGN d 501      29.684  28.593 147.882  0.00  0.00     0.091 H 
ATOM     55  H   SGN d 501      32.109  29.266 147.856  0.00  0.00     0.080 H 
ATOM     56  H   SGN d 501      33.269  28.260 147.011  0.00  0.00     0.080 H 
ATOM     57  H   SGN d 501      26.344  26.294 148.449  0.00  0.00     0.231 HD
ATOM     58  H   SGN d 501      27.862  25.586 145.294  0.00  0.00     0.140 HD
ATOM     59  H   SGN d 501      29.843  24.627 147.961  0.00  0.00     0.131 H 
ATOM     60  H   SGN d 501      31.631  27.138 146.110  0.00  0.00     0.090 H 
ATOM     61  H   SGN d 501      29.303  27.211 145.237  0.00  0.00     0.089 H 
ATOM     62  H   SGN d 501      27.455  28.416 147.021  0.00  0.00     0.210 HD
ATOM     63  H   SGN d 501      28.306  26.417 147.947  0.00  0.00     0.076 H 
ATOM     64  H   SGN d 501      25.467  24.698 144.886  0.00  0.00     0.231 HD
ATOM     65  H   SGN d 501      30.645  29.188 145.268  0.00  0.00     0.210 HD
ATOM     66  H   SGN d 501      25.984  23.258 146.770  0.00  0.00     0.231 HD
ATOM     67  O2  IDS d 502      30.573  20.204 144.815  0.00  0.00    -0.244 OA
ATOM     68  C3  IDS d 502      30.415  22.498 145.500  0.00  0.00     0.094 C 
ATOM     69  O2S IDS d 502      31.920  18.583 146.434  0.00  0.00    -0.572 OA
ATOM     70  O1S IDS d 502      29.557  18.137 146.134  0.00  0.00    -0.572 OA
ATOM     71  O5  IDS d 502      33.176  22.779 144.997  0.00  0.00    -0.340 OA
ATOM     72  S   IDS d 502      30.802  18.575 145.461  0.00  0.00     0.252 S 
ATOM     73  C1  IDS d 502      32.488  21.604 144.551  0.00  0.00     0.161 C 
ATOM     74  O61 IDS d 502      33.921  25.551 146.524  0.00  0.00    -0.646 OA
ATOM     75  O62 IDS d 502      32.734  25.450 144.682  0.00  0.00    -0.646 OA
ATOM     76  C5  IDS d 502      32.682  23.545 146.114  0.00  0.00     0.152 C 
ATOM     77  O3  IDS d 502      29.205  22.170 146.149  0.00  0.00    -0.390 OA
ATOM     78  C6  IDS d 502      33.119  24.962 145.771  0.00  0.00     0.206 C 
ATOM     79  O3S IDS d 502      31.124  17.646 144.357  0.00  0.00    -0.572 OA
ATOM     80  C4  IDS d 502      31.152  23.551 146.304  0.00  0.00     0.103 C 
ATOM     81  C2  IDS d 502      31.293  21.275 145.416  0.00  0.00     0.134 C 
ATOM     82  H   IDS d 502      30.194  22.865 144.520  0.00  0.00     0.091 H 
ATOM     83  H   IDS d 502      32.144  21.825 143.562  0.00  0.00     0.133 H 
ATOM     84  H   IDS d 502      33.058  23.126 147.024  0.00  0.00     0.104 H 
ATOM     85  H   IDS d 502      29.395  21.836 147.040  0.00  0.00     0.210 HD
ATOM     86  H   IDS d 502      31.027  23.295 147.335  0.00  0.00     0.092 H 
ATOM     87  H   IDS d 502      31.604  20.986 146.398  0.00  0.00     0.097 H 
ENDROOT
TORSDOF 28
ENDMDL
MODEL 24
REMARK VINA RESULT:      -5.8      3.847      7.924
REMARK  0 active torsions:
REMARK  status: ('A' for Active; 'I' for Inactive)
REMARK       I    between atoms: O3_1  and  C3_18 
REMARK       I    between atoms: O6_2  and  C6_6 
REMARK       I    between atoms: O6_2  and  S2_52 
REMARK       I    between atoms: C4_3  and  O4_50 
REMARK       I    between atoms: C6_4  and  C5_31 
REMARK       I    between atoms: C6_4  and  O6_12 
REMARK       I    between atoms: C6_6  and  C5_15 
REMARK       I    between atoms: O2_7  and  C2_53 
REMARK       I    between atoms: O2_7  and  S_26 
REMARK       I    between atoms: C3_8  and  O3_38 
REMARK       I    between atoms: S1_9  and  N_19 
REMARK       I    between atoms: S1_9  and  O1S_55 
REMARK       I    between atoms: S1_9  and  O2S_49 
REMARK       I    between atoms: S1_9  and  O3S_17 
REMARK       I    between atoms: O6_12  and  S2_45 
REMARK       I    between atoms: O1S_14  and  S1_48 
REMARK       I    between atoms: O3S_16  and  S1_48 
REMARK       I    between atoms: N_19  and  C2_46 
REMARK       I    between atoms: O1_22  and  C1_24 
REMARK       I    between atoms: O1_22  and  C4_41 
REMARK       I    between atoms: N_23  and  C2_47 
REMARK       I    between atoms: N_23  and  S1_48 
REMARK       I    between atoms: O2S_25  and  S1_48 
REMARK       I    between atoms: C1_27  and  O4_44 
REMARK       I    between atoms: C3_34  and  O3_43 
REMARK       I    between atoms: C1_35  and  O1_36 
REMARK       I    between atoms: C5_37  and  C6_39 
REMARK       I    between atoms: O4_44  and  C4_54 
ROOT
ATOM      1  O3  SGN d 503      25.453  18.699 142.270  0.00  0.00    -0.391 OA
ATOM      2  O6  SGN d 503      27.155  19.096 146.598  0.00  0.00    -0.254 OA
ATOM      3  C6  SGN d 503      28.110  18.100 146.250  0.00  0.00     0.067 C 
ATOM      4  O1S SGN d 503      21.878  15.915 143.487  0.00  0.00    -0.296 OA
ATOM      5  C5  SGN d 503      27.536  17.353 145.061  0.00  0.00     0.091 C 
ATOM      6  O3S SGN d 503      22.500  17.935 142.316  0.00  0.00    -0.296 OA
ATOM      7  C3  SGN d 503      26.106  17.713 143.039  0.00  0.00     0.083 C 
ATOM      8  O4S SGN d 503      28.166  21.223 147.791  0.00  0.00    -0.572 OA
ATOM      9  N   SGN d 503      24.369  16.080 142.621  0.00  0.00    -0.210 NA
ATOM     10  O2S SGN d 503      22.211  15.866 141.088  0.00  0.00    -0.296 OA
ATOM     11  O5  SGN d 503      26.523  16.479 145.563  0.00  0.00    -0.350 OA
ATOM     12  O6S SGN d 503      26.016  20.416 148.573  0.00  0.00    -0.572 OA
ATOM     13  O5S SGN d 503      28.043  19.195 149.077  0.00  0.00    -0.572 OA
ATOM     14  C1  SGN d 503      25.784  15.771 144.571  0.00  0.00     0.147 C 
ATOM     15  O1  SGN d 503      26.650  14.938 143.806  0.00  0.00    -0.369 OA
ATOM     16  O4  SGN d 503      27.944  19.153 143.524  0.00  0.00    -0.348 OA
ATOM     17  C2  SGN d 503      25.090  16.776 143.665  0.00  0.00     0.081 C 
ATOM     18  S1  SGN d 503      22.667  16.465 142.364  0.00  0.00     0.156 S 
ATOM     19  S2  SGN d 503      27.351  20.024 148.077  0.00  0.00     0.251 S 
ATOM     20  C4  SGN d 503      26.909  18.384 144.134  0.00  0.00     0.095 C 
ATOM     21  H   SGN d 503      24.938  18.272 141.568  0.00  0.00     0.210 HD
ATOM     22  H   SGN d 503      28.260  17.429 147.070  0.00  0.00     0.080 H 
ATOM     23  H   SGN d 503      29.057  18.537 146.014  0.00  0.00     0.080 H 
ATOM     24  H   SGN d 503      22.180  16.311 144.320  0.00  0.00     0.231 HD
ATOM     25  H   SGN d 503      28.280  16.794 144.533  0.00  0.00     0.090 H 
ATOM     26  H   SGN d 503      22.800  18.322 143.153  0.00  0.00     0.231 HD
ATOM     27  H   SGN d 503      26.756  17.148 142.404  0.00  0.00     0.089 H 
ATOM     28  H   SGN d 503      24.423  15.084 142.831  0.00  0.00     0.140 HD
ATOM     29  H   SGN d 503      21.275  16.078 140.947  0.00  0.00     0.231 HD
ATOM     30  H   SGN d 503      25.056  15.148 145.045  0.00  0.00     0.131 H 
ATOM     31  H   SGN d 503      27.320  15.484 143.366  0.00  0.00     0.212 HD
ATOM     32  H   SGN d 503      24.403  17.348 144.253  0.00  0.00     0.076 H 
ATOM     33  H   SGN d 503      26.260  19.007 144.713  0.00  0.00     0.091 H 
ATOM     34  C4  SGN d 501      27.463  27.964 143.407  0.00  0.00     0.089 C 
ATOM     35  C6  SGN d 501      26.105  27.145 141.445  0.00  0.00     0.067 C 
ATOM     36  O6S SGN d 501      25.264  28.148 138.350  0.00  0.00    -0.572 OA
ATOM     37  S1  SGN d 501      31.747  26.983 145.708  0.00  0.00     0.156 S 
ATOM     38  O6  SGN d 501      26.685  26.834 140.180  0.00  0.00    -0.254 OA
ATOM     39  O5S SGN d 501      27.083  29.346 139.403  0.00  0.00    -0.572 OA
ATOM     40  O3S SGN d 501      31.828  28.332 145.105  0.00  0.00    -0.296 OA
ATOM     41  N   SGN d 501      30.289  26.154 145.138  0.00  0.00    -0.210 NA
ATOM     42  O1  SGN d 501      28.456  24.532 143.779  0.00  0.00    -0.348 OA
ATOM     43  C1  SGN d 501      29.090  25.599 143.077  0.00  0.00     0.150 C 
ATOM     44  C5  SGN d 501      27.056  26.757 142.573  0.00  0.00     0.090 C 
ATOM     45  C3  SGN d 501      28.335  27.498 144.566  0.00  0.00     0.083 C 
ATOM     46  O4S SGN d 501      27.554  27.609 137.787  0.00  0.00    -0.572 OA
ATOM     47  O3  SGN d 501      28.782  28.613 145.313  0.00  0.00    -0.391 OA
ATOM     48  S2  SGN d 501      26.645  28.032 138.877  0.00  0.00     0.251 S 
ATOM     49  C2  SGN d 501      29.529  26.710 144.033  0.00  0.00     0.081 C 
ATOM     50  O2S SGN d 501      31.697  27.109 147.184  0.00  0.00    -0.296 OA
ATOM     51  O4  SGN d 501      26.298  28.621 143.909  0.00  0.00    -0.390 OA
ATOM     52  O5  SGN d 501      28.233  26.126 142.059  0.00  0.00    -0.349 OA
ATOM     53  O1S SGN d 501      32.939  26.198 145.315  0.00  0.00    -0.296 OA
ATOM     54  H   SGN d 501      28.013  28.652 142.799  0.00  0.00     0.091 H 
ATOM     55  H   SGN d 501      25.909  28.196 141.495  0.00  0.00     0.080 H 
ATOM     56  H   SGN d 501      25.193  26.598 141.555  0.00  0.00     0.080 H 
ATOM     57  H   SGN d 501      31.861  28.253 144.138  0.00  0.00     0.231 HD
ATOM     58  H   SGN d 501      29.653  26.093 145.934  0.00  0.00     0.140 HD
ATOM     59  H   SGN d 501      29.965  25.200 142.608  0.00  0.00     0.131 H 
ATOM     60  H   SGN d 501      26.526  26.068 143.197  0.00  0.00     0.090 H 
ATOM     61  H   SGN d 501      27.757  26.863 145.206  0.00  0.00     0.089 H 
ATOM     62  H   SGN d 501      29.307  29.195 144.742  0.00  0.00     0.210 HD
ATOM     63  H   SGN d 501      30.150  27.384 143.482  0.00  0.00     0.076 H 
ATOM     64  H   SGN d 501      31.643  26.226 147.582  0.00  0.00     0.231 HD
ATOM     65  H   SGN d 501      25.793  28.004 144.461  0.00  0.00     0.210 HD
ATOM     66  H   SGN d 501      32.889  25.313 145.710  0.00  0.00     0.231 HD
ATOM     67  O2  IDS d 502      30.229  20.185 144.794  0.00  0.00    -0.244 OA
ATOM     68  C3  IDS d 502      29.490  22.420 144.329  0.00  0.00     0.094 C 
ATOM     69  O2S IDS d 502      30.845  18.688 142.685  0.00  0.00    -0.572 OA
ATOM     70  O1S IDS d 502      32.636  19.218 144.229  0.00  0.00    -0.572 OA
ATOM     71  O5  IDS d 502      27.121  21.349 143.236  0.00  0.00    -0.340 OA
ATOM     72  S   IDS d 502      31.200  18.875 144.112  0.00  0.00     0.252 S 
ATOM     73  C1  IDS d 502      28.009  20.501 143.975  0.00  0.00     0.161 C 
ATOM     74  O61 IDS d 502      25.882  23.855 141.577  0.00  0.00    -0.646 OA
ATOM     75  O62 IDS d 502      25.926  23.740 143.768  0.00  0.00    -0.646 OA
ATOM     76  C5  IDS d 502      27.608  22.537 142.582  0.00  0.00     0.152 C 
ATOM     77  O3  IDS d 502      30.834  22.837 144.449  0.00  0.00    -0.390 OA
ATOM     78  C6  IDS d 502      26.407  23.471 142.642  0.00  0.00     0.206 C 
ATOM     79  O3S IDS d 502      30.926  17.622 144.849  0.00  0.00    -0.572 OA
ATOM     80  C4  IDS d 502      28.796  23.245 143.264  0.00  0.00     0.103 C 
ATOM     81  C2  IDS d 502      29.443  20.974 143.906  0.00  0.00     0.134 C 
ATOM     82  H   IDS d 502      29.003  22.547 145.274  0.00  0.00     0.091 H 
ATOM     83  H   IDS d 502      27.681  20.552 144.993  0.00  0.00     0.133 H 
ATOM     84  H   IDS d 502      27.977  22.280 141.610  0.00  0.00     0.104 H 
ATOM     85  H   IDS d 502      31.285  22.726 143.597  0.00  0.00     0.210 HD
ATOM     86  H   IDS d 502      29.500  23.374 142.469  0.00  0.00     0.092 H 
ATOM     87  H   IDS d 502      29.827  20.877 142.912  0.00  0.00     0.097 H 
ENDROOT
TORSDOF 28
ENDMDL
MODEL 25
REMARK VINA RESULT:      -5.8      3.996      8.232
REMARK  0 active torsions:
REMARK  status: ('A' for Active; 'I' for Inactive)
REMARK       I    between atoms: O3_1  and  C3_18 
REMARK       I    between atoms: O6_2  and  C6_6 
REMARK       I    between atoms: O6_2  and  S2_52 
REMARK       I    between atoms: C4_3  and  O4_50 
REMARK       I    between atoms: C6_4  and  C5_31 
REMARK       I    between atoms: C6_4  and  O6_12 
REMARK       I    between atoms: C6_6  and  C5_15 
REMARK       I    between atoms: O2_7  and  C2_53 
REMARK       I    between atoms: O2_7  and  S_26 
REMARK       I    between atoms: C3_8  and  O3_38 
REMARK       I    between atoms: S1_9  and  N_19 
REMARK       I    between atoms: S1_9  and  O1S_55 
REMARK       I    between atoms: S1_9  and  O2S_49 
REMARK       I    between atoms: S1_9  and  O3S_17 
REMARK       I    between atoms: O6_12  and  S2_45 
REMARK       I    between atoms: O1S_14  and  S1_48 
REMARK       I    between atoms: O3S_16  and  S1_48 
REMARK       I    between atoms: N_19  and  C2_46 
REMARK       I    between atoms: O1_22  and  C1_24 
REMARK       I    between atoms: O1_22  and  C4_41 
REMARK       I    between atoms: N_23  and  C2_47 
REMARK       I    between atoms: N_23  and  S1_48 
REMARK       I    between atoms: O2S_25  and  S1_48 
REMARK       I    between atoms: C1_27  and  O4_44 
REMARK       I    between atoms: C3_34  and  O3_43 
REMARK       I    between atoms: C1_35  and  O1_36 
REMARK       I    between atoms: C5_37  and  C6_39 
REMARK       I    between atoms: O4_44  and  C4_54 
ROOT
ATOM      1  O3  SGN d 503      34.414  22.649 147.830  0.00  0.00    -0.391 OA
ATOM      2  O6  SGN d 503      30.982  24.395 150.468  0.00  0.00    -0.254 OA
ATOM      3  C6  SGN d 503      31.919  25.350 150.952  0.00  0.00     0.067 C 
ATOM      4  O1S SGN d 503      35.399  19.098 150.733  0.00  0.00    -0.296 OA
ATOM      5  C5  SGN d 503      33.296  24.766 150.695  0.00  0.00     0.091 C 
ATOM      6  O3S SGN d 503      34.885  19.700 148.450  0.00  0.00    -0.296 OA
ATOM      7  C3  SGN d 503      34.525  23.314 149.069  0.00  0.00     0.083 C 
ATOM      8  O4S SGN d 503      28.665  25.411 149.712  0.00  0.00    -0.572 OA
ATOM      9  N   SGN d 503      35.933  21.579 149.998  0.00  0.00    -0.210 NA
ATOM     10  O2S SGN d 503      37.191  19.405 149.133  0.00  0.00    -0.296 OA
ATOM     11  O5  SGN d 503      33.518  23.762 151.687  0.00  0.00    -0.350 OA
ATOM     12  O6S SGN d 503      28.631  23.272 150.857  0.00  0.00    -0.572 OA
ATOM     13  O5S SGN d 503      29.103  25.310 152.075  0.00  0.00    -0.572 OA
ATOM     14  C1  SGN d 503      34.723  23.016 151.537  0.00  0.00     0.147 C 
ATOM     15  O1  SGN d 503      35.855  23.877 151.619  0.00  0.00    -0.369 OA
ATOM     16  O4  SGN d 503      33.199  25.152 148.326  0.00  0.00    -0.348 OA
ATOM     17  C2  SGN d 503      34.699  22.308 150.191  0.00  0.00     0.081 C 
ATOM     18  S1  SGN d 503      35.851  19.873 149.558  0.00  0.00     0.156 S 
ATOM     19  S2  SGN d 503      29.267  24.603 150.793  0.00  0.00     0.251 S 
ATOM     20  C4  SGN d 503      33.270  24.126 149.314  0.00  0.00     0.095 C 
ATOM     21  H   SGN d 503      35.216  22.128 147.670  0.00  0.00     0.210 HD
ATOM     22  H   SGN d 503      31.776  25.512 152.000  0.00  0.00     0.080 H 
ATOM     23  H   SGN d 503      31.800  26.293 150.461  0.00  0.00     0.080 H 
ATOM     24  H   SGN d 503      34.521  19.408 151.007  0.00  0.00     0.231 HD
ATOM     25  H   SGN d 503      34.067  25.507 150.738  0.00  0.00     0.090 H 
ATOM     26  H   SGN d 503      34.009  20.007 148.734  0.00  0.00     0.231 HD
ATOM     27  H   SGN d 503      35.378  23.959 149.044  0.00  0.00     0.089 H 
ATOM     28  H   SGN d 503      36.458  21.639 150.870  0.00  0.00     0.140 HD
ATOM     29  H   SGN d 503      37.145  18.467 148.891  0.00  0.00     0.231 HD
ATOM     30  H   SGN d 503      34.796  22.296 152.324  0.00  0.00     0.131 H 
ATOM     31  H   SGN d 503      35.809  24.540 150.912  0.00  0.00     0.212 HD
ATOM     32  H   SGN d 503      33.875  21.626 150.180  0.00  0.00     0.076 H 
ATOM     33  H   SGN d 503      32.418  23.481 149.259  0.00  0.00     0.091 H 
ATOM     34  C4  SGN d 501      27.283  24.636 141.797  0.00  0.00     0.089 C 
ATOM     35  C6  SGN d 501      29.270  23.260 141.075  0.00  0.00     0.067 C 
ATOM     36  O6S SGN d 501      30.850  22.382 138.243  0.00  0.00    -0.572 OA
ATOM     37  S1  SGN d 501      26.287  28.947 144.040  0.00  0.00     0.156 S 
ATOM     38  O6  SGN d 501      30.412  23.828 140.437  0.00  0.00    -0.254 OA
ATOM     39  O5S SGN d 501      29.273  24.208 138.064  0.00  0.00    -0.572 OA
ATOM     40  O3S SGN d 501      25.811  29.017 142.640  0.00  0.00    -0.296 OA
ATOM     41  N   SGN d 501      27.262  27.486 144.274  0.00  0.00    -0.210 NA
ATOM     42  O1  SGN d 501      29.352  25.645 144.555  0.00  0.00    -0.348 OA
ATOM     43  C1  SGN d 501      29.143  26.268 143.289  0.00  0.00     0.150 C 
ATOM     44  C5  SGN d 501      28.714  24.224 142.118  0.00  0.00     0.090 C 
ATOM     45  C3  SGN d 501      26.756  25.521 142.919  0.00  0.00     0.083 C 
ATOM     46  O4S SGN d 501      31.642  24.668 138.231  0.00  0.00    -0.572 OA
ATOM     47  O3  SGN d 501      25.452  25.972 142.607  0.00  0.00    -0.391 OA
ATOM     48  S2  SGN d 501      30.550  23.769 138.672  0.00  0.00     0.251 S 
ATOM     49  C2  SGN d 501      27.689  26.712 143.122  0.00  0.00     0.081 C 
ATOM     50  O2S SGN d 501      25.120  28.913 144.953  0.00  0.00    -0.296 OA
ATOM     51  O4  SGN d 501      26.462  23.473 141.670  0.00  0.00    -0.390 OA
ATOM     52  O5  SGN d 501      29.525  25.398 142.218  0.00  0.00    -0.349 OA
ATOM     53  O1S SGN d 501      27.116  30.138 144.335  0.00  0.00    -0.296 OA
ATOM     54  H   SGN d 501      27.262  25.177 140.874  0.00  0.00     0.091 H 
ATOM     55  H   SGN d 501      28.517  23.060 140.342  0.00  0.00     0.080 H 
ATOM     56  H   SGN d 501      29.558  22.351 141.560  0.00  0.00     0.080 H 
ATOM     57  H   SGN d 501      26.573  29.040 142.040  0.00  0.00     0.231 HD
ATOM     58  H   SGN d 501      26.717  26.860 144.866  0.00  0.00     0.140 HD
ATOM     59  H   SGN d 501      29.763  27.139 143.253  0.00  0.00     0.131 H 
ATOM     60  H   SGN d 501      28.723  23.703 143.052  0.00  0.00     0.090 H 
ATOM     61  H   SGN d 501      26.716  24.953 143.825  0.00  0.00     0.089 H 
ATOM     62  H   SGN d 501      25.477  26.489 141.786  0.00  0.00     0.210 HD
ATOM     63  H   SGN d 501      27.637  27.325 142.246  0.00  0.00     0.076 H 
ATOM     64  H   SGN d 501      25.429  28.866 145.871  0.00  0.00     0.231 HD
ATOM     65  H   SGN d 501      26.475  22.977 142.503  0.00  0.00     0.210 HD
ATOM     66  H   SGN d 501      27.429  30.095 145.252  0.00  0.00     0.231 HD
ATOM     67  O2  IDS d 502      31.578  27.446 148.411  0.00  0.00    -0.244 OA
ATOM     68  C3  IDS d 502      30.392  26.693 146.466  0.00  0.00     0.094 C 
ATOM     69  O2S IDS d 502      34.144  28.045 148.066  0.00  0.00    -0.572 OA
ATOM     70  O1S IDS d 502      32.662  29.851 148.711  0.00  0.00    -0.572 OA
ATOM     71  O5  IDS d 502      31.910  24.317 146.530  0.00  0.00    -0.340 OA
ATOM     72  S   IDS d 502      32.974  28.415 148.897  0.00  0.00     0.252 S 
ATOM     73  C1  IDS d 502      31.950  25.217 147.645  0.00  0.00     0.161 C 
ATOM     74  O61 IDS d 502      31.412  23.050 143.578  0.00  0.00    -0.646 OA
ATOM     75  O62 IDS d 502      29.887  23.119 145.153  0.00  0.00    -0.646 OA
ATOM     76  C5  IDS d 502      31.583  24.792 145.209  0.00  0.00     0.152 C 
ATOM     77  O3  IDS d 502      30.028  28.037 146.229  0.00  0.00    -0.390 OA
ATOM     78  C6  IDS d 502      30.897  23.589 144.578  0.00  0.00     0.206 C 
ATOM     79  O3S IDS d 502      33.286  28.153 150.319  0.00  0.00    -0.572 OA
ATOM     80  C4  IDS d 502      30.608  25.985 145.143  0.00  0.00     0.103 C 
ATOM     81  C2  IDS d 502      31.687  26.648 147.237  0.00  0.00     0.134 C 
ATOM     82  H   IDS d 502      29.611  26.216 147.021  0.00  0.00     0.091 H 
ATOM     83  H   IDS d 502      31.169  24.899 148.304  0.00  0.00     0.133 H 
ATOM     84  H   IDS d 502      32.471  25.152 144.733  0.00  0.00     0.104 H 
ATOM     85  H   IDS d 502      30.730  28.479 145.725  0.00  0.00     0.210 HD
ATOM     86  H   IDS d 502      31.105  26.680 144.500  0.00  0.00     0.092 H 
ATOM     87  H   IDS d 502      32.483  27.021 146.628  0.00  0.00     0.097 H 
ENDROOT
TORSDOF 28
ENDMDL
MODEL 26
REMARK VINA RESULT:      -5.8      2.848      9.457
REMARK  0 active torsions:
REMARK  status: ('A' for Active; 'I' for Inactive)
REMARK       I    between atoms: O3_1  and  C3_18 
REMARK       I    between atoms: O6_2  and  C6_6 
REMARK       I    between atoms: O6_2  and  S2_52 
REMARK       I    between atoms: C4_3  and  O4_50 
REMARK       I    between atoms: C6_4  and  C5_31 
REMARK       I    between atoms: C6_4  and  O6_12 
REMARK       I    between atoms: C6_6  and  C5_15 
REMARK       I    between atoms: O2_7  and  C2_53 
REMARK       I    between atoms: O2_7  and  S_26 
REMARK       I    between atoms: C3_8  and  O3_38 
REMARK       I    between atoms: S1_9  and  N_19 
REMARK       I    between atoms: S1_9  and  O1S_55 
REMARK       I    between atoms: S1_9  and  O2S_49 
REMARK       I    between atoms: S1_9  and  O3S_17 
REMARK       I    between atoms: O6_12  and  S2_45 
REMARK       I    between atoms: O1S_14  and  S1_48 
REMARK       I    between atoms: O3S_16  and  S1_48 
REMARK       I    between atoms: N_19  and  C2_46 
REMARK       I    between atoms: O1_22  and  C1_24 
REMARK       I    between atoms: O1_22  and  C4_41 
REMARK       I    between atoms: N_23  and  C2_47 
REMARK       I    between atoms: N_23  and  S1_48 
REMARK       I    between atoms: O2S_25  and  S1_48 
REMARK       I    between atoms: C1_27  and  O4_44 
REMARK       I    between atoms: C3_34  and  O3_43 
REMARK       I    between atoms: C1_35  and  O1_36 
REMARK       I    between atoms: C5_37  and  C6_39 
REMARK       I    between atoms: O4_44  and  C4_54 
ROOT
ATOM      1  O3  SGN d 503      28.469  26.889 144.757  0.00  0.00    -0.391 OA
ATOM      2  O6  SGN d 503      24.758  24.332 143.540  0.00  0.00    -0.254 OA
ATOM      3  C6  SGN d 503      24.895  24.865 142.228  0.00  0.00     0.067 C 
ATOM      4  O1S SGN d 503      25.966  30.342 146.712  0.00  0.00    -0.296 OA
ATOM      5  C5  SGN d 503      25.698  26.145 142.368  0.00  0.00     0.091 C 
ATOM      6  O3S SGN d 503      27.790  28.792 147.042  0.00  0.00    -0.296 OA
ATOM      7  C3  SGN d 503      27.520  27.161 143.749  0.00  0.00     0.083 C 
ATOM      8  O4S SGN d 503      24.449  21.711 143.636  0.00  0.00    -0.572 OA
ATOM      9  N   SGN d 503      27.163  29.419 144.544  0.00  0.00    -0.210 NA
ATOM     10  O2S SGN d 503      28.247  31.062 146.327  0.00  0.00    -0.296 OA
ATOM     11  O5  SGN d 503      24.814  27.140 142.888  0.00  0.00    -0.350 OA
ATOM     12  O6S SGN d 503      23.172  23.050 145.208  0.00  0.00    -0.572 OA
ATOM     13  O5S SGN d 503      22.580  23.011 142.861  0.00  0.00    -0.572 OA
ATOM     14  C1  SGN d 503      25.422  28.392 143.197  0.00  0.00     0.147 C 
ATOM     15  O1  SGN d 503      25.990  28.972 142.026  0.00  0.00    -0.369 OA
ATOM     16  O4  SGN d 503      27.767  24.997 142.778  0.00  0.00    -0.348 OA
ATOM     17  C2  SGN d 503      26.500  28.168 144.246  0.00  0.00     0.081 C 
ATOM     18  S1  SGN d 503      27.300  29.927 146.228  0.00  0.00     0.156 S 
ATOM     19  S2  SGN d 503      23.691  22.966 143.827  0.00  0.00     0.251 S 
ATOM     20  C4  SGN d 503      26.813  25.877 143.368  0.00  0.00     0.095 C 
ATOM     21  H   SGN d 503      28.924  27.709 145.003  0.00  0.00     0.210 HD
ATOM     22  H   SGN d 503      23.932  25.077 141.812  0.00  0.00     0.080 H 
ATOM     23  H   SGN d 503      25.382  24.171 141.576  0.00  0.00     0.080 H 
ATOM     24  H   SGN d 503      25.350  29.595 146.645  0.00  0.00     0.231 HD
ATOM     25  H   SGN d 503      26.114  26.469 141.437  0.00  0.00     0.090 H 
ATOM     26  H   SGN d 503      27.167  28.051 146.973  0.00  0.00     0.231 HD
ATOM     27  H   SGN d 503      28.023  27.568 142.896  0.00  0.00     0.089 H 
ATOM     28  H   SGN d 503      26.656  30.153 144.050  0.00  0.00     0.140 HD
ATOM     29  H   SGN d 503      28.322  31.341 147.253  0.00  0.00     0.231 HD
ATOM     30  H   SGN d 503      24.682  29.064 143.576  0.00  0.00     0.131 H 
ATOM     31  H   SGN d 503      26.666  28.377 141.666  0.00  0.00     0.212 HD
ATOM     32  H   SGN d 503      26.038  27.788 145.133  0.00  0.00     0.076 H 
ATOM     33  H   SGN d 503      26.380  25.441 144.245  0.00  0.00     0.091 H 
ATOM     34  C4  SGN d 501      30.614  17.910 147.201  0.00  0.00     0.089 C 
ATOM     35  C6  SGN d 501      32.014  19.856 147.985  0.00  0.00     0.067 C 
ATOM     36  O6S SGN d 501      35.126  20.450 149.104  0.00  0.00    -0.572 OA
ATOM     37  S1  SGN d 501      28.710  16.075 143.003  0.00  0.00     0.156 S 
ATOM     38  O6  SGN d 501      33.180  20.298 147.292  0.00  0.00    -0.254 OA
ATOM     39  O5S SGN d 501      34.761  18.300 148.056  0.00  0.00    -0.572 OA
ATOM     40  O3S SGN d 501      29.717  15.123 143.526  0.00  0.00    -0.296 OA
ATOM     41  N   SGN d 501      28.788  17.595 143.910  0.00  0.00    -0.210 NA
ATOM     42  O1  SGN d 501      29.305  20.208 144.770  0.00  0.00    -0.348 OA
ATOM     43  C1  SGN d 501      30.388  19.285 144.670  0.00  0.00     0.150 C 
ATOM     44  C5  SGN d 501      30.959  19.379 146.993  0.00  0.00     0.090 C 
ATOM     45  C3  SGN d 501      29.493  17.521 146.245  0.00  0.00     0.083 C 
ATOM     46  O4S SGN d 501      35.789  20.097 146.805  0.00  0.00    -0.572 OA
ATOM     47  O3  SGN d 501      29.206  16.143 146.373  0.00  0.00    -0.391 OA
ATOM     48  S2  SGN d 501      34.779  19.765 147.836  0.00  0.00     0.251 S 
ATOM     49  C2  SGN d 501      29.901  17.842 144.809  0.00  0.00     0.081 C 
ATOM     50  O2S SGN d 501      27.359  15.485 143.145  0.00  0.00    -0.296 OA
ATOM     51  O4  SGN d 501      30.196  17.697 148.550  0.00  0.00    -0.390 OA
ATOM     52  O5  SGN d 501      31.397  19.569 145.644  0.00  0.00    -0.349 OA
ATOM     53  O1S SGN d 501      28.989  16.345 141.574  0.00  0.00    -0.296 OA
ATOM     54  H   SGN d 501      31.476  17.307 147.006  0.00  0.00     0.091 H 
ATOM     55  H   SGN d 501      32.275  19.049 148.638  0.00  0.00     0.080 H 
ATOM     56  H   SGN d 501      31.616  20.670 148.553  0.00  0.00     0.080 H 
ATOM     57  H   SGN d 501      30.603  15.507 143.434  0.00  0.00     0.231 HD
ATOM     58  H   SGN d 501      27.938  17.648 144.471  0.00  0.00     0.140 HD
ATOM     59  H   SGN d 501      30.817  19.399 143.696  0.00  0.00     0.131 H 
ATOM     60  H   SGN d 501      30.084  19.968 147.170  0.00  0.00     0.090 H 
ATOM     61  H   SGN d 501      28.614  18.081 146.489  0.00  0.00     0.089 H 
ATOM     62  H   SGN d 501      29.997  15.626 146.153  0.00  0.00     0.210 HD
ATOM     63  H   SGN d 501      30.716  17.200 144.547  0.00  0.00     0.076 H 
ATOM     64  H   SGN d 501      26.697  16.107 142.803  0.00  0.00     0.231 HD
ATOM     65  H   SGN d 501      29.414  18.241 148.735  0.00  0.00     0.210 HD
ATOM     66  H   SGN d 501      28.331  16.969 141.229  0.00  0.00     0.231 HD
ATOM     67  O2  IDS d 502      27.207  22.708 141.246  0.00  0.00    -0.244 OA
ATOM     68  C3  IDS d 502      28.255  21.328 142.906  0.00  0.00     0.094 C 
ATOM     69  O2S IDS d 502      28.792  24.411 139.960  0.00  0.00    -0.572 OA
ATOM     70  O1S IDS d 502      27.750  22.661 138.648  0.00  0.00    -0.572 OA
ATOM     71  O5  IDS d 502      28.626  23.625 144.499  0.00  0.00    -0.340 OA
ATOM     72  S   IDS d 502      27.559  23.611 139.768  0.00  0.00     0.252 S 
ATOM     73  C1  IDS d 502      27.780  23.691 143.344  0.00  0.00     0.161 C 
ATOM     74  O61 IDS d 502      30.814  22.647 146.695  0.00  0.00    -0.646 OA
ATOM     75  O62 IDS d 502      28.727  21.972 146.663  0.00  0.00    -0.646 OA
ATOM     76  C5  IDS d 502      29.682  22.649 144.587  0.00  0.00     0.152 C 
ATOM     77  O3  IDS d 502      28.454  20.356 141.901  0.00  0.00    -0.390 OA
ATOM     78  C6  IDS d 502      29.763  22.372 146.082  0.00  0.00     0.206 C 
ATOM     79  O3S IDS d 502      26.433  24.520 139.464  0.00  0.00    -0.572 OA
ATOM     80  C4  IDS d 502      29.425  21.309 143.869  0.00  0.00     0.103 C 
ATOM     81  C2  IDS d 502      28.186  22.698 142.279  0.00  0.00     0.134 C 
ATOM     82  H   IDS d 502      27.344  21.110 143.423  0.00  0.00     0.091 H 
ATOM     83  H   IDS d 502      26.798  23.442 143.687  0.00  0.00     0.133 H 
ATOM     84  H   IDS d 502      30.562  23.036 144.115  0.00  0.00     0.104 H 
ATOM     85  H   IDS d 502      29.278  20.545 141.425  0.00  0.00     0.210 HD
ATOM     86  H   IDS d 502      30.306  21.169 143.278  0.00  0.00     0.092 H 
ATOM     87  H   IDS d 502      29.140  22.954 141.867  0.00  0.00     0.097 H 
ENDROOT
TORSDOF 28
ENDMDL
MODEL 27
REMARK VINA RESULT:      -5.8      3.137      7.147
REMARK  0 active torsions:
REMARK  status: ('A' for Active; 'I' for Inactive)
REMARK       I    between atoms: O3_1  and  C3_18 
REMARK       I    between atoms: O6_2  and  C6_6 
REMARK       I    between atoms: O6_2  and  S2_52 
REMARK       I    between atoms: C4_3  and  O4_50 
REMARK       I    between atoms: C6_4  and  C5_31 
REMARK       I    between atoms: C6_4  and  O6_12 
REMARK       I    between atoms: C6_6  and  C5_15 
REMARK       I    between atoms: O2_7  and  C2_53 
REMARK       I    between atoms: O2_7  and  S_26 
REMARK       I    between atoms: C3_8  and  O3_38 
REMARK       I    between atoms: S1_9  and  N_19 
REMARK       I    between atoms: S1_9  and  O1S_55 
REMARK       I    between atoms: S1_9  and  O2S_49 
REMARK       I    between atoms: S1_9  and  O3S_17 
REMARK       I    between atoms: O6_12  and  S2_45 
REMARK       I    between atoms: O1S_14  and  S1_48 
REMARK       I    between atoms: O3S_16  and  S1_48 
REMARK       I    between atoms: N_19  and  C2_46 
REMARK       I    between atoms: O1_22  and  C1_24 
REMARK       I    between atoms: O1_22  and  C4_41 
REMARK       I    between atoms: N_23  and  C2_47 
REMARK       I    between atoms: N_23  and  S1_48 
REMARK       I    between atoms: O2S_25  and  S1_48 
REMARK       I    between atoms: C1_27  and  O4_44 
REMARK       I    between atoms: C3_34  and  O3_43 
REMARK       I    between atoms: C1_35  and  O1_36 
REMARK       I    between atoms: C5_37  and  C6_39 
REMARK       I    between atoms: O4_44  and  C4_54 
ROOT
ATOM      1  O3  SGN d 503      33.879  21.255 144.117  0.00  0.00    -0.391 OA
ATOM      2  O6  SGN d 503      32.527  22.563 148.389  0.00  0.00    -0.254 OA
ATOM      3  C6  SGN d 503      33.818  23.137 148.558  0.00  0.00     0.067 C 
ATOM      4  O1S SGN d 503      34.863  16.832 145.333  0.00  0.00    -0.296 OA
ATOM      5  C5  SGN d 503      34.724  22.456 147.550  0.00  0.00     0.091 C 
ATOM      6  O3S SGN d 503      33.662  18.233 143.773  0.00  0.00    -0.296 OA
ATOM      7  C3  SGN d 503      34.682  21.445 145.262  0.00  0.00     0.083 C 
ATOM      8  O4S SGN d 503      30.522  24.136 149.083  0.00  0.00    -0.572 OA
ATOM      9  N   SGN d 503      35.761  19.295 144.994  0.00  0.00    -0.210 NA
ATOM     10  O2S SGN d 503      35.842  17.357 143.180  0.00  0.00    -0.296 OA
ATOM     11  O5  SGN d 503      35.024  21.157 148.067  0.00  0.00    -0.350 OA
ATOM     12  O6S SGN d 503      30.326  21.774 149.604  0.00  0.00    -0.572 OA
ATOM     13  O5S SGN d 503      31.840  23.187 150.856  0.00  0.00    -0.572 OA
ATOM     14  C1  SGN d 503      35.779  20.317 147.197  0.00  0.00     0.147 C 
ATOM     15  O1  SGN d 503      37.044  20.905 146.911  0.00  0.00    -0.369 OA
ATOM     16  O4  SGN d 503      33.782  23.615 145.670  0.00  0.00    -0.348 OA
ATOM     17  C2  SGN d 503      34.994  20.109 145.911  0.00  0.00     0.081 C 
ATOM     18  S1  SGN d 503      35.001  17.868 144.288  0.00  0.00     0.156 S 
ATOM     19  S2  SGN d 503      31.245  22.928 149.534  0.00  0.00     0.251 S 
ATOM     20  C4  SGN d 503      33.944  22.323 146.251  0.00  0.00     0.095 C 
ATOM     21  H   SGN d 503      34.349  20.694 143.482  0.00  0.00     0.210 HD
ATOM     22  H   SGN d 503      34.173  22.964 149.552  0.00  0.00     0.080 H 
ATOM     23  H   SGN d 503      33.794  24.196 148.405  0.00  0.00     0.080 H 
ATOM     24  H   SGN d 503      34.312  17.173 146.056  0.00  0.00     0.231 HD
ATOM     25  H   SGN d 503      35.627  23.004 147.378  0.00  0.00     0.090 H 
ATOM     26  H   SGN d 503      33.115  18.567 144.502  0.00  0.00     0.231 HD
ATOM     27  H   SGN d 503      35.600  21.913 144.971  0.00  0.00     0.089 H 
ATOM     28  H   SGN d 503      36.589  18.976 145.496  0.00  0.00     0.140 HD
ATOM     29  H   SGN d 503      35.424  16.572 142.792  0.00  0.00     0.231 HD
ATOM     30  H   SGN d 503      35.950  19.375 147.673  0.00  0.00     0.131 H 
ATOM     31  H   SGN d 503      36.911  21.763 146.478  0.00  0.00     0.212 HD
ATOM     32  H   SGN d 503      34.076  19.614 146.148  0.00  0.00     0.076 H 
ATOM     33  H   SGN d 503      32.995  21.881 146.472  0.00  0.00     0.091 H 
ATOM     34  C4  SGN d 501      25.848  26.265 142.855  0.00  0.00     0.089 C 
ATOM     35  C6  SGN d 501      26.854  24.902 140.987  0.00  0.00     0.067 C 
ATOM     36  O6S SGN d 501      26.790  24.767 137.630  0.00  0.00    -0.572 OA
ATOM     37  S1  SGN d 501      27.196  29.690 146.181  0.00  0.00     0.156 S 
ATOM     38  O6  SGN d 501      27.744  25.455 140.019  0.00  0.00    -0.254 OA
ATOM     39  O5S SGN d 501      25.901  26.780 138.634  0.00  0.00    -0.572 OA
ATOM     40  O3S SGN d 501      26.231  30.297 145.236  0.00  0.00    -0.296 OA
ATOM     41  N   SGN d 501      27.697  28.096 145.592  0.00  0.00    -0.210 NA
ATOM     42  O1  SGN d 501      29.065  25.951 144.424  0.00  0.00    -0.348 OA
ATOM     43  C1  SGN d 501      28.550  26.984 143.585  0.00  0.00     0.150 C 
ATOM     44  C5  SGN d 501      27.090  25.542 142.350  0.00  0.00     0.090 C 
ATOM     45  C3  SGN d 501      26.119  26.802 144.255  0.00  0.00     0.083 C 
ATOM     46  O4S SGN d 501      28.148  26.766 137.739  0.00  0.00    -0.572 OA
ATOM     47  O3  SGN d 501      25.001  27.537 144.715  0.00  0.00    -0.391 OA
ATOM     48  S2  SGN d 501      27.121  25.963 138.442  0.00  0.00     0.251 S 
ATOM     49  C2  SGN d 501      27.361  27.689 144.240  0.00  0.00     0.081 C 
ATOM     50  O2S SGN d 501      26.555  29.546 147.509  0.00  0.00    -0.296 OA
ATOM     51  O4  SGN d 501      24.742  25.361 142.888  0.00  0.00    -0.390 OA
ATOM     52  O5  SGN d 501      28.181  26.468 142.302  0.00  0.00    -0.349 OA
ATOM     53  O1S SGN d 501      28.386  30.564 146.294  0.00  0.00    -0.296 OA
ATOM     54  H   SGN d 501      25.612  27.077 142.200  0.00  0.00     0.091 H 
ATOM     55  H   SGN d 501      25.844  25.083 140.682  0.00  0.00     0.080 H 
ATOM     56  H   SGN d 501      27.030  23.849 141.061  0.00  0.00     0.080 H 
ATOM     57  H   SGN d 501      26.648  30.393 144.366  0.00  0.00     0.231 HD
ATOM     58  H   SGN d 501      27.284  27.406 146.220  0.00  0.00     0.140 HD
ATOM     59  H   SGN d 501      29.329  27.704 143.448  0.00  0.00     0.131 H 
ATOM     60  H   SGN d 501      27.327  24.748 143.025  0.00  0.00     0.090 H 
ATOM     61  H   SGN d 501      26.288  25.980 144.919  0.00  0.00     0.089 H 
ATOM     62  H   SGN d 501      24.839  28.285 144.119  0.00  0.00     0.210 HD
ATOM     63  H   SGN d 501      27.139  28.557 143.654  0.00  0.00     0.076 H 
ATOM     64  H   SGN d 501      27.185  29.148 148.131  0.00  0.00     0.231 HD
ATOM     65  H   SGN d 501      24.948  24.621 143.480  0.00  0.00     0.210 HD
ATOM     66  H   SGN d 501      29.020  30.169 146.913  0.00  0.00     0.231 HD
ATOM     67  O2  IDS d 502      33.104  25.983 147.023  0.00  0.00    -0.244 OA
ATOM     68  C3  IDS d 502      31.058  26.122 145.776  0.00  0.00     0.094 C 
ATOM     69  O2S IDS d 502      35.351  26.236 145.628  0.00  0.00    -0.572 OA
ATOM     70  O1S IDS d 502      34.877  27.941 147.282  0.00  0.00    -0.572 OA
ATOM     71  O5  IDS d 502      31.685  23.645 144.582  0.00  0.00    -0.340 OA
ATOM     72  S   IDS d 502      34.794  26.494 146.977  0.00  0.00     0.252 S 
ATOM     73  C1  IDS d 502      32.446  24.105 145.706  0.00  0.00     0.161 C 
ATOM     74  O61 IDS d 502      29.666  23.528 142.036  0.00  0.00    -0.646 OA
ATOM     75  O62 IDS d 502      29.019  23.318 144.122  0.00  0.00    -0.646 OA
ATOM     76  C5  IDS d 502      31.001  24.578 143.721  0.00  0.00     0.152 C 
ATOM     77  O3  IDS d 502      31.047  27.509 146.043  0.00  0.00    -0.390 OA
ATOM     78  C6  IDS d 502      29.793  23.781 143.251  0.00  0.00     0.206 C 
ATOM     79  O3S IDS d 502      35.570  25.729 147.977  0.00  0.00    -0.572 OA
ATOM     80  C4  IDS d 502      30.490  25.867 144.394  0.00  0.00     0.103 C 
ATOM     81  C2  IDS d 502      32.477  25.613 145.799  0.00  0.00     0.134 C 
ATOM     82  H   IDS d 502      30.471  25.622 146.518  0.00  0.00     0.091 H 
ATOM     83  H   IDS d 502      31.949  23.719 146.571  0.00  0.00     0.133 H 
ATOM     84  H   IDS d 502      31.678  24.925 142.968  0.00  0.00     0.104 H 
ATOM     85  H   IDS d 502      31.577  27.972 145.375  0.00  0.00     0.210 HD
ATOM     86  H   IDS d 502      30.861  26.645 143.761  0.00  0.00     0.092 H 
ATOM     87  H   IDS d 502      33.024  26.032 144.980  0.00  0.00     0.097 H 
ENDROOT
TORSDOF 28
ENDMDL
MODEL 28
REMARK VINA RESULT:      -5.8      3.535      8.108
REMARK  0 active torsions:
REMARK  status: ('A' for Active; 'I' for Inactive)
REMARK       I    between atoms: O3_1  and  C3_18 
REMARK       I    between atoms: O6_2  and  C6_6 
REMARK       I    between atoms: O6_2  and  S2_52 
REMARK       I    between atoms: C4_3  and  O4_50 
REMARK       I    between atoms: C6_4  and  C5_31 
REMARK       I    between atoms: C6_4  and  O6_12 
REMARK       I    between atoms: C6_6  and  C5_15 
REMARK       I    between atoms: O2_7  and  C2_53 
REMARK       I    between atoms: O2_7  and  S_26 
REMARK       I    between atoms: C3_8  and  O3_38 
REMARK       I    between atoms: S1_9  and  N_19 
REMARK       I    between atoms: S1_9  and  O1S_55 
REMARK       I    between atoms: S1_9  and  O2S_49 
REMARK       I    between atoms: S1_9  and  O3S_17 
REMARK       I    between atoms: O6_12  and  S2_45 
REMARK       I    between atoms: O1S_14  and  S1_48 
REMARK       I    between atoms: O3S_16  and  S1_48 
REMARK       I    between atoms: N_19  and  C2_46 
REMARK       I    between atoms: O1_22  and  C1_24 
REMARK       I    between atoms: O1_22  and  C4_41 
REMARK       I    between atoms: N_23  and  C2_47 
REMARK       I    between atoms: N_23  and  S1_48 
REMARK       I    between atoms: O2S_25  and  S1_48 
REMARK       I    between atoms: C1_27  and  O4_44 
REMARK       I    between atoms: C3_34  and  O3_43 
REMARK       I    between atoms: C1_35  and  O1_36 
REMARK       I    between atoms: C5_37  and  C6_39 
REMARK       I    between atoms: O4_44  and  C4_54 
ROOT
ATOM      1  O3  SGN d 503      33.644  24.130 147.501  0.00  0.00    -0.391 OA
ATOM      2  O6  SGN d 503      29.786  25.360 149.823  0.00  0.00    -0.254 OA
ATOM      3  C6  SGN d 503      30.505  26.492 150.299  0.00  0.00     0.067 C 
ATOM      4  O1S SGN d 503      35.041  20.966 150.671  0.00  0.00    -0.296 OA
ATOM      5  C5  SGN d 503      31.977  26.153 150.159  0.00  0.00     0.091 C 
ATOM      6  O3S SGN d 503      34.585  21.349 148.329  0.00  0.00    -0.296 OA
ATOM      7  C3  SGN d 503      33.551  24.866 148.701  0.00  0.00     0.083 C 
ATOM      8  O4S SGN d 503      27.383  25.902 148.872  0.00  0.00    -0.572 OA
ATOM      9  N   SGN d 503      35.177  23.463 149.815  0.00  0.00    -0.210 NA
ATOM     10  O2S SGN d 503      36.855  21.510 149.161  0.00  0.00    -0.296 OA
ATOM     11  O5  SGN d 503      32.305  25.257 151.223  0.00  0.00    -0.350 OA
ATOM     12  O6S SGN d 503      27.649  23.852 150.143  0.00  0.00    -0.572 OA
ATOM     13  O5S SGN d 503      27.670  26.001 151.257  0.00  0.00    -0.572 OA
ATOM     14  C1  SGN d 503      33.630  24.734 151.190  0.00  0.00     0.147 C 
ATOM     15  O1  SGN d 503      34.584  25.788 151.284  0.00  0.00    -0.369 OA
ATOM     16  O4  SGN d 503      31.975  26.394 147.770  0.00  0.00    -0.348 OA
ATOM     17  C2  SGN d 503      33.824  23.966 149.892  0.00  0.00     0.081 C 
ATOM     18  S1  SGN d 503      35.428  21.749 149.479  0.00  0.00     0.156 S 
ATOM     19  S2  SGN d 503      28.044  25.272 150.034  0.00  0.00     0.251 S 
ATOM     20  C4  SGN d 503      32.158  25.450 148.822  0.00  0.00     0.095 C 
ATOM     21  H   SGN d 503      34.534  23.755 147.420  0.00  0.00     0.210 HD
ATOM     22  H   SGN d 503      30.264  26.678 151.325  0.00  0.00     0.080 H 
ATOM     23  H   SGN d 503      30.254  27.372 149.745  0.00  0.00     0.080 H 
ATOM     24  H   SGN d 503      34.105  21.126 150.874  0.00  0.00     0.231 HD
ATOM     25  H   SGN d 503      32.601  27.022 150.201  0.00  0.00     0.090 H 
ATOM     26  H   SGN d 503      33.652  21.508 148.542  0.00  0.00     0.231 HD
ATOM     27  H   SGN d 503      34.277  25.652 148.685  0.00  0.00     0.089 H 
ATOM     28  H   SGN d 503      35.622  23.660 150.711  0.00  0.00     0.140 HD
ATOM     29  H   SGN d 503      36.993  20.568 148.976  0.00  0.00     0.231 HD
ATOM     30  H   SGN d 503      33.776  24.079 152.023  0.00  0.00     0.131 H 
ATOM     31  H   SGN d 503      34.470  26.395 150.536  0.00  0.00     0.212 HD
ATOM     32  H   SGN d 503      33.136  23.146 149.874  0.00  0.00     0.076 H 
ATOM     33  H   SGN d 503      31.440  24.660 148.758  0.00  0.00     0.091 H 
ATOM     34  C4  SGN d 501      26.702  24.490 140.953  0.00  0.00     0.089 C 
ATOM     35  C6  SGN d 501      28.946  23.460 140.435  0.00  0.00     0.067 C 
ATOM     36  O6S SGN d 501      30.846  22.740 137.758  0.00  0.00    -0.572 OA
ATOM     37  S1  SGN d 501      24.810  28.659 142.863  0.00  0.00     0.156 S 
ATOM     38  O6  SGN d 501      30.010  24.192 139.829  0.00  0.00    -0.254 OA
ATOM     39  O5S SGN d 501      28.987  24.239 137.375  0.00  0.00    -0.572 OA
ATOM     40  O3S SGN d 501      24.426  28.571 141.436  0.00  0.00    -0.296 OA
ATOM     41  N   SGN d 501      26.009  27.412 143.243  0.00  0.00    -0.210 NA
ATOM     42  O1  SGN d 501      28.368  25.995 143.759  0.00  0.00    -0.348 OA
ATOM     43  C1  SGN d 501      28.138  26.504 142.446  0.00  0.00     0.150 C 
ATOM     44  C5  SGN d 501      28.158  24.360 141.381  0.00  0.00     0.090 C 
ATOM     45  C3  SGN d 501      25.952  25.322 141.986  0.00  0.00     0.083 C 
ATOM     46  O4S SGN d 501      31.220  25.127 137.651  0.00  0.00    -0.572 OA
ATOM     47  O3  SGN d 501      24.613  25.514 141.571  0.00  0.00    -0.391 OA
ATOM     48  S2  SGN d 501      30.277  24.069 138.083  0.00  0.00     0.251 S 
ATOM     49  C2  SGN d 501      26.643  26.671 142.168  0.00  0.00     0.081 C 
ATOM     50  O2S SGN d 501      23.608  28.462 143.707  0.00  0.00    -0.296 OA
ATOM     51  O4  SGN d 501      26.110  23.194 140.851  0.00  0.00    -0.390 OA
ATOM     52  O5  SGN d 501      28.741  25.665 141.456  0.00  0.00    -0.349 OA
ATOM     53  O1S SGN d 501      25.393  29.994 143.131  0.00  0.00    -0.296 OA
ATOM     54  H   SGN d 501      26.649  24.971 139.999  0.00  0.00     0.091 H 
ATOM     55  H   SGN d 501      28.291  23.092 139.672  0.00  0.00     0.080 H 
ATOM     56  H   SGN d 501      29.356  22.644 140.991  0.00  0.00     0.080 H 
ATOM     57  H   SGN d 501      25.211  28.701 140.881  0.00  0.00     0.231 HD
ATOM     58  H   SGN d 501      25.544  26.728 143.840  0.00  0.00     0.140 HD
ATOM     59  H   SGN d 501      28.596  27.470 142.393  0.00  0.00     0.131 H 
ATOM     60  H   SGN d 501      28.195  23.897 142.345  0.00  0.00     0.090 H 
ATOM     61  H   SGN d 501      25.952  24.802 142.921  0.00  0.00     0.089 H 
ATOM     62  H   SGN d 501      24.602  25.984 140.723  0.00  0.00     0.210 HD
ATOM     63  H   SGN d 501      26.544  27.218 141.255  0.00  0.00     0.076 H 
ATOM     64  H   SGN d 501      23.857  28.518 144.643  0.00  0.00     0.231 HD
ATOM     65  H   SGN d 501      26.154  22.751 141.713  0.00  0.00     0.210 HD
ATOM     66  H   SGN d 501      25.646  30.054 144.066  0.00  0.00     0.231 HD
ATOM     67  O2  IDS d 502      29.972  28.360 147.618  0.00  0.00    -0.244 OA
ATOM     68  C3  IDS d 502      29.074  27.308 145.658  0.00  0.00     0.094 C 
ATOM     69  O2S IDS d 502      32.409  29.394 147.386  0.00  0.00    -0.572 OA
ATOM     70  O1S IDS d 502      30.591  30.933 147.831  0.00  0.00    -0.572 OA
ATOM     71  O5  IDS d 502      30.979  25.251 145.957  0.00  0.00    -0.340 OA
ATOM     72  S   IDS d 502      31.138  29.588 148.123  0.00  0.00     0.252 S 
ATOM     73  C1  IDS d 502      30.784  26.198 147.015  0.00  0.00     0.161 C 
ATOM     74  O61 IDS d 502      30.916  23.768 143.065  0.00  0.00    -0.646 OA
ATOM     75  O62 IDS d 502      29.298  23.639 144.542  0.00  0.00    -0.646 OA
ATOM     76  C5  IDS d 502      30.664  25.592 144.592  0.00  0.00     0.152 C 
ATOM     77  O3  IDS d 502      28.494  28.551 145.317  0.00  0.00    -0.390 OA
ATOM     78  C6  IDS d 502      30.246  24.254 143.998  0.00  0.00     0.206 C 
ATOM     79  O3S IDS d 502      31.394  29.459 149.574  0.00  0.00    -0.572 OA
ATOM     80  C4  IDS d 502      29.501  26.584 144.396  0.00  0.00     0.103 C 
ATOM     81  C2  IDS d 502      30.300  27.536 146.505  0.00  0.00     0.134 C 
ATOM     82  H   IDS d 502      28.353  26.727 146.195  0.00  0.00     0.091 H 
ATOM     83  H   IDS d 502      30.028  25.779 147.646  0.00  0.00     0.133 H 
ATOM     84  H   IDS d 502      31.505  26.081 144.147  0.00  0.00     0.104 H 
ATOM     85  H   IDS d 502      29.140  29.086 144.829  0.00  0.00     0.210 HD
ATOM     86  H   IDS d 502      29.910  27.324 143.741  0.00  0.00     0.092 H 
ATOM     87  H   IDS d 502      31.058  28.015 145.920  0.00  0.00     0.097 H 
ENDROOT
TORSDOF 28
ENDMDL
MODEL 29
REMARK VINA RESULT:      -5.8      3.531      7.742
REMARK  0 active torsions:
REMARK  status: ('A' for Active; 'I' for Inactive)
REMARK       I    between atoms: O3_1  and  C3_18 
REMARK       I    between atoms: O6_2  and  C6_6 
REMARK       I    between atoms: O6_2  and  S2_52 
REMARK       I    between atoms: C4_3  and  O4_50 
REMARK       I    between atoms: C6_4  and  C5_31 
REMARK       I    between atoms: C6_4  and  O6_12 
REMARK       I    between atoms: C6_6  and  C5_15 
REMARK       I    between atoms: O2_7  and  C2_53 
REMARK       I    between atoms: O2_7  and  S_26 
REMARK       I    between atoms: C3_8  and  O3_38 
REMARK       I    between atoms: S1_9  and  N_19 
REMARK       I    between atoms: S1_9  and  O1S_55 
REMARK       I    between atoms: S1_9  and  O2S_49 
REMARK       I    between atoms: S1_9  and  O3S_17 
REMARK       I    between atoms: O6_12  and  S2_45 
REMARK       I    between atoms: O1S_14  and  S1_48 
REMARK       I    between atoms: O3S_16  and  S1_48 
REMARK       I    between atoms: N_19  and  C2_46 
REMARK       I    between atoms: O1_22  and  C1_24 
REMARK       I    between atoms: O1_22  and  C4_41 
REMARK       I    between atoms: N_23  and  C2_47 
REMARK       I    between atoms: N_23  and  S1_48 
REMARK       I    between atoms: O2S_25  and  S1_48 
REMARK       I    between atoms: C1_27  and  O4_44 
REMARK       I    between atoms: C3_34  and  O3_43 
REMARK       I    between atoms: C1_35  and  O1_36 
REMARK       I    between atoms: C5_37  and  C6_39 
REMARK       I    between atoms: O4_44  and  C4_54 
ROOT
ATOM      1  O3  SGN d 503      28.475  27.628 148.776  0.00  0.00    -0.391 OA
ATOM      2  O6  SGN d 503      32.615  26.405 147.001  0.00  0.00    -0.254 OA
ATOM      3  C6  SGN d 503      32.593  25.284 147.877  0.00  0.00     0.067 C 
ATOM      4  O1S SGN d 503      30.221  30.841 151.716  0.00  0.00    -0.296 OA
ATOM      5  C5  SGN d 503      31.621  25.629 148.990  0.00  0.00     0.091 C 
ATOM      6  O3S SGN d 503      28.582  30.424 149.989  0.00  0.00    -0.296 OA
ATOM      7  C3  SGN d 503      29.511  26.906 149.407  0.00  0.00     0.083 C 
ATOM      8  O4S SGN d 503      33.242  25.836 144.500  0.00  0.00    -0.572 OA
ATOM      9  N   SGN d 503      29.463  28.334 151.361  0.00  0.00    -0.210 NA
ATOM     10  O2S SGN d 503      27.941  30.288 152.322  0.00  0.00    -0.296 OA
ATOM     11  O5  SGN d 503      32.290  26.541 149.863  0.00  0.00    -0.350 OA
ATOM     12  O6S SGN d 503      34.107  27.903 145.430  0.00  0.00    -0.572 OA
ATOM     13  O5S SGN d 503      35.017  25.770 146.120  0.00  0.00    -0.572 OA
ATOM     14  C1  SGN d 503      31.489  27.071 150.916  0.00  0.00     0.147 C 
ATOM     15  O1  SGN d 503      31.019  26.024 151.760  0.00  0.00    -0.369 OA
ATOM     16  O4  SGN d 503      29.680  25.357 147.603  0.00  0.00    -0.348 OA
ATOM     17  C2  SGN d 503      30.315  27.823 150.310  0.00  0.00     0.081 C 
ATOM     18  S1  SGN d 503      29.031  30.044 151.348  0.00  0.00     0.156 S 
ATOM     19  S2  SGN d 503      33.799  26.485 145.705  0.00  0.00     0.251 S 
ATOM     20  C4  SGN d 503      30.423  26.316 148.352  0.00  0.00     0.095 C 
ATOM     21  H   SGN d 503      27.889  28.007 149.449  0.00  0.00     0.210 HD
ATOM     22  H   SGN d 503      33.569  25.109 148.279  0.00  0.00     0.080 H 
ATOM     23  H   SGN d 503      32.294  24.395 147.362  0.00  0.00     0.080 H 
ATOM     24  H   SGN d 503      30.931  30.677 151.075  0.00  0.00     0.231 HD
ATOM     25  H   SGN d 503      31.299  24.764 149.532  0.00  0.00     0.090 H 
ATOM     26  H   SGN d 503      29.299  30.263 149.355  0.00  0.00     0.231 HD
ATOM     27  H   SGN d 503      29.082  26.125 149.998  0.00  0.00     0.089 H 
ATOM     28  H   SGN d 503      29.934  28.150 152.246  0.00  0.00     0.140 HD
ATOM     29  H   SGN d 503      27.704  31.228 152.315  0.00  0.00     0.231 HD
ATOM     30  H   SGN d 503      32.078  27.738 151.510  0.00  0.00     0.131 H 
ATOM     31  H   SGN d 503      30.481  25.407 151.240  0.00  0.00     0.212 HD
ATOM     32  H   SGN d 503      30.695  28.638 149.730  0.00  0.00     0.076 H 
ATOM     33  H   SGN d 503      30.782  27.101 147.719  0.00  0.00     0.091 H 
ATOM     34  C4  SGN d 501      27.183  27.141 139.327  0.00  0.00     0.089 C 
ATOM     35  C6  SGN d 501      25.450  28.178 140.839  0.00  0.00     0.067 C 
ATOM     36  O6S SGN d 501      22.163  28.875 140.821  0.00  0.00    -0.572 OA
ATOM     37  S1  SGN d 501      29.866  22.986 138.949  0.00  0.00     0.156 S 
ATOM     38  O6  SGN d 501      24.344  27.445 141.362  0.00  0.00    -0.254 OA
ATOM     39  O5S SGN d 501      22.942  27.360 139.104  0.00  0.00    -0.572 OA
ATOM     40  O3S SGN d 501      28.928  23.053 137.805  0.00  0.00    -0.296 OA
ATOM     41  N   SGN d 501      29.470  24.245 140.130  0.00  0.00    -0.210 NA
ATOM     42  O1  SGN d 501      28.509  25.683 142.331  0.00  0.00    -0.348 OA
ATOM     43  C1  SGN d 501      27.578  25.155 141.388  0.00  0.00     0.150 C 
ATOM     44  C5  SGN d 501      26.685  27.286 140.759  0.00  0.00     0.090 C 
ATOM     45  C3  SGN d 501      28.466  26.318 139.327  0.00  0.00     0.083 C 
ATOM     46  O4S SGN d 501      21.875  26.489 141.093  0.00  0.00    -0.572 OA
ATOM     47  O3  SGN d 501      28.907  26.114 137.999  0.00  0.00    -0.391 OA
ATOM     48  S2  SGN d 501      22.767  27.546 140.563  0.00  0.00     0.251 S 
ATOM     49  C2  SGN d 501      28.222  24.977 140.012  0.00  0.00     0.081 C 
ATOM     50  O2S SGN d 501      31.250  23.188 138.458  0.00  0.00    -0.296 OA
ATOM     51  O4  SGN d 501      27.435  28.433 138.770  0.00  0.00    -0.390 OA
ATOM     52  O5  SGN d 501      26.416  25.985 141.293  0.00  0.00    -0.349 OA
ATOM     53  O1S SGN d 501      29.755  21.659 139.595  0.00  0.00    -0.296 OA
ATOM     54  H   SGN d 501      26.441  26.648 138.736  0.00  0.00     0.091 H 
ATOM     55  H   SGN d 501      25.208  28.533 139.859  0.00  0.00     0.080 H 
ATOM     56  H   SGN d 501      25.659  29.004 141.486  0.00  0.00     0.080 H 
ATOM     57  H   SGN d 501      28.021  22.921 138.124  0.00  0.00     0.231 HD
ATOM     58  H   SGN d 501      30.221  24.934 140.090  0.00  0.00     0.140 HD
ATOM     59  H   SGN d 501      27.275  24.191 141.742  0.00  0.00     0.131 H 
ATOM     60  H   SGN d 501      27.444  27.761 141.344  0.00  0.00     0.090 H 
ATOM     61  H   SGN d 501      29.223  26.850 139.864  0.00  0.00     0.089 H 
ATOM     62  H   SGN d 501      28.226  25.632 137.503  0.00  0.00     0.210 HD
ATOM     63  H   SGN d 501      27.540  24.416 139.408  0.00  0.00     0.076 H 
ATOM     64  H   SGN d 501      31.867  23.144 139.206  0.00  0.00     0.231 HD
ATOM     65  H   SGN d 501      28.108  28.887 139.301  0.00  0.00     0.210 HD
ATOM     66  H   SGN d 501      30.369  21.612 140.345  0.00  0.00     0.231 HD
ATOM     67  O2  IDS d 502      30.734  23.377 145.909  0.00  0.00    -0.244 OA
ATOM     68  C3  IDS d 502      29.653  24.398 144.025  0.00  0.00     0.094 C 
ATOM     69  O2S IDS d 502      29.136  22.355 147.770  0.00  0.00    -0.572 OA
ATOM     70  O1S IDS d 502      30.566  20.811 146.568  0.00  0.00    -0.572 OA
ATOM     71  O5  IDS d 502      28.775  26.470 145.725  0.00  0.00    -0.340 OA
ATOM     72  S   IDS d 502      30.476  22.163 147.167  0.00  0.00     0.252 S 
ATOM     73  C1  IDS d 502      29.756  25.536 146.192  0.00  0.00     0.161 C 
ATOM     74  O61 IDS d 502      26.448  27.916 143.975  0.00  0.00    -0.646 OA
ATOM     75  O62 IDS d 502      28.589  28.054 143.515  0.00  0.00    -0.646 OA
ATOM     76  C5  IDS d 502      27.850  26.110 144.679  0.00  0.00     0.152 C 
ATOM     77  O3  IDS d 502      29.722  23.148 143.371  0.00  0.00    -0.390 OA
ATOM     78  C6  IDS d 502      27.600  27.438 143.978  0.00  0.00     0.206 C 
ATOM     79  O3S IDS d 502      31.507  22.312 148.216  0.00  0.00    -0.572 OA
ATOM     80  C4  IDS d 502      28.374  25.109 143.631  0.00  0.00     0.103 C 
ATOM     81  C2  IDS d 502      29.632  24.189 145.518  0.00  0.00     0.134 C 
ATOM     82  H   IDS d 502      30.505  24.982 143.744  0.00  0.00     0.091 H 
ATOM     83  H   IDS d 502      30.706  25.959 145.938  0.00  0.00     0.133 H 
ATOM     84  H   IDS d 502      27.002  25.620 145.111  0.00  0.00     0.104 H 
ATOM     85  H   IDS d 502      28.953  22.611 143.620  0.00  0.00     0.210 HD
ATOM     86  H   IDS d 502      27.608  24.363 143.593  0.00  0.00     0.092 H 
ATOM     87  H   IDS d 502      28.719  23.707 145.801  0.00  0.00     0.097 H 
ENDROOT
TORSDOF 28
ENDMDL
MODEL 30
REMARK VINA RESULT:      -5.8      4.321      6.789
REMARK  0 active torsions:
REMARK  status: ('A' for Active; 'I' for Inactive)
REMARK       I    between atoms: O3_1  and  C3_18 
REMARK       I    between atoms: O6_2  and  C6_6 
REMARK       I    between atoms: O6_2  and  S2_52 
REMARK       I    between atoms: C4_3  and  O4_50 
REMARK       I    between atoms: C6_4  and  C5_31 
REMARK       I    between atoms: C6_4  and  O6_12 
REMARK       I    between atoms: C6_6  and  C5_15 
REMARK       I    between atoms: O2_7  and  C2_53 
REMARK       I    between atoms: O2_7  and  S_26 
REMARK       I    between atoms: C3_8  and  O3_38 
REMARK       I    between atoms: S1_9  and  N_19 
REMARK       I    between atoms: S1_9  and  O1S_55 
REMARK       I    between atoms: S1_9  and  O2S_49 
REMARK       I    between atoms: S1_9  and  O3S_17 
REMARK       I    between atoms: O6_12  and  S2_45 
REMARK       I    between atoms: O1S_14  and  S1_48 
REMARK       I    between atoms: O3S_16  and  S1_48 
REMARK       I    between atoms: N_19  and  C2_46 
REMARK       I    between atoms: O1_22  and  C1_24 
REMARK       I    between atoms: O1_22  and  C4_41 
REMARK       I    between atoms: N_23  and  C2_47 
REMARK       I    between atoms: N_23  and  S1_48 
REMARK       I    between atoms: O2S_25  and  S1_48 
REMARK       I    between atoms: C1_27  and  O4_44 
REMARK       I    between atoms: C3_34  and  O3_43 
REMARK       I    between atoms: C1_35  and  O1_36 
REMARK       I    between atoms: C5_37  and  C6_39 
REMARK       I    between atoms: O4_44  and  C4_54 
ROOT
ATOM      1  O3  SGN d 503      25.153  18.927 147.469  0.00  0.00    -0.391 OA
ATOM      2  O6  SGN d 503      27.554  16.774 144.095  0.00  0.00    -0.254 OA
ATOM      3  C6  SGN d 503      26.340  16.134 143.720  0.00  0.00     0.067 C 
ATOM      4  O1S SGN d 503      26.519  16.004 150.876  0.00  0.00    -0.296 OA
ATOM      5  C5  SGN d 503      25.429  16.202 144.932  0.00  0.00     0.091 C 
ATOM      6  O3S SGN d 503      26.333  18.321 150.216  0.00  0.00    -0.296 OA
ATOM      7  C3  SGN d 503      24.894  17.668 146.888  0.00  0.00     0.083 C 
ATOM      8  O4S SGN d 503      28.905  17.834 142.089  0.00  0.00    -0.572 OA
ATOM      9  N   SGN d 503      24.704  16.589 149.046  0.00  0.00    -0.210 NA
ATOM     10  O2S SGN d 503      24.616  17.317 151.599  0.00  0.00    -0.296 OA
ATOM     11  O5  SGN d 503      25.887  15.215 145.857  0.00  0.00    -0.350 OA
ATOM     12  O6S SGN d 503      30.178  16.762 143.855  0.00  0.00    -0.572 OA
ATOM     13  O5S SGN d 503      28.912  15.436 142.275  0.00  0.00    -0.572 OA
ATOM     14  C1  SGN d 503      25.219  15.206 147.117  0.00  0.00     0.147 C 
ATOM     15  O1  SGN d 503      23.831  14.938 146.942  0.00  0.00    -0.369 OA
ATOM     16  O4  SGN d 503      24.987  18.549 144.674  0.00  0.00    -0.348 OA
ATOM     17  C2  SGN d 503      25.411  16.559 147.784  0.00  0.00     0.081 C 
ATOM     18  S1  SGN d 503      25.578  17.080 150.497  0.00  0.00     0.156 S 
ATOM     19  S2  SGN d 503      28.952  16.698 143.033  0.00  0.00     0.251 S 
ATOM     20  C4  SGN d 503      25.584  17.588 145.542  0.00  0.00     0.095 C 
ATOM     21  H   SGN d 503      24.713  18.982 148.332  0.00  0.00     0.210 HD
ATOM     22  H   SGN d 503      26.525  15.115 143.454  0.00  0.00     0.080 H 
ATOM     23  H   SGN d 503      25.895  16.612 142.873  0.00  0.00     0.080 H 
ATOM     24  H   SGN d 503      27.147  15.854 150.151  0.00  0.00     0.231 HD
ATOM     25  H   SGN d 503      24.403  16.028 144.681  0.00  0.00     0.090 H 
ATOM     26  H   SGN d 503      26.962  18.161 149.494  0.00  0.00     0.231 HD
ATOM     27  H   SGN d 503      23.837  17.551 146.765  0.00  0.00     0.089 H 
ATOM     28  H   SGN d 503      24.349  15.648 149.214  0.00  0.00     0.140 HD
ATOM     29  H   SGN d 503      25.097  17.587 152.397  0.00  0.00     0.231 HD
ATOM     30  H   SGN d 503      25.632  14.436 147.733  0.00  0.00     0.131 H 
ATOM     31  H   SGN d 503      23.436  15.626 146.385  0.00  0.00     0.212 HD
ATOM     32  H   SGN d 503      26.456  16.709 147.957  0.00  0.00     0.076 H 
ATOM     33  H   SGN d 503      26.628  17.784 145.670  0.00  0.00     0.091 H 
ATOM     34  C4  SGN d 501      29.373  25.884 142.471  0.00  0.00     0.089 C 
ATOM     35  C6  SGN d 501      28.280  26.343 144.697  0.00  0.00     0.067 C 
ATOM     36  O6S SGN d 501      26.987  28.935 146.399  0.00  0.00    -0.572 OA
ATOM     37  S1  SGN d 501      28.347  23.699 138.137  0.00  0.00     0.156 S 
ATOM     38  O6  SGN d 501      26.932  26.793 144.818  0.00  0.00    -0.254 OA
ATOM     39  O5S SGN d 501      27.378  29.296 144.039  0.00  0.00    -0.572 OA
ATOM     40  O3S SGN d 501      28.521  25.151 137.909  0.00  0.00    -0.296 OA
ATOM     41  N   SGN d 501      28.290  23.363 139.875  0.00  0.00    -0.210 NA
ATOM     42  O1  SGN d 501      27.485  22.828 142.502  0.00  0.00    -0.348 OA
ATOM     43  C1  SGN d 501      27.171  24.094 141.926  0.00  0.00     0.150 C 
ATOM     44  C5  SGN d 501      28.409  25.368 143.532  0.00  0.00     0.090 C 
ATOM     45  C3  SGN d 501      29.529  24.828 141.383  0.00  0.00     0.083 C 
ATOM     46  O4S SGN d 501      25.153  28.772 144.830  0.00  0.00    -0.572 OA
ATOM     47  O3  SGN d 501      30.366  25.316 140.353  0.00  0.00    -0.391 OA
ATOM     48  S2  SGN d 501      26.599  28.519 145.030  0.00  0.00     0.251 S 
ATOM     49  C2  SGN d 501      28.159  24.460 140.817  0.00  0.00     0.081 C 
ATOM     50  O2S SGN d 501      29.483  22.968 137.530  0.00  0.00    -0.296 OA
ATOM     51  O4  SGN d 501      30.643  26.159 143.064  0.00  0.00    -0.390 OA
ATOM     52  O5  SGN d 501      27.137  25.119 142.924  0.00  0.00    -0.349 OA
ATOM     53  O1S SGN d 501      27.079  23.256 137.514  0.00  0.00    -0.296 OA
ATOM     54  H   SGN d 501      28.988  26.785 142.042  0.00  0.00     0.091 H 
ATOM     55  H   SGN d 501      28.920  27.183 144.527  0.00  0.00     0.080 H 
ATOM     56  H   SGN d 501      28.564  25.845 145.601  0.00  0.00     0.080 H 
ATOM     57  H   SGN d 501      27.778  25.633 138.305  0.00  0.00     0.231 HD
ATOM     58  H   SGN d 501      29.154  22.874 140.109  0.00  0.00     0.140 HD
ATOM     59  H   SGN d 501      26.197  24.016 141.490  0.00  0.00     0.131 H 
ATOM     60  H   SGN d 501      28.796  24.456 143.936  0.00  0.00     0.090 H 
ATOM     61  H   SGN d 501      29.976  23.952 141.806  0.00  0.00     0.089 H 
ATOM     62  H   SGN d 501      29.969  26.110 139.963  0.00  0.00     0.210 HD
ATOM     63  H   SGN d 501      27.771  25.318 140.309  0.00  0.00     0.076 H 
ATOM     64  H   SGN d 501      29.372  22.016 137.678  0.00  0.00     0.231 HD
ATOM     65  H   SGN d 501      31.000  25.346 143.455  0.00  0.00     0.210 HD
ATOM     66  H   SGN d 501      26.961  22.303 137.661  0.00  0.00     0.231 HD
ATOM     67  O2  IDS d 502      25.215  18.642 141.874  0.00  0.00    -0.244 OA
ATOM     68  C3  IDS d 502      26.334  20.759 142.025  0.00  0.00     0.094 C 
ATOM     69  O2S IDS d 502      22.680  18.593 142.671  0.00  0.00    -0.572 OA
ATOM     70  O1S IDS d 502      23.115  18.124 140.334  0.00  0.00    -0.572 OA
ATOM     71  O5  IDS d 502      26.256  20.535 144.835  0.00  0.00    -0.340 OA
ATOM     72  S   IDS d 502      23.604  17.932 141.719  0.00  0.00     0.252 S 
ATOM     73  C1  IDS d 502      25.921  19.403 144.023  0.00  0.00     0.161 C 
ATOM     74  O61 IDS d 502      26.912  23.560 145.829  0.00  0.00    -0.646 OA
ATOM     75  O62 IDS d 502      28.394  22.224 144.918  0.00  0.00    -0.646 OA
ATOM     76  C5  IDS d 502      26.111  21.877 144.329  0.00  0.00     0.152 C 
ATOM     77  O3  IDS d 502      25.930  21.012 140.696  0.00  0.00    -0.390 OA
ATOM     78  C6  IDS d 502      27.216  22.633 145.053  0.00  0.00     0.206 C 
ATOM     79  O3S IDS d 502      23.668  16.487 142.028  0.00  0.00    -0.572 OA
ATOM     80  C4  IDS d 502      26.326  22.053 142.813  0.00  0.00     0.103 C 
ATOM     81  C2  IDS d 502      25.363  19.808 142.678  0.00  0.00     0.134 C 
ATOM     82  H   IDS d 502      27.318  20.336 142.013  0.00  0.00     0.091 H 
ATOM     83  H   IDS d 502      26.838  18.874 143.868  0.00  0.00     0.133 H 
ATOM     84  H   IDS d 502      25.106  22.209 144.493  0.00  0.00     0.104 H 
ATOM     85  H   IDS d 502      25.039  21.395 140.695  0.00  0.00     0.210 HD
ATOM     86  H   IDS d 502      25.461  22.599 142.499  0.00  0.00     0.092 H 
ATOM     87  H   IDS d 502      24.412  20.284 142.790  0.00  0.00     0.097 H 
ENDROOT
TORSDOF 28
ENDMDL
MODEL 31
REMARK VINA RESULT:      -5.8      3.202      9.809
REMARK  0 active torsions:
REMARK  status: ('A' for Active; 'I' for Inactive)
REMARK       I    between atoms: O3_1  and  C3_18 
REMARK       I    between atoms: O6_2  and  C6_6 
REMARK       I    between atoms: O6_2  and  S2_52 
REMARK       I    between atoms: C4_3  and  O4_50 
REMARK       I    between atoms: C6_4  and  C5_31 
REMARK       I    between atoms: C6_4  and  O6_12 
REMARK       I    between atoms: C6_6  and  C5_15 
REMARK       I    between atoms: O2_7  and  C2_53 
REMARK       I    between atoms: O2_7  and  S_26 
REMARK       I    between atoms: C3_8  and  O3_38 
REMARK       I    between atoms: S1_9  and  N_19 
REMARK       I    between atoms: S1_9  and  O1S_55 
REMARK       I    between atoms: S1_9  and  O2S_49 
REMARK       I    between atoms: S1_9  and  O3S_17 
REMARK       I    between atoms: O6_12  and  S2_45 
REMARK       I    between atoms: O1S_14  and  S1_48 
REMARK       I    between atoms: O3S_16  and  S1_48 
REMARK       I    between atoms: N_19  and  C2_46 
REMARK       I    between atoms: O1_22  and  C1_24 
REMARK       I    between atoms: O1_22  and  C4_41 
REMARK       I    between atoms: N_23  and  C2_47 
REMARK       I    between atoms: N_23  and  S1_48 
REMARK       I    between atoms: O2S_25  and  S1_48 
REMARK       I    between atoms: C1_27  and  O4_44 
REMARK       I    between atoms: C3_34  and  O3_43 
REMARK       I    between atoms: C1_35  and  O1_36 
REMARK       I    between atoms: C5_37  and  C6_39 
REMARK       I    between atoms: O4_44  and  C4_54 
ROOT
ATOM      1  O3  SGN d 503      31.703  27.127 145.999  0.00  0.00    -0.391 OA
ATOM      2  O6  SGN d 503      27.746  25.180 147.529  0.00  0.00    -0.254 OA
ATOM      3  C6  SGN d 503      27.046  26.047 146.644  0.00  0.00     0.067 C 
ATOM      4  O1S SGN d 503      32.181  30.019 149.662  0.00  0.00    -0.296 OA
ATOM      5  C5  SGN d 503      27.986  27.200 146.344  0.00  0.00     0.091 C 
ATOM      6  O3S SGN d 503      33.283  28.356 148.300  0.00  0.00    -0.296 OA
ATOM      7  C3  SGN d 503      30.420  27.711 146.073  0.00  0.00     0.083 C 
ATOM      8  O4S SGN d 503      26.993  22.651 147.416  0.00  0.00    -0.572 OA
ATOM      9  N   SGN d 503      31.260  29.676 147.209  0.00  0.00    -0.210 NA
ATOM     10  O2S SGN d 503      33.623  30.711 147.843  0.00  0.00    -0.296 OA
ATOM     11  O5  SGN d 503      27.983  28.053 147.490  0.00  0.00    -0.350 OA
ATOM     12  O6S SGN d 503      27.539  23.562 149.598  0.00  0.00    -0.572 OA
ATOM     13  O5S SGN d 503      25.491  24.199 148.478  0.00  0.00    -0.572 OA
ATOM     14  C1  SGN d 503      28.902  29.141 147.440  0.00  0.00     0.147 C 
ATOM     15  O1  SGN d 503      28.604  29.995 146.339  0.00  0.00    -0.369 OA
ATOM     16  O4  SGN d 503      29.405  25.889 144.917  0.00  0.00    -0.348 OA
ATOM     17  C2  SGN d 503      30.312  28.588 147.306  0.00  0.00     0.081 C 
ATOM     18  S1  SGN d 503      32.648  29.693 148.298  0.00  0.00     0.156 S 
ATOM     19  S2  SGN d 503      26.906  23.838 148.292  0.00  0.00     0.251 S 
ATOM     20  C4  SGN d 503      29.376  26.615 146.144  0.00  0.00     0.095 C 
ATOM     21  H   SGN d 503      32.373  27.826 145.954  0.00  0.00     0.210 HD
ATOM     22  H   SGN d 503      26.154  26.409 147.110  0.00  0.00     0.080 H 
ATOM     23  H   SGN d 503      26.758  25.538 145.749  0.00  0.00     0.080 H 
ATOM     24  H   SGN d 503      31.543  29.349 149.955  0.00  0.00     0.231 HD
ATOM     25  H   SGN d 503      27.692  27.748 145.473  0.00  0.00     0.090 H 
ATOM     26  H   SGN d 503      32.641  27.693 148.598  0.00  0.00     0.231 HD
ATOM     27  H   SGN d 503      30.260  28.313 145.203  0.00  0.00     0.089 H 
ATOM     28  H   SGN d 503      30.743  30.540 147.368  0.00  0.00     0.140 HD
ATOM     29  H   SGN d 503      34.385  30.721 148.442  0.00  0.00     0.231 HD
ATOM     30  H   SGN d 503      28.823  29.717 148.338  0.00  0.00     0.131 H 
ATOM     31  H   SGN d 503      28.671  29.492 145.513  0.00  0.00     0.212 HD
ATOM     32  H   SGN d 503      30.531  27.999 148.173  0.00  0.00     0.076 H 
ATOM     33  H   SGN d 503      29.595  25.975 146.973  0.00  0.00     0.091 H 
ATOM     34  C4  SGN d 501      32.767  17.734 144.652  0.00  0.00     0.089 C 
ATOM     35  C6  SGN d 501      34.716  19.321 144.441  0.00  0.00     0.067 C 
ATOM     36  O6S SGN d 501      37.742  19.439 142.983  0.00  0.00    -0.572 OA
ATOM     37  S1  SGN d 501      28.120  17.217 142.996  0.00  0.00     0.156 S 
ATOM     38  O6  SGN d 501      35.124  19.882 143.194  0.00  0.00    -0.254 OA
ATOM     39  O5S SGN d 501      36.261  17.681 142.229  0.00  0.00    -0.572 OA
ATOM     40  O3S SGN d 501      28.944  16.113 142.455  0.00  0.00    -0.296 OA
ATOM     41  N   SGN d 501      29.160  18.422 143.772  0.00  0.00    -0.210 NA
ATOM     42  O1  SGN d 501      30.719  20.671 144.363  0.00  0.00    -0.348 OA
ATOM     43  C1  SGN d 501      31.167  19.762 143.359  0.00  0.00     0.150 C 
ATOM     44  C5  SGN d 501      33.198  19.185 144.488  0.00  0.00     0.090 C 
ATOM     45  C3  SGN d 501      31.251  17.676 144.784  0.00  0.00     0.083 C 
ATOM     46  O4S SGN d 501      36.501  19.703 140.924  0.00  0.00    -0.572 OA
ATOM     47  O3  SGN d 501      30.824  16.330 144.868  0.00  0.00    -0.391 OA
ATOM     48  S2  SGN d 501      36.461  19.147 142.296  0.00  0.00     0.251 S 
ATOM     49  C2  SGN d 501      30.598  18.360 143.586  0.00  0.00     0.081 C 
ATOM     50  O2S SGN d 501      27.167  16.674 143.992  0.00  0.00    -0.296 OA
ATOM     51  O4  SGN d 501      33.377  17.177 145.817  0.00  0.00    -0.390 OA
ATOM     52  O5  SGN d 501      32.596  19.719 143.304  0.00  0.00    -0.349 OA
ATOM     53  O1S SGN d 501      27.373  17.857 141.890  0.00  0.00    -0.296 OA
ATOM     54  H   SGN d 501      33.074  17.168 143.797  0.00  0.00     0.091 H 
ATOM     55  H   SGN d 501      35.161  18.354 144.555  0.00  0.00     0.080 H 
ATOM     56  H   SGN d 501      35.033  19.965 145.234  0.00  0.00     0.080 H 
ATOM     57  H   SGN d 501      29.569  16.465 141.802  0.00  0.00     0.231 HD
ATOM     58  H   SGN d 501      28.989  18.358 144.776  0.00  0.00     0.140 HD
ATOM     59  H   SGN d 501      30.804  20.120 142.418  0.00  0.00     0.131 H 
ATOM     60  H   SGN d 501      32.867  19.743 145.338  0.00  0.00     0.090 H 
ATOM     61  H   SGN d 501      30.957  18.187 145.678  0.00  0.00     0.089 H 
ATOM     62  H   SGN d 501      31.086  15.858 144.061  0.00  0.00     0.210 HD
ATOM     63  H   SGN d 501      30.817  17.779 142.715  0.00  0.00     0.076 H 
ATOM     64  H   SGN d 501      26.625  17.395 144.349  0.00  0.00     0.231 HD
ATOM     65  H   SGN d 501      33.105  17.684 146.598  0.00  0.00     0.210 HD
ATOM     66  H   SGN d 501      26.831  18.582 142.242  0.00  0.00     0.231 HD
ATOM     67  O2  IDS d 502      27.421  24.140 143.964  0.00  0.00    -0.244 OA
ATOM     68  C3  IDS d 502      28.968  22.309 144.077  0.00  0.00     0.094 C 
ATOM     69  O2S IDS d 502      27.993  26.055 142.212  0.00  0.00    -0.572 OA
ATOM     70  O1S IDS d 502      25.963  24.786 141.842  0.00  0.00    -0.572 OA
ATOM     71  O5  IDS d 502      30.868  24.057 145.211  0.00  0.00    -0.340 OA
ATOM     72  S   IDS d 502      26.838  25.398 142.868  0.00  0.00     0.252 S 
ATOM     73  C1  IDS d 502      29.504  24.478 145.079  0.00  0.00     0.161 C 
ATOM     74  O61 IDS d 502      33.655  22.412 144.901  0.00  0.00    -0.646 OA
ATOM     75  O62 IDS d 502      32.063  21.869 146.310  0.00  0.00    -0.646 OA
ATOM     76  C5  IDS d 502      31.417  23.047 144.341  0.00  0.00     0.152 C 
ATOM     77  O3  IDS d 502      28.174  21.643 143.117  0.00  0.00    -0.390 OA
ATOM     78  C6  IDS d 502      32.451  22.366 145.226  0.00  0.00     0.206 C 
ATOM     79  O3S IDS d 502      26.076  26.406 143.635  0.00  0.00    -0.572 OA
ATOM     80  C4  IDS d 502      30.428  21.971 143.849  0.00  0.00     0.103 C 
ATOM     81  C2  IDS d 502      28.804  23.800 143.925  0.00  0.00     0.134 C 
ATOM     82  H   IDS d 502      28.662  21.999 145.054  0.00  0.00     0.091 H 
ATOM     83  H   IDS d 502      29.021  24.190 145.990  0.00  0.00     0.133 H 
ATOM     84  H   IDS d 502      31.772  23.508 143.443  0.00  0.00     0.104 H 
ATOM     85  H   IDS d 502      28.444  21.918 142.226  0.00  0.00     0.210 HD
ATOM     86  H   IDS d 502      30.579  21.958 142.790  0.00  0.00     0.092 H 
ATOM     87  H   IDS d 502      29.220  24.115 142.991  0.00  0.00     0.097 H 
ENDROOT
TORSDOF 28
ENDMDL
MODEL 32
REMARK VINA RESULT:      -5.8      5.520      9.535
REMARK  0 active torsions:
REMARK  status: ('A' for Active; 'I' for Inactive)
REMARK       I    between atoms: O3_1  and  C3_18 
REMARK       I    between atoms: O6_2  and  C6_6 
REMARK       I    between atoms: O6_2  and  S2_52 
REMARK       I    between atoms: C4_3  and  O4_50 
REMARK       I    between atoms: C6_4  and  C5_31 
REMARK       I    between atoms: C6_4  and  O6_12 
REMARK       I    between atoms: C6_6  and  C5_15 
REMARK       I    between atoms: O2_7  and  C2_53 
REMARK       I    between atoms: O2_7  and  S_26 
REMARK       I    between atoms: C3_8  and  O3_38 
REMARK       I    between atoms: S1_9  and  N_19 
REMARK       I    between atoms: S1_9  and  O1S_55 
REMARK       I    between atoms: S1_9  and  O2S_49 
REMARK       I    between atoms: S1_9  and  O3S_17 
REMARK       I    between atoms: O6_12  and  S2_45 
REMARK       I    between atoms: O1S_14  and  S1_48 
REMARK       I    between atoms: O3S_16  and  S1_48 
REMARK       I    between atoms: N_19  and  C2_46 
REMARK       I    between atoms: O1_22  and  C1_24 
REMARK       I    between atoms: O1_22  and  C4_41 
REMARK       I    between atoms: N_23  and  C2_47 
REMARK       I    between atoms: N_23  and  S1_48 
REMARK       I    between atoms: O2S_25  and  S1_48 
REMARK       I    between atoms: C1_27  and  O4_44 
REMARK       I    between atoms: C3_34  and  O3_43 
REMARK       I    between atoms: C1_35  and  O1_36 
REMARK       I    between atoms: C5_37  and  C6_39 
REMARK       I    between atoms: O4_44  and  C4_54 
ROOT
ATOM      1  O3  SGN d 503      36.699  21.337 141.026  0.00  0.00    -0.391 OA
ATOM      2  O6  SGN d 503      37.627  18.449 144.573  0.00  0.00    -0.254 OA
ATOM      3  C6  SGN d 503      38.365  19.510 145.167  0.00  0.00     0.067 C 
ATOM      4  O1S SGN d 503      40.020  19.603 138.203  0.00  0.00    -0.296 OA
ATOM      5  C5  SGN d 503      38.718  20.467 144.044  0.00  0.00     0.091 C 
ATOM      6  O3S SGN d 503      37.680  20.180 138.381  0.00  0.00    -0.296 OA
ATOM      7  C3  SGN d 503      37.826  21.339 141.875  0.00  0.00     0.083 C 
ATOM      8  O4S SGN d 503      35.943  17.232 146.203  0.00  0.00    -0.572 OA
ATOM      9  N   SGN d 503      39.366  21.418 140.009  0.00  0.00    -0.210 NA
ATOM     10  O2S SGN d 503      39.237  21.741 137.376  0.00  0.00    -0.296 OA
ATOM     11  O5  SGN d 503      39.791  19.875 143.309  0.00  0.00    -0.350 OA
ATOM     12  O6S SGN d 503      37.143  15.859 144.602  0.00  0.00    -0.572 OA
ATOM     13  O5S SGN d 503      38.286  16.796 146.518  0.00  0.00    -0.572 OA
ATOM     14  C1  SGN d 503      40.187  20.581 142.136  0.00  0.00     0.147 C 
ATOM     15  O1  SGN d 503      40.642  21.889 142.472  0.00  0.00    -0.369 OA
ATOM     16  O4  SGN d 503      36.481  21.317 143.843  0.00  0.00    -0.348 OA
ATOM     17  C2  SGN d 503      39.000  20.666 141.190  0.00  0.00     0.081 C 
ATOM     18  S1  SGN d 503      39.063  20.707 138.423  0.00  0.00     0.156 S 
ATOM     19  S2  SGN d 503      37.232  17.018 145.514  0.00  0.00     0.251 S 
ATOM     20  C4  SGN d 503      37.493  20.592 143.149  0.00  0.00     0.095 C 
ATOM     21  H   SGN d 503      36.908  21.815 140.209  0.00  0.00     0.210 HD
ATOM     22  H   SGN d 503      39.256  19.131 145.623  0.00  0.00     0.080 H 
ATOM     23  H   SGN d 503      37.796  19.999 145.929  0.00  0.00     0.080 H 
ATOM     24  H   SGN d 503      39.901  18.929 138.891  0.00  0.00     0.231 HD
ATOM     25  H   SGN d 503      39.004  21.433 144.406  0.00  0.00     0.090 H 
ATOM     26  H   SGN d 503      37.571  19.504 139.068  0.00  0.00     0.231 HD
ATOM     27  H   SGN d 503      38.090  22.351 142.103  0.00  0.00     0.089 H 
ATOM     28  H   SGN d 503      40.367  21.602 140.069  0.00  0.00     0.140 HD
ATOM     29  H   SGN d 503      39.071  21.351 136.504  0.00  0.00     0.231 HD
ATOM     30  H   SGN d 503      40.992  20.061 141.662  0.00  0.00     0.131 H 
ATOM     31  H   SGN d 503      39.925  22.379 142.904  0.00  0.00     0.212 HD
ATOM     32  H   SGN d 503      38.717  19.673 140.908  0.00  0.00     0.076 H 
ATOM     33  H   SGN d 503      37.156  19.607 142.901  0.00  0.00     0.091 H 
ATOM     34  C4  SGN d 501      28.209  18.252 144.125  0.00  0.00     0.089 C 
ATOM     35  C6  SGN d 501      28.438  19.501 141.945  0.00  0.00     0.067 C 
ATOM     36  O6S SGN d 501      26.535  21.313 139.851  0.00  0.00    -0.572 OA
ATOM     37  S1  SGN d 501      29.538  18.686 148.885  0.00  0.00     0.156 S 
ATOM     38  O6  SGN d 501      28.260  20.912 141.841  0.00  0.00    -0.254 OA
ATOM     39  O5S SGN d 501      25.608  20.897 142.046  0.00  0.00    -0.572 OA
ATOM     40  O3S SGN d 501      28.062  18.769 148.792  0.00  0.00    -0.296 OA
ATOM     41  N   SGN d 501      30.249  18.751 147.264  0.00  0.00    -0.210 NA
ATOM     42  O1  SGN d 501      31.473  19.553 144.877  0.00  0.00    -0.348 OA
ATOM     43  C1  SGN d 501      30.183  20.068 145.201  0.00  0.00     0.150 C 
ATOM     44  C5  SGN d 501      29.099  19.149 143.274  0.00  0.00     0.090 C 
ATOM     45  C3  SGN d 501      28.961  17.863 145.392  0.00  0.00     0.083 C 
ATOM     46  O4S SGN d 501      26.660  23.020 141.560  0.00  0.00    -0.572 OA
ATOM     47  O3  SGN d 501      28.126  17.087 146.229  0.00  0.00    -0.391 OA
ATOM     48  S2  SGN d 501      26.703  21.562 141.303  0.00  0.00     0.251 S 
ATOM     49  C2  SGN d 501      29.422  19.118 146.128  0.00  0.00     0.081 C 
ATOM     50  O2S SGN d 501      29.916  17.411 149.538  0.00  0.00    -0.296 OA
ATOM     51  O4  SGN d 501      27.859  17.079 143.389  0.00  0.00    -0.390 OA
ATOM     52  O5  SGN d 501      29.420  20.328 144.018  0.00  0.00    -0.349 OA
ATOM     53  O1S SGN d 501      30.042  19.825 149.685  0.00  0.00    -0.296 OA
ATOM     54  H   SGN d 501      27.314  18.777 144.386  0.00  0.00     0.091 H 
ATOM     55  H   SGN d 501      27.485  19.018 141.887  0.00  0.00     0.080 H 
ATOM     56  H   SGN d 501      29.066  19.169 141.145  0.00  0.00     0.080 H 
ATOM     57  H   SGN d 501      27.812  19.603 148.365  0.00  0.00     0.231 HD
ATOM     58  H   SGN d 501      30.625  17.823 147.069  0.00  0.00     0.140 HD
ATOM     59  H   SGN d 501      30.327  20.993 145.719  0.00  0.00     0.131 H 
ATOM     60  H   SGN d 501      29.998  18.620 143.038  0.00  0.00     0.090 H 
ATOM     61  H   SGN d 501      29.819  17.281 145.126  0.00  0.00     0.089 H 
ATOM     62  H   SGN d 501      27.344  17.606 146.476  0.00  0.00     0.210 HD
ATOM     63  H   SGN d 501      28.553  19.635 146.476  0.00  0.00     0.076 H 
ATOM     64  H   SGN d 501      30.883  17.354 149.600  0.00  0.00     0.231 HD
ATOM     65  H   SGN d 501      28.666  16.597 143.148  0.00  0.00     0.210 HD
ATOM     66  H   SGN d 501      31.009  19.773 149.747  0.00  0.00     0.231 HD
ATOM     67  O2  IDS d 502      35.742  20.996 146.537  0.00  0.00    -0.244 OA
ATOM     68  C3  IDS d 502      33.551  20.287 145.862  0.00  0.00     0.094 C 
ATOM     69  O2S IDS d 502      36.392  23.510 145.969  0.00  0.00    -0.572 OA
ATOM     70  O1S IDS d 502      36.259  22.901 148.311  0.00  0.00    -0.572 OA
ATOM     71  O5  IDS d 502      34.392  20.438 143.174  0.00  0.00    -0.340 OA
ATOM     72  S   IDS d 502      36.663  22.443 146.962  0.00  0.00     0.252 S 
ATOM     73  C1  IDS d 502      35.360  20.528 144.227  0.00  0.00     0.161 C 
ATOM     74  O61 IDS d 502      31.591  20.385 141.526  0.00  0.00    -0.646 OA
ATOM     75  O62 IDS d 502      32.426  18.649 142.574  0.00  0.00    -0.646 OA
ATOM     76  C5  IDS d 502      33.017  20.805 143.401  0.00  0.00     0.152 C 
ATOM     77  O3  IDS d 502      33.087  20.676 147.138  0.00  0.00    -0.390 OA
ATOM     78  C6  IDS d 502      32.261  19.886 142.452  0.00  0.00     0.206 C 
ATOM     79  O3S IDS d 502      38.108  22.129 146.955  0.00  0.00    -0.572 OA
ATOM     80  C4  IDS d 502      32.480  20.563 144.826  0.00  0.00     0.103 C 
ATOM     81  C2  IDS d 502      34.772  21.095 145.499  0.00  0.00     0.134 C 
ATOM     82  H   IDS d 502      33.789  19.244 145.883  0.00  0.00     0.091 H 
ATOM     83  H   IDS d 502      35.680  19.524 144.416  0.00  0.00     0.133 H 
ATOM     84  H   IDS d 502      32.903  21.859 143.252  0.00  0.00     0.104 H 
ATOM     85  H   IDS d 502      32.869  21.621 147.129  0.00  0.00     0.210 HD
ATOM     86  H   IDS d 502      32.034  21.499 145.087  0.00  0.00     0.092 H 
ATOM     87  H   IDS d 502      34.499  22.121 145.366  0.00  0.00     0.097 H 
ENDROOT
TORSDOF 28
ENDMDL
MODEL 33
REMARK VINA RESULT:      -5.7      3.704      5.420
REMARK  0 active torsions:
REMARK  status: ('A' for Active; 'I' for Inactive)
REMARK       I    between atoms: O3_1  and  C3_18 
REMARK       I    between atoms: O6_2  and  C6_6 
REMARK       I    between atoms: O6_2  and  S2_52 
REMARK       I    between atoms: C4_3  and  O4_50 
REMARK       I    between atoms: C6_4  and  C5_31 
REMARK       I    between atoms: C6_4  and  O6_12 
REMARK       I    between atoms: C6_6  and  C5_15 
REMARK       I    between atoms: O2_7  and  C2_53 
REMARK       I    between atoms: O2_7  and  S_26 
REMARK       I    between atoms: C3_8  and  O3_38 
REMARK       I    between atoms: S1_9  and  N_19 
REMARK       I    between atoms: S1_9  and  O1S_55 
REMARK       I    between atoms: S1_9  and  O2S_49 
REMARK       I    between atoms: S1_9  and  O3S_17 
REMARK       I    between atoms: O6_12  and  S2_45 
REMARK       I    between atoms: O1S_14  and  S1_48 
REMARK       I    between atoms: O3S_16  and  S1_48 
REMARK       I    between atoms: N_19  and  C2_46 
REMARK       I    between atoms: O1_22  and  C1_24 
REMARK       I    between atoms: O1_22  and  C4_41 
REMARK       I    between atoms: N_23  and  C2_47 
REMARK       I    between atoms: N_23  and  S1_48 
REMARK       I    between atoms: O2S_25  and  S1_48 
REMARK       I    between atoms: C1_27  and  O4_44 
REMARK       I    between atoms: C3_34  and  O3_43 
REMARK       I    between atoms: C1_35  and  O1_36 
REMARK       I    between atoms: C5_37  and  C6_39 
REMARK       I    between atoms: O4_44  and  C4_54 
ROOT
ATOM      1  O3  SGN d 503      36.099  21.312 143.793  0.00  0.00    -0.391 OA
ATOM      2  O6  SGN d 503      31.826  20.337 142.187  0.00  0.00    -0.254 OA
ATOM      3  C6  SGN d 503      31.948  19.063 142.807  0.00  0.00     0.067 C 
ATOM      4  O1S SGN d 503      38.281  20.388 139.744  0.00  0.00    -0.296 OA
ATOM      5  C5  SGN d 503      33.434  18.821 143.000  0.00  0.00     0.091 C 
ATOM      6  O3S SGN d 503      37.997  22.012 141.511  0.00  0.00    -0.296 OA
ATOM      7  C3  SGN d 503      35.564  20.050 143.461  0.00  0.00     0.083 C 
ATOM      8  O4S SGN d 503      29.550  21.585 142.672  0.00  0.00    -0.572 OA
ATOM      9  N   SGN d 503      37.476  19.479 142.092  0.00  0.00    -0.210 NA
ATOM     10  O2S SGN d 503      39.877  20.484 141.564  0.00  0.00    -0.296 OA
ATOM     11  O5  SGN d 503      33.970  18.465 141.725  0.00  0.00    -0.350 OA
ATOM     12  O6S SGN d 503      30.483  21.783 140.441  0.00  0.00    -0.572 OA
ATOM     13  O5S SGN d 503      29.477  19.707 141.172  0.00  0.00    -0.572 OA
ATOM     14  C1  SGN d 503      35.386  18.310 141.683  0.00  0.00     0.147 C 
ATOM     15  O1  SGN d 503      35.799  17.270 142.564  0.00  0.00    -0.369 OA
ATOM     16  O4  SGN d 503      33.624  20.397 144.802  0.00  0.00    -0.348 OA
ATOM     17  C2  SGN d 503      36.037  19.625 142.083  0.00  0.00     0.081 C 
ATOM     18  S1  SGN d 503      38.452  20.640 141.191  0.00  0.00     0.156 S 
ATOM     19  S2  SGN d 503      30.265  20.879 141.588  0.00  0.00     0.251 S 
ATOM     20  C4  SGN d 503      34.051  20.130 143.469  0.00  0.00     0.095 C 
ATOM     21  H   SGN d 503      37.067  21.264 143.789  0.00  0.00     0.210 HD
ATOM     22  H   SGN d 503      31.529  18.304 142.179  0.00  0.00     0.080 H 
ATOM     23  H   SGN d 503      31.426  19.034 143.740  0.00  0.00     0.080 H 
ATOM     24  H   SGN d 503      37.346  20.492 139.506  0.00  0.00     0.231 HD
ATOM     25  H   SGN d 503      33.631  18.049 143.714  0.00  0.00     0.090 H 
ATOM     26  H   SGN d 503      37.064  22.109 141.265  0.00  0.00     0.231 HD
ATOM     27  H   SGN d 503      35.895  19.330 144.180  0.00  0.00     0.089 H 
ATOM     28  H   SGN d 503      37.686  18.555 141.715  0.00  0.00     0.140 HD
ATOM     29  H   SGN d 503      40.414  21.122 141.069  0.00  0.00     0.231 HD
ATOM     30  H   SGN d 503      35.687  18.045 140.691  0.00  0.00     0.131 H 
ATOM     31  H   SGN d 503      35.536  17.491 143.471  0.00  0.00     0.212 HD
ATOM     32  H   SGN d 503      35.758  20.374 141.372  0.00  0.00     0.076 H 
ATOM     33  H   SGN d 503      33.738  20.908 142.803  0.00  0.00     0.091 H 
ATOM     34  C4  SGN d 501      30.486  28.358 146.962  0.00  0.00     0.089 C 
ATOM     35  C6  SGN d 501      32.999  28.513 147.109  0.00  0.00     0.067 C 
ATOM     36  O6S SGN d 501      35.338  30.163 148.870  0.00  0.00    -0.572 OA
ATOM     37  S1  SGN d 501      26.821  25.222 148.118  0.00  0.00     0.156 S 
ATOM     38  O6  SGN d 501      33.731  28.125 148.270  0.00  0.00    -0.254 OA
ATOM     39  O5S SGN d 501      33.087  30.237 149.753  0.00  0.00    -0.572 OA
ATOM     40  O3S SGN d 501      26.685  26.440 148.947  0.00  0.00    -0.296 OA
ATOM     41  N   SGN d 501      28.372  25.244 147.264  0.00  0.00    -0.210 NA
ATOM     42  O1  SGN d 501      31.024  24.842 146.459  0.00  0.00    -0.348 OA
ATOM     43  C1  SGN d 501      30.766  25.568 147.660  0.00  0.00     0.150 C 
ATOM     44  C5  SGN d 501      31.801  27.592 146.907  0.00  0.00     0.090 C 
ATOM     45  C3  SGN d 501      29.339  27.402 146.663  0.00  0.00     0.083 C 
ATOM     46  O4S SGN d 501      34.701  28.694 150.682  0.00  0.00    -0.572 OA
ATOM     47  O3  SGN d 501      28.103  28.079 146.778  0.00  0.00    -0.391 OA
ATOM     48  S2  SGN d 501      34.235  29.354 149.441  0.00  0.00     0.251 S 
ATOM     49  C2  SGN d 501      29.383  26.220 147.628  0.00  0.00     0.081 C 
ATOM     50  O2S SGN d 501      25.716  25.174 147.133  0.00  0.00    -0.296 OA
ATOM     51  O4  SGN d 501      30.501  29.414 146.000  0.00  0.00    -0.390 OA
ATOM     52  O5  SGN d 501      31.778  26.554 147.892  0.00  0.00    -0.349 OA
ATOM     53  O1S SGN d 501      26.762  24.027 148.991  0.00  0.00    -0.296 OA
ATOM     54  H   SGN d 501      30.356  28.780 147.937  0.00  0.00     0.091 H 
ATOM     55  H   SGN d 501      32.655  29.520 147.228  0.00  0.00     0.080 H 
ATOM     56  H   SGN d 501      33.640  28.445 146.254  0.00  0.00     0.080 H 
ATOM     57  H   SGN d 501      27.407  26.474 149.594  0.00  0.00     0.231 HD
ATOM     58  H   SGN d 501      28.163  25.389 146.276  0.00  0.00     0.140 HD
ATOM     59  H   SGN d 501      30.786  24.868 148.469  0.00  0.00     0.131 H 
ATOM     60  H   SGN d 501      31.909  27.159 145.935  0.00  0.00     0.090 H 
ATOM     61  H   SGN d 501      29.440  27.036 145.662  0.00  0.00     0.089 H 
ATOM     62  H   SGN d 501      28.001  28.415 147.683  0.00  0.00     0.210 HD
ATOM     63  H   SGN d 501      29.178  26.590 148.611  0.00  0.00     0.076 H 
ATOM     64  H   SGN d 501      25.803  24.376 146.587  0.00  0.00     0.231 HD
ATOM     65  H   SGN d 501      30.619  29.041 145.113  0.00  0.00     0.210 HD
ATOM     66  H   SGN d 501      26.851  23.226 148.450  0.00  0.00     0.231 HD
ATOM     67  O2  IDS d 502      31.021  20.082 145.818  0.00  0.00    -0.244 OA
ATOM     68  C3  IDS d 502      30.885  22.442 146.229  0.00  0.00     0.094 C 
ATOM     69  O2S IDS d 502      32.821  18.742 147.242  0.00  0.00    -0.572 OA
ATOM     70  O1S IDS d 502      30.490  18.183 147.595  0.00  0.00    -0.572 OA
ATOM     71  O5  IDS d 502      33.419  22.740 145.027  0.00  0.00    -0.340 OA
ATOM     72  S   IDS d 502      31.504  18.566 146.586  0.00  0.00     0.252 S 
ATOM     73  C1  IDS d 502      32.722  21.493 144.915  0.00  0.00     0.161 C 
ATOM     74  O61 IDS d 502      34.329  25.717 145.964  0.00  0.00    -0.646 OA
ATOM     75  O62 IDS d 502      32.742  25.327 144.500  0.00  0.00    -0.646 OA
ATOM     76  C5  IDS d 502      33.160  23.636 146.127  0.00  0.00     0.152 C 
ATOM     77  O3  IDS d 502      29.890  22.167 147.193  0.00  0.00    -0.390 OA
ATOM     78  C6  IDS d 502      33.409  25.006 145.512  0.00  0.00     0.206 C 
ATOM     79  O3S IDS d 502      31.611  17.505 145.561  0.00  0.00    -0.572 OA
ATOM     80  C4  IDS d 502      31.724  23.619 146.687  0.00  0.00     0.103 C 
ATOM     81  C2  IDS d 502      31.794  21.248 146.083  0.00  0.00     0.134 C 
ATOM     82  H   IDS d 502      30.411  22.664 145.295  0.00  0.00     0.091 H 
ATOM     83  H   IDS d 502      32.137  21.565 144.023  0.00  0.00     0.133 H 
ATOM     84  H   IDS d 502      33.771  23.357 146.960  0.00  0.00     0.104 H 
ATOM     85  H   IDS d 502      30.311  21.964 148.043  0.00  0.00     0.210 HD
ATOM     86  H   IDS d 502      31.867  23.502 147.740  0.00  0.00     0.092 H 
ATOM     87  H   IDS d 502      32.351  21.106 146.986  0.00  0.00     0.097 H 
ENDROOT
TORSDOF 28
ENDMDL
MODEL 34
REMARK VINA RESULT:      -5.7      3.752      8.473
REMARK  0 active torsions:
REMARK  status: ('A' for Active; 'I' for Inactive)
REMARK       I    between atoms: O3_1  and  C3_18 
REMARK       I    between atoms: O6_2  and  C6_6 
REMARK       I    between atoms: O6_2  and  S2_52 
REMARK       I    between atoms: C4_3  and  O4_50 
REMARK       I    between atoms: C6_4  and  C5_31 
REMARK       I    between atoms: C6_4  and  O6_12 
REMARK       I    between atoms: C6_6  and  C5_15 
REMARK       I    between atoms: O2_7  and  C2_53 
REMARK       I    between atoms: O2_7  and  S_26 
REMARK       I    between atoms: C3_8  and  O3_38 
REMARK       I    between atoms: S1_9  and  N_19 
REMARK       I    between atoms: S1_9  and  O1S_55 
REMARK       I    between atoms: S1_9  and  O2S_49 
REMARK       I    between atoms: S1_9  and  O3S_17 
REMARK       I    between atoms: O6_12  and  S2_45 
REMARK       I    between atoms: O1S_14  and  S1_48 
REMARK       I    between atoms: O3S_16  and  S1_48 
REMARK       I    between atoms: N_19  and  C2_46 
REMARK       I    between atoms: O1_22  and  C1_24 
REMARK       I    between atoms: O1_22  and  C4_41 
REMARK       I    between atoms: N_23  and  C2_47 
REMARK       I    between atoms: N_23  and  S1_48 
REMARK       I    between atoms: O2S_25  and  S1_48 
REMARK       I    between atoms: C1_27  and  O4_44 
REMARK       I    between atoms: C3_34  and  O3_43 
REMARK       I    between atoms: C1_35  and  O1_36 
REMARK       I    between atoms: C5_37  and  C6_39 
REMARK       I    between atoms: O4_44  and  C4_54 
ROOT
ATOM      1  O3  SGN d 503      25.175  20.736 142.267  0.00  0.00    -0.391 OA
ATOM      2  O6  SGN d 503      28.099  22.821 139.285  0.00  0.00    -0.254 OA
ATOM      3  C6  SGN d 503      27.087  23.798 139.068  0.00  0.00     0.067 C 
ATOM      4  O1S SGN d 503      23.735  17.475 139.218  0.00  0.00    -0.296 OA
ATOM      5  C5  SGN d 503      25.778  23.159 139.490  0.00  0.00     0.091 C 
ATOM      6  O3S SGN d 503      24.625  17.855 141.432  0.00  0.00    -0.296 OA
ATOM      7  C3  SGN d 503      24.851  21.521 141.139  0.00  0.00     0.083 C 
ATOM      8  O4S SGN d 503      30.504  23.811 139.743  0.00  0.00    -0.572 OA
ATOM      9  N   SGN d 503      23.317  19.856 140.286  0.00  0.00    -0.210 NA
ATOM     10  O2S SGN d 503      22.238  17.576 141.119  0.00  0.00    -0.296 OA
ATOM     11  O5  SGN d 503      25.398  22.255 138.451  0.00  0.00    -0.350 OA
ATOM     12  O6S SGN d 503      30.358  21.800 138.393  0.00  0.00    -0.572 OA
ATOM     13  O5S SGN d 503      29.674  23.938 137.490  0.00  0.00    -0.572 OA
ATOM     14  C1  SGN d 503      24.240  21.469 138.722  0.00  0.00     0.147 C 
ATOM     15  O1  SGN d 503      23.105  22.307 138.921  0.00  0.00    -0.369 OA
ATOM     16  O4  SGN d 503      26.272  23.305 141.836  0.00  0.00    -0.348 OA
ATOM     17  C2  SGN d 503      24.496  20.630 139.964  0.00  0.00     0.081 C 
ATOM     18  S1  SGN d 503      23.484  18.116 140.526  0.00  0.00     0.156 S 
ATOM     19  S2  SGN d 503      29.733  23.102 138.701  0.00  0.00     0.251 S 
ATOM     20  C4  SGN d 503      26.042  22.383 140.773  0.00  0.00     0.095 C 
ATOM     21  H   SGN d 503      24.415  20.183 142.504  0.00  0.00     0.210 HD
ATOM     22  H   SGN d 503      27.050  24.068 138.033  0.00  0.00     0.080 H 
ATOM     23  H   SGN d 503      27.282  24.689 139.626  0.00  0.00     0.080 H 
ATOM     24  H   SGN d 503      24.552  17.831 138.834  0.00  0.00     0.231 HD
ATOM     25  H   SGN d 503      25.006  23.881 139.654  0.00  0.00     0.090 H 
ATOM     26  H   SGN d 503      25.437  18.210 141.039  0.00  0.00     0.231 HD
ATOM     27  H   SGN d 503      24.011  22.139 141.374  0.00  0.00     0.089 H 
ATOM     28  H   SGN d 503      22.652  19.991 139.525  0.00  0.00     0.140 HD
ATOM     29  H   SGN d 503      22.330  16.620 141.251  0.00  0.00     0.231 HD
ATOM     30  H   SGN d 503      24.040  20.830 137.888  0.00  0.00     0.131 H 
ATOM     31  H   SGN d 503      23.266  22.896 139.675  0.00  0.00     0.212 HD
ATOM     32  H   SGN d 503      25.314  19.969 139.767  0.00  0.00     0.076 H 
ATOM     33  H   SGN d 503      26.895  21.756 140.617  0.00  0.00     0.091 H 
ATOM     34  C4  SGN d 501      33.211  22.272 147.191  0.00  0.00     0.089 C 
ATOM     35  C6  SGN d 501      31.384  20.784 148.089  0.00  0.00     0.067 C 
ATOM     36  O6S SGN d 501      30.312  19.587 151.040  0.00  0.00    -0.572 OA
ATOM     37  S1  SGN d 501      33.786  26.811 145.272  0.00  0.00     0.156 S 
ATOM     38  O6  SGN d 501      30.363  21.257 148.966  0.00  0.00    -0.254 OA
ATOM     39  O5S SGN d 501      31.885  21.422 151.141  0.00  0.00    -0.572 OA
ATOM     40  O3S SGN d 501      34.491  26.750 146.572  0.00  0.00    -0.296 OA
ATOM     41  N   SGN d 501      32.795  25.358 145.055  0.00  0.00    -0.210 NA
ATOM     42  O1  SGN d 501      30.699  23.506 144.939  0.00  0.00    -0.348 OA
ATOM     43  C1  SGN d 501      31.116  24.002 146.209  0.00  0.00     0.150 C 
ATOM     44  C5  SGN d 501      31.749  21.861 147.074  0.00  0.00     0.090 C 
ATOM     45  C3  SGN d 501      33.535  23.279 146.094  0.00  0.00     0.083 C 
ATOM     46  O4S SGN d 501      29.519  21.840 151.422  0.00  0.00    -0.572 OA
ATOM     47  O3  SGN d 501      34.870  23.726 146.229  0.00  0.00    -0.391 OA
ATOM     48  S2  SGN d 501      30.526  21.016 150.713  0.00  0.00     0.251 S 
ATOM     49  C2  SGN d 501      32.574  24.462 146.175  0.00  0.00     0.081 C 
ATOM     50  O2S SGN d 501      34.781  26.897 144.178  0.00  0.00    -0.296 OA
ATOM     51  O4  SGN d 501      34.049  21.123 147.057  0.00  0.00    -0.390 OA
ATOM     52  O5  SGN d 501      30.925  23.020 147.233  0.00  0.00    -0.349 OA
ATOM     53  O1S SGN d 501      32.912  28.005 145.245  0.00  0.00    -0.296 OA
ATOM     54  H   SGN d 501      33.385  22.717 148.148  0.00  0.00     0.091 H 
ATOM     55  H   SGN d 501      32.252  20.529 148.661  0.00  0.00     0.080 H 
ATOM     56  H   SGN d 501      31.024  19.922 147.568  0.00  0.00     0.080 H 
ATOM     57  H   SGN d 501      33.842  26.694 147.290  0.00  0.00     0.231 HD
ATOM     58  H   SGN d 501      33.236  24.808 144.318  0.00  0.00     0.140 HD
ATOM     59  H   SGN d 501      30.505  24.850 146.439  0.00  0.00     0.131 H 
ATOM     60  H   SGN d 501      31.586  21.437 146.105  0.00  0.00     0.090 H 
ATOM     61  H   SGN d 501      33.424  22.806 145.140  0.00  0.00     0.089 H 
ATOM     62  H   SGN d 501      34.981  24.157 147.091  0.00  0.00     0.210 HD
ATOM     63  H   SGN d 501      32.769  24.984 147.089  0.00  0.00     0.076 H 
ATOM     64  H   SGN d 501      34.321  26.936 143.324  0.00  0.00     0.231 HD
ATOM     65  H   SGN d 501      33.899  20.713 146.191  0.00  0.00     0.210 HD
ATOM     66  H   SGN d 501      32.448  28.048 144.394  0.00  0.00     0.231 HD
ATOM     67  O2  IDS d 502      27.841  25.634 141.718  0.00  0.00    -0.244 OA
ATOM     68  C3  IDS d 502      29.344  24.717 143.349  0.00  0.00     0.094 C 
ATOM     69  O2S IDS d 502      25.367  26.134 142.549  0.00  0.00    -0.572 OA
ATOM     70  O1S IDS d 502      26.707  28.030 141.855  0.00  0.00    -0.572 OA
ATOM     71  O5  IDS d 502      27.852  22.324 143.294  0.00  0.00    -0.340 OA
ATOM     72  S   IDS d 502      26.377  26.613 141.576  0.00  0.00     0.252 S 
ATOM     73  C1  IDS d 502      27.618  23.330 142.301  0.00  0.00     0.161 C 
ATOM     74  O61 IDS d 502      28.850  20.777 145.974  0.00  0.00    -0.646 OA
ATOM     75  O62 IDS d 502      30.087  21.041 144.180  0.00  0.00    -0.646 OA
ATOM     76  C5  IDS d 502      28.395  22.671 144.583  0.00  0.00     0.152 C 
ATOM     77  O3  IDS d 502      29.735  26.038 143.659  0.00  0.00    -0.390 OA
ATOM     78  C6  IDS d 502      29.186  21.426 144.962  0.00  0.00     0.206 C 
ATOM     79  O3S IDS d 502      25.830  26.490 140.208  0.00  0.00    -0.572 OA
ATOM     80  C4  IDS d 502      29.359  23.873 144.608  0.00  0.00     0.103 C 
ATOM     81  C2  IDS d 502      27.938  24.719 142.804  0.00  0.00     0.134 C 
ATOM     82  H   IDS d 502      30.022  24.317 142.624  0.00  0.00     0.091 H 
ATOM     83  H   IDS d 502      28.278  23.100 141.491  0.00  0.00     0.133 H 
ATOM     84  H   IDS d 502      27.598  22.959 145.237  0.00  0.00     0.104 H 
ATOM     85  H   IDS d 502      29.125  26.410 144.316  0.00  0.00     0.210 HD
ATOM     86  H   IDS d 502      28.973  24.488 145.394  0.00  0.00     0.092 H 
ATOM     87  H   IDS d 502      27.254  25.009 143.574  0.00  0.00     0.097 H 
ENDROOT
TORSDOF 28
ENDMDL
MODEL 35
REMARK VINA RESULT:      -5.7      2.857      9.581
REMARK  0 active torsions:
REMARK  status: ('A' for Active; 'I' for Inactive)
REMARK       I    between atoms: O3_1  and  C3_18 
REMARK       I    between atoms: O6_2  and  C6_6 
REMARK       I    between atoms: O6_2  and  S2_52 
REMARK       I    between atoms: C4_3  and  O4_50 
REMARK       I    between atoms: C6_4  and  C5_31 
REMARK       I    between atoms: C6_4  and  O6_12 
REMARK       I    between atoms: C6_6  and  C5_15 
REMARK       I    between atoms: O2_7  and  C2_53 
REMARK       I    between atoms: O2_7  and  S_26 
REMARK       I    between atoms: C3_8  and  O3_38 
REMARK       I    between atoms: S1_9  and  N_19 
REMARK       I    between atoms: S1_9  and  O1S_55 
REMARK       I    between atoms: S1_9  and  O2S_49 
REMARK       I    between atoms: S1_9  and  O3S_17 
REMARK       I    between atoms: O6_12  and  S2_45 
REMARK       I    between atoms: O1S_14  and  S1_48 
REMARK       I    between atoms: O3S_16  and  S1_48 
REMARK       I    between atoms: N_19  and  C2_46 
REMARK       I    between atoms: O1_22  and  C1_24 
REMARK       I    between atoms: O1_22  and  C4_41 
REMARK       I    between atoms: N_23  and  C2_47 
REMARK       I    between atoms: N_23  and  S1_48 
REMARK       I    between atoms: O2S_25  and  S1_48 
REMARK       I    between atoms: C1_27  and  O4_44 
REMARK       I    between atoms: C3_34  and  O3_43 
REMARK       I    between atoms: C1_35  and  O1_36 
REMARK       I    between atoms: C5_37  and  C6_39 
REMARK       I    between atoms: O4_44  and  C4_54 
ROOT
ATOM      1  O3  SGN d 503      29.873  27.157 145.814  0.00  0.00    -0.391 OA
ATOM      2  O6  SGN d 503      25.691  25.135 145.351  0.00  0.00    -0.254 OA
ATOM      3  C6  SGN d 503      25.552  25.839 144.123  0.00  0.00     0.067 C 
ATOM      4  O1S SGN d 503      28.393  30.493 148.761  0.00  0.00    -0.296 OA
ATOM      5  C5  SGN d 503      26.514  27.011 144.190  0.00  0.00     0.091 C 
ATOM      6  O3S SGN d 503      30.038  28.760 148.403  0.00  0.00    -0.296 OA
ATOM      7  C3  SGN d 503      28.738  27.654 145.137  0.00  0.00     0.083 C 
ATOM      8  O4S SGN d 503      25.100  22.565 145.220  0.00  0.00    -0.572 OA
ATOM      9  N   SGN d 503      28.874  29.795 146.258  0.00  0.00    -0.210 NA
ATOM     10  O2S SGN d 503      30.569  31.061 147.863  0.00  0.00    -0.296 OA
ATOM     11  O5  SGN d 503      25.920  27.993 145.041  0.00  0.00    -0.350 OA
ATOM     12  O6S SGN d 503      24.440  23.766 147.223  0.00  0.00    -0.572 OA
ATOM     13  O5S SGN d 503      23.268  24.120 145.135  0.00  0.00    -0.572 OA
ATOM     14  C1  SGN d 503      26.735  29.128 145.319  0.00  0.00     0.147 C 
ATOM     15  O1  SGN d 503      27.051  29.821 144.115  0.00  0.00    -0.369 OA
ATOM     16  O4  SGN d 503      28.463  25.641 143.890  0.00  0.00    -0.348 OA
ATOM     17  C2  SGN d 503      28.010  28.663 146.006  0.00  0.00     0.081 C 
ATOM     18  S1  SGN d 503      29.497  30.039 147.890  0.00  0.00     0.156 S 
ATOM     19  S2  SGN d 503      24.574  23.839 145.754  0.00  0.00     0.251 S 
ATOM     20  C4  SGN d 503      27.806  26.505 144.814  0.00  0.00     0.095 C 
ATOM     21  H   SGN d 503      30.472  27.890 146.022  0.00  0.00     0.210 HD
ATOM     22  H   SGN d 503      24.548  26.191 144.009  0.00  0.00     0.080 H 
ATOM     23  H   SGN d 503      25.768  25.207 143.287  0.00  0.00     0.080 H 
ATOM     24  H   SGN d 503      27.694  29.820 148.775  0.00  0.00     0.231 HD
ATOM     25  H   SGN d 503      26.715  27.429 143.225  0.00  0.00     0.090 H 
ATOM     26  H   SGN d 503      29.332  28.094 148.419  0.00  0.00     0.231 HD
ATOM     27  H   SGN d 503      29.053  28.135 144.235  0.00  0.00     0.089 H 
ATOM     28  H   SGN d 503      28.351  30.633 146.008  0.00  0.00     0.140 HD
ATOM     29  H   SGN d 503      30.912  31.196 148.760  0.00  0.00     0.231 HD
ATOM     30  H   SGN d 503      26.204  29.800 145.960  0.00  0.00     0.131 H 
ATOM     31  H   SGN d 503      27.535  29.228 143.519  0.00  0.00     0.212 HD
ATOM     32  H   SGN d 503      27.747  28.199 146.934  0.00  0.00     0.076 H 
ATOM     33  H   SGN d 503      27.562  25.986 145.717  0.00  0.00     0.091 H 
ATOM     34  C4  SGN d 501      31.460  17.767 146.521  0.00  0.00     0.089 C 
ATOM     35  C6  SGN d 501      33.241  19.450 147.121  0.00  0.00     0.067 C 
ATOM     36  O6S SGN d 501      36.584  19.604 147.421  0.00  0.00    -0.572 OA
ATOM     37  S1  SGN d 501      28.338  16.732 142.807  0.00  0.00     0.156 S 
ATOM     38  O6  SGN d 501      34.236  19.885 146.196  0.00  0.00    -0.254 OA
ATOM     39  O5S SGN d 501      35.704  17.669 146.266  0.00  0.00    -0.572 OA
ATOM     40  O3S SGN d 501      29.321  15.631 142.924  0.00  0.00    -0.296 OA
ATOM     41  N   SGN d 501      28.830  18.092 143.830  0.00  0.00    -0.210 NA
ATOM     42  O1  SGN d 501      29.864  20.498 144.818  0.00  0.00    -0.348 OA
ATOM     43  C1  SGN d 501      30.764  19.509 144.323  0.00  0.00     0.150 C 
ATOM     44  C5  SGN d 501      31.917  19.215 146.401  0.00  0.00     0.090 C 
ATOM     45  C3  SGN d 501      30.094  17.620 145.863  0.00  0.00     0.083 C 
ATOM     46  O4S SGN d 501      36.589  19.532 145.003  0.00  0.00    -0.572 OA
ATOM     47  O3  SGN d 501      29.683  16.267 145.902  0.00  0.00    -0.391 OA
ATOM     48  S2  SGN d 501      35.843  19.142 146.223  0.00  0.00     0.251 S 
ATOM     49  C2  SGN d 501      30.157  18.108 144.418  0.00  0.00     0.081 C 
ATOM     50  O2S SGN d 501      27.006  16.247 143.237  0.00  0.00    -0.296 OA
ATOM     51  O4  SGN d 501      31.378  17.398 147.898  0.00  0.00    -0.390 OA
ATOM     52  O5  SGN d 501      32.016  19.560 145.015  0.00  0.00    -0.349 OA
ATOM     53  O1S SGN d 501      28.274  17.182 141.397  0.00  0.00    -0.296 OA
ATOM     54  H   SGN d 501      32.164  17.126 146.032  0.00  0.00     0.091 H 
ATOM     55  H   SGN d 501      33.560  18.537 147.580  0.00  0.00     0.080 H 
ATOM     56  H   SGN d 501      33.103  20.205 147.866  0.00  0.00     0.080 H 
ATOM     57  H   SGN d 501      30.195  15.946 142.642  0.00  0.00     0.231 HD
ATOM     58  H   SGN d 501      28.164  18.137 144.602  0.00  0.00     0.140 HD
ATOM     59  H   SGN d 501      30.941  19.725 143.290  0.00  0.00     0.131 H 
ATOM     60  H   SGN d 501      31.195  19.846 146.875  0.00  0.00     0.090 H 
ATOM     61  H   SGN d 501      29.381  18.212 146.399  0.00  0.00     0.089 H 
ATOM     62  H   SGN d 501      30.322  15.721 145.418  0.00  0.00     0.210 HD
ATOM     63  H   SGN d 501      30.794  17.443 143.873  0.00  0.00     0.076 H 
ATOM     64  H   SGN d 501      26.360  16.967 143.162  0.00  0.00     0.231 HD
ATOM     65  H   SGN d 501      30.742  17.974 148.349  0.00  0.00     0.210 HD
ATOM     66  H   SGN d 501      27.630  17.903 141.317  0.00  0.00     0.231 HD
ATOM     67  O2  IDS d 502      27.256  23.655 142.308  0.00  0.00    -0.244 OA
ATOM     68  C3  IDS d 502      28.517  21.964 143.451  0.00  0.00     0.094 C 
ATOM     69  O2S IDS d 502      28.655  25.382 140.852  0.00  0.00    -0.572 OA
ATOM     70  O1S IDS d 502      27.107  23.939 139.673  0.00  0.00    -0.572 OA
ATOM     71  O5  IDS d 502      29.559  23.964 145.143  0.00  0.00    -0.340 OA
ATOM     72  S   IDS d 502      27.326  24.729 140.907  0.00  0.00     0.252 S 
ATOM     73  C1  IDS d 502      28.462  24.270 144.275  0.00  0.00     0.161 C 
ATOM     74  O61 IDS d 502      32.101  22.492 146.538  0.00  0.00    -0.646 OA
ATOM     75  O62 IDS d 502      30.009  22.011 146.991  0.00  0.00    -0.646 OA
ATOM     76  C5  IDS d 502      30.477  22.897 144.828  0.00  0.00     0.152 C 
ATOM     77  O3  IDS d 502      28.332  21.134 142.323  0.00  0.00    -0.390 OA
ATOM     78  C6  IDS d 502      30.902  22.401 146.203  0.00  0.00     0.206 C 
ATOM     79  O3S IDS d 502      26.279  25.767 141.026  0.00  0.00    -0.572 OA
ATOM     80  C4  IDS d 502      29.883  21.704 144.054  0.00  0.00     0.103 C 
ATOM     81  C2  IDS d 502      28.458  23.410 143.031  0.00  0.00     0.134 C 
ATOM     82  H   IDS d 502      27.748  21.752 144.165  0.00  0.00     0.091 H 
ATOM     83  H   IDS d 502      27.577  24.060 144.838  0.00  0.00     0.133 H 
ATOM     84  H   IDS d 502      31.246  23.272 144.185  0.00  0.00     0.104 H 
ATOM     85  H   IDS d 502      29.025  21.318 141.669  0.00  0.00     0.210 HD
ATOM     86  H   IDS d 502      30.560  21.574 143.236  0.00  0.00     0.092 H 
ATOM     87  H   IDS d 502      29.298  23.640 142.409  0.00  0.00     0.097 H 
ENDROOT
TORSDOF 28
ENDMDL
MODEL 36
REMARK VINA RESULT:      -5.7      4.002      8.714
REMARK  0 active torsions:
REMARK  status: ('A' for Active; 'I' for Inactive)
REMARK       I    between atoms: O3_1  and  C3_18 
REMARK       I    between atoms: O6_2  and  C6_6 
REMARK       I    between atoms: O6_2  and  S2_52 
REMARK       I    between atoms: C4_3  and  O4_50 
REMARK       I    between atoms: C6_4  and  C5_31 
REMARK       I    between atoms: C6_4  and  O6_12 
REMARK       I    between atoms: C6_6  and  C5_15 
REMARK       I    between atoms: O2_7  and  C2_53 
REMARK       I    between atoms: O2_7  and  S_26 
REMARK       I    between atoms: C3_8  and  O3_38 
REMARK       I    between atoms: S1_9  and  N_19 
REMARK       I    between atoms: S1_9  and  O1S_55 
REMARK       I    between atoms: S1_9  and  O2S_49 
REMARK       I    between atoms: S1_9  and  O3S_17 
REMARK       I    between atoms: O6_12  and  S2_45 
REMARK       I    between atoms: O1S_14  and  S1_48 
REMARK       I    between atoms: O3S_16  and  S1_48 
REMARK       I    between atoms: N_19  and  C2_46 
REMARK       I    between atoms: O1_22  and  C1_24 
REMARK       I    between atoms: O1_22  and  C4_41 
REMARK       I    between atoms: N_23  and  C2_47 
REMARK       I    between atoms: N_23  and  S1_48 
REMARK       I    between atoms: O2S_25  and  S1_48 
REMARK       I    between atoms: C1_27  and  O4_44 
REMARK       I    between atoms: C3_34  and  O3_43 
REMARK       I    between atoms: C1_35  and  O1_36 
REMARK       I    between atoms: C5_37  and  C6_39 
REMARK       I    between atoms: O4_44  and  C4_54 
ROOT
ATOM      1  O3  SGN d 503      28.955  26.188 140.435  0.00  0.00    -0.391 OA
ATOM      2  O6  SGN d 503      26.975  22.932 143.131  0.00  0.00    -0.254 OA
ATOM      3  C6  SGN d 503      27.290  21.985 142.117  0.00  0.00     0.067 C 
ATOM      4  O1S SGN d 503      24.906  27.813 138.711  0.00  0.00    -0.296 OA
ATOM      5  C5  SGN d 503      27.489  22.778 140.838  0.00  0.00     0.091 C 
ATOM      6  O3S SGN d 503      26.985  28.422 139.783  0.00  0.00    -0.296 OA
ATOM      7  C3  SGN d 503      28.317  24.996 140.030  0.00  0.00     0.083 C 
ATOM      8  O4S SGN d 503      27.630  22.185 145.577  0.00  0.00    -0.572 OA
ATOM      9  N   SGN d 503      26.942  26.155 138.410  0.00  0.00    -0.210 NA
ATOM     10  O2S SGN d 503      26.770  28.595 137.375  0.00  0.00    -0.296 OA
ATOM     11  O5  SGN d 503      26.192  23.142 140.364  0.00  0.00    -0.350 OA
ATOM     12  O6S SGN d 503      25.549  23.402 145.296  0.00  0.00    -0.572 OA
ATOM     13  O5S SGN d 503      25.736  21.102 144.567  0.00  0.00    -0.572 OA
ATOM     14  C1  SGN d 503      26.180  23.996 139.222  0.00  0.00     0.147 C 
ATOM     15  O1  SGN d 503      26.816  23.360 138.118  0.00  0.00    -0.369 OA
ATOM     16  O4  SGN d 503      29.613  23.665 141.525  0.00  0.00    -0.348 OA
ATOM     17  C2  SGN d 503      26.902  25.289 139.568  0.00  0.00     0.081 C 
ATOM     18  S1  SGN d 503      26.378  27.818 138.575  0.00  0.00     0.156 S 
ATOM     19  S2  SGN d 503      26.447  22.383 144.715  0.00  0.00     0.251 S 
ATOM     20  C4  SGN d 503      28.275  24.031 141.197  0.00  0.00     0.095 C 
ATOM     21  H   SGN d 503      28.985  26.808 139.690  0.00  0.00     0.210 HD
ATOM     22  H   SGN d 503      26.486  21.289 141.998  0.00  0.00     0.080 H 
ATOM     23  H   SGN d 503      28.166  21.425 142.368  0.00  0.00     0.080 H 
ATOM     24  H   SGN d 503      24.656  27.304 139.498  0.00  0.00     0.231 HD
ATOM     25  H   SGN d 503      28.015  22.220 140.091  0.00  0.00     0.090 H 
ATOM     26  H   SGN d 503      26.725  27.910 140.565  0.00  0.00     0.231 HD
ATOM     27  H   SGN d 503      28.866  24.565 139.219  0.00  0.00     0.089 H 
ATOM     28  H   SGN d 503      26.373  25.715 137.687  0.00  0.00     0.140 HD
ATOM     29  H   SGN d 503      26.460  29.509 137.466  0.00  0.00     0.231 HD
ATOM     30  H   SGN d 503      25.169  24.208 138.946  0.00  0.00     0.131 H 
ATOM     31  H   SGN d 503      27.737  23.158 138.347  0.00  0.00     0.212 HD
ATOM     32  H   SGN d 503      26.371  25.775 140.360  0.00  0.00     0.076 H 
ATOM     33  H   SGN d 503      27.793  24.504 142.026  0.00  0.00     0.091 H 
ATOM     34  C4  SGN d 501      33.403  26.771 148.865  0.00  0.00     0.089 C 
ATOM     35  C6  SGN d 501      33.696  28.548 147.099  0.00  0.00     0.067 C 
ATOM     36  O6S SGN d 501      35.894  30.946 146.257  0.00  0.00    -0.572 OA
ATOM     37  S1  SGN d 501      33.637  21.838 149.336  0.00  0.00     0.156 S 
ATOM     38  O6  SGN d 501      34.768  28.534 146.159  0.00  0.00    -0.254 OA
ATOM     39  O5S SGN d 501      36.667  29.303 147.855  0.00  0.00    -0.572 OA
ATOM     40  O3S SGN d 501      34.718  22.446 150.145  0.00  0.00    -0.296 OA
ATOM     41  N   SGN d 501      32.882  23.071 148.313  0.00  0.00    -0.210 NA
ATOM     42  O1  SGN d 501      32.129  24.736 146.192  0.00  0.00    -0.348 OA
ATOM     43  C1  SGN d 501      33.451  24.839 146.717  0.00  0.00     0.150 C 
ATOM     44  C5  SGN d 501      33.232  27.125 147.393  0.00  0.00     0.090 C 
ATOM     45  C3  SGN d 501      32.839  25.377 149.111  0.00  0.00     0.083 C 
ATOM     46  O4S SGN d 501      37.289  29.110 145.526  0.00  0.00    -0.572 OA
ATOM     47  O3  SGN d 501      33.051  25.001 150.457  0.00  0.00    -0.391 OA
ATOM     48  S2  SGN d 501      36.213  29.513 146.461  0.00  0.00     0.251 S 
ATOM     49  C2  SGN d 501      33.508  24.374 148.174  0.00  0.00     0.081 C 
ATOM     50  O2S SGN d 501      32.618  21.256 150.240  0.00  0.00    -0.296 OA
ATOM     51  O4  SGN d 501      32.712  27.723 149.675  0.00  0.00    -0.390 OA
ATOM     52  O5  SGN d 501      33.950  26.175 146.599  0.00  0.00    -0.349 OA
ATOM     53  O1S SGN d 501      34.208  20.775 148.478  0.00  0.00    -0.296 OA
ATOM     54  H   SGN d 501      34.441  26.787 149.121  0.00  0.00     0.091 H 
ATOM     55  H   SGN d 501      34.027  29.006 148.008  0.00  0.00     0.080 H 
ATOM     56  H   SGN d 501      32.879  29.102 146.687  0.00  0.00     0.080 H 
ATOM     57  H   SGN d 501      35.387  22.828 149.556  0.00  0.00     0.231 HD
ATOM     58  H   SGN d 501      31.946  23.231 148.685  0.00  0.00     0.140 HD
ATOM     59  H   SGN d 501      34.077  24.193 146.138  0.00  0.00     0.131 H 
ATOM     60  H   SGN d 501      32.193  27.084 147.146  0.00  0.00     0.090 H 
ATOM     61  H   SGN d 501      31.787  25.385 148.916  0.00  0.00     0.089 H 
ATOM     62  H   SGN d 501      34.003  24.990 150.644  0.00  0.00     0.210 HD
ATOM     63  H   SGN d 501      34.539  24.302 148.449  0.00  0.00     0.076 H 
ATOM     64  H   SGN d 501      31.908  20.857 149.713  0.00  0.00     0.231 HD
ATOM     65  H   SGN d 501      31.768  27.715 149.449  0.00  0.00     0.210 HD
ATOM     66  H   SGN d 501      33.501  20.375 147.946  0.00  0.00     0.231 HD
ATOM     67  O2  IDS d 502      30.409  21.482 143.107  0.00  0.00    -0.244 OA
ATOM     68  C3  IDS d 502      31.346  22.985 144.726  0.00  0.00     0.094 C 
ATOM     69  O2S IDS d 502      31.567  21.460 140.715  0.00  0.00    -0.572 OA
ATOM     70  O1S IDS d 502      31.675  19.419 142.017  0.00  0.00    -0.572 OA
ATOM     71  O5  IDS d 502      30.362  25.146 143.206  0.00  0.00    -0.340 OA
ATOM     72  S   IDS d 502      30.828  20.577 141.648  0.00  0.00     0.252 S 
ATOM     73  C1  IDS d 502      29.934  23.812 142.904  0.00  0.00     0.161 C 
ATOM     74  O61 IDS d 502      32.000  27.687 144.401  0.00  0.00    -0.646 OA
ATOM     75  O62 IDS d 502      30.414  26.632 145.490  0.00  0.00    -0.646 OA
ATOM     76  C5  IDS d 502      31.625  25.388 143.857  0.00  0.00     0.152 C 
ATOM     77  O3  IDS d 502      32.174  21.925 145.158  0.00  0.00    -0.390 OA
ATOM     78  C6  IDS d 502      31.354  26.652 144.661  0.00  0.00     0.206 C 
ATOM     79  O3S IDS d 502      29.592  20.100 140.990  0.00  0.00    -0.572 OA
ATOM     80  C4  IDS d 502      32.100  24.295 144.835  0.00  0.00     0.103 C 
ATOM     81  C2  IDS d 502      30.970  22.779 143.281  0.00  0.00     0.134 C 
ATOM     82  H   IDS d 502      30.468  23.009 145.339  0.00  0.00     0.091 H 
ATOM     83  H   IDS d 502      29.056  23.647 143.493  0.00  0.00     0.133 H 
ATOM     84  H   IDS d 502      32.399  25.436 143.120  0.00  0.00     0.104 H 
ATOM     85  H   IDS d 502      32.973  21.894 144.609  0.00  0.00     0.210 HD
ATOM     86  H   IDS d 502      33.104  24.098 144.522  0.00  0.00     0.092 H 
ATOM     87  H   IDS d 502      31.841  22.873 142.666  0.00  0.00     0.097 H 
ENDROOT
TORSDOF 28
ENDMDL
MODEL 37
REMARK VINA RESULT:      -5.6      2.424      3.240
REMARK  0 active torsions:
REMARK  status: ('A' for Active; 'I' for Inactive)
REMARK       I    between atoms: O3_1  and  C3_18 
REMARK       I    between atoms: O6_2  and  C6_6 
REMARK       I    between atoms: O6_2  and  S2_52 
REMARK       I    between atoms: C4_3  and  O4_50 
REMARK       I    between atoms: C6_4  and  C5_31 
REMARK       I    between atoms: C6_4  and  O6_12 
REMARK       I    between atoms: C6_6  and  C5_15 
REMARK       I    between atoms: O2_7  and  C2_53 
REMARK       I    between atoms: O2_7  and  S_26 
REMARK       I    between atoms: C3_8  and  O3_38 
REMARK       I    between atoms: S1_9  and  N_19 
REMARK       I    between atoms: S1_9  and  O1S_55 
REMARK       I    between atoms: S1_9  and  O2S_49 
REMARK       I    between atoms: S1_9  and  O3S_17 
REMARK       I    between atoms: O6_12  and  S2_45 
REMARK       I    between atoms: O1S_14  and  S1_48 
REMARK       I    between atoms: O3S_16  and  S1_48 
REMARK       I    between atoms: N_19  and  C2_46 
REMARK       I    between atoms: O1_22  and  C1_24 
REMARK       I    between atoms: O1_22  and  C4_41 
REMARK       I    between atoms: N_23  and  C2_47 
REMARK       I    between atoms: N_23  and  S1_48 
REMARK       I    between atoms: O2S_25  and  S1_48 
REMARK       I    between atoms: C1_27  and  O4_44 
REMARK       I    between atoms: C3_34  and  O3_43 
REMARK       I    between atoms: C1_35  and  O1_36 
REMARK       I    between atoms: C5_37  and  C6_39 
REMARK       I    between atoms: O4_44  and  C4_54 
ROOT
ATOM      1  O3  SGN d 503      33.659  21.778 145.348  0.00  0.00    -0.391 OA
ATOM      2  O6  SGN d 503      30.738  22.438 141.767  0.00  0.00    -0.254 OA
ATOM      3  C6  SGN d 503      30.228  21.133 142.020  0.00  0.00     0.067 C 
ATOM      4  O1S SGN d 503      37.340  20.638 142.673  0.00  0.00    -0.296 OA
ATOM      5  C5  SGN d 503      31.300  20.399 142.804  0.00  0.00     0.091 C 
ATOM      6  O3S SGN d 503      36.563  22.062 144.464  0.00  0.00    -0.296 OA
ATOM      7  C3  SGN d 503      33.101  20.804 144.493  0.00  0.00     0.083 C 
ATOM      8  O4S SGN d 503      28.893  24.300 141.456  0.00  0.00    -0.572 OA
ATOM      9  N   SGN d 503      35.256  19.792 144.061  0.00  0.00    -0.210 NA
ATOM     10  O2S SGN d 503      37.740  20.007 144.977  0.00  0.00    -0.296 OA
ATOM     11  O5  SGN d 503      32.320  20.029 141.875  0.00  0.00    -0.350 OA
ATOM     12  O6S SGN d 503      30.861  24.424 140.042  0.00  0.00    -0.572 OA
ATOM     13  O5S SGN d 503      29.179  22.726 139.662  0.00  0.00    -0.572 OA
ATOM     14  C1  SGN d 503      33.476  19.424 142.450  0.00  0.00     0.147 C 
ATOM     15  O1  SGN d 503      33.124  18.217 143.119  0.00  0.00    -0.369 OA
ATOM     16  O4  SGN d 503      30.885  21.619 144.831  0.00  0.00    -0.348 OA
ATOM     17  C2  SGN d 503      34.106  20.401 143.430  0.00  0.00     0.081 C 
ATOM     18  S1  SGN d 503      36.792  20.661 144.045  0.00  0.00     0.156 S 
ATOM     19  S2  SGN d 503      29.882  23.522 140.682  0.00  0.00     0.251 S 
ATOM     20  C4  SGN d 503      31.866  21.375 143.825  0.00  0.00     0.095 C 
ATOM     21  H   SGN d 503      34.449  21.416 145.778  0.00  0.00     0.210 HD
ATOM     22  H   SGN d 503      30.033  20.627 141.097  0.00  0.00     0.080 H 
ATOM     23  H   SGN d 503      29.309  21.175 142.564  0.00  0.00     0.080 H 
ATOM     24  H   SGN d 503      36.715  21.068 142.067  0.00  0.00     0.231 HD
ATOM     25  H   SGN d 503      30.919  19.532 143.301  0.00  0.00     0.090 H 
ATOM     26  H   SGN d 503      35.942  22.486 143.851  0.00  0.00     0.231 HD
ATOM     27  H   SGN d 503      32.839  19.942 145.070  0.00  0.00     0.089 H 
ATOM     28  H   SGN d 503      35.413  18.897 143.599  0.00  0.00     0.140 HD
ATOM     29  H   SGN d 503      38.584  20.485 144.969  0.00  0.00     0.231 HD
ATOM     30  H   SGN d 503      34.175  19.185 141.677  0.00  0.00     0.131 H 
ATOM     31  H   SGN d 503      32.489  18.411 143.826  0.00  0.00     0.212 HD
ATOM     32  H   SGN d 503      34.413  21.274 142.892  0.00  0.00     0.076 H 
ATOM     33  H   SGN d 503      32.128  22.279 143.318  0.00  0.00     0.091 H 
ATOM     34  C4  SGN d 501      28.995  29.883 147.287  0.00  0.00     0.089 C 
ATOM     35  C6  SGN d 501      31.029  29.189 148.607  0.00  0.00     0.067 C 
ATOM     36  O6S SGN d 501      32.427  29.779 151.605  0.00  0.00    -0.572 OA
ATOM     37  S1  SGN d 501      24.657  28.013 145.771  0.00  0.00     0.156 S 
ATOM     38  O6  SGN d 501      30.945  28.459 149.829  0.00  0.00    -0.254 OA
ATOM     39  O5S SGN d 501      30.129  30.489 151.340  0.00  0.00    -0.572 OA
ATOM     40  O3S SGN d 501      24.394  29.110 146.728  0.00  0.00    -0.296 OA
ATOM     41  N   SGN d 501      26.384  27.618 145.764  0.00  0.00    -0.210 NA
ATOM     42  O1  SGN d 501      28.897  26.461 146.195  0.00  0.00    -0.348 OA
ATOM     43  C1  SGN d 501      28.230  27.096 147.285  0.00  0.00     0.150 C 
ATOM     44  C5  SGN d 501      29.935  28.739 147.646  0.00  0.00     0.090 C 
ATOM     45  C3  SGN d 501      27.984  29.393 146.257  0.00  0.00     0.083 C 
ATOM     46  O4S SGN d 501      30.630  28.411 152.471  0.00  0.00    -0.572 OA
ATOM     47  O3  SGN d 501      27.059  30.421 145.962  0.00  0.00    -0.391 OA
ATOM     48  S2  SGN d 501      31.037  29.319 151.374  0.00  0.00     0.251 S 
ATOM     49  C2  SGN d 501      27.252  28.164 146.791  0.00  0.00     0.081 C 
ATOM     50  O2S SGN d 501      24.243  28.438 144.413  0.00  0.00    -0.296 OA
ATOM     51  O4  SGN d 501      29.744  30.974 146.750  0.00  0.00    -0.390 OA
ATOM     52  O5  SGN d 501      29.170  27.665 148.202  0.00  0.00    -0.349 OA
ATOM     53  O1S SGN d 501      23.886  26.815 146.175  0.00  0.00    -0.296 OA
ATOM     54  H   SGN d 501      28.480  30.214 148.164  0.00  0.00     0.091 H 
ATOM     55  H   SGN d 501      30.912  30.233 148.810  0.00  0.00     0.080 H 
ATOM     56  H   SGN d 501      31.983  29.009 148.158  0.00  0.00     0.080 H 
ATOM     57  H   SGN d 501      24.664  28.835 147.618  0.00  0.00     0.231 HD
ATOM     58  H   SGN d 501      26.755  27.931 144.866  0.00  0.00     0.140 HD
ATOM     59  H   SGN d 501      27.669  26.345 147.799  0.00  0.00     0.131 H 
ATOM     60  H   SGN d 501      30.426  28.403 146.757  0.00  0.00     0.090 H 
ATOM     61  H   SGN d 501      28.501  29.126 145.358  0.00  0.00     0.089 H 
ATOM     62  H   SGN d 501      26.584  30.670 146.771  0.00  0.00     0.210 HD
ATOM     63  H   SGN d 501      26.660  28.471 147.628  0.00  0.00     0.076 H 
ATOM     64  H   SGN d 501      24.415  27.720 143.783  0.00  0.00     0.231 HD
ATOM     65  H   SGN d 501      30.214  30.682 145.954  0.00  0.00     0.210 HD
ATOM     66  H   SGN d 501      24.056  26.094 145.549  0.00  0.00     0.231 HD
ATOM     67  O2  IDS d 502      28.141  22.065 144.415  0.00  0.00    -0.244 OA
ATOM     68  C3  IDS d 502      28.355  24.280 145.314  0.00  0.00     0.094 C 
ATOM     69  O2S IDS d 502      28.586  20.062 146.105  0.00  0.00    -0.572 OA
ATOM     70  O1S IDS d 502      26.352  20.263 145.188  0.00  0.00    -0.572 OA
ATOM     71  O5  IDS d 502      31.134  23.861 145.535  0.00  0.00    -0.340 OA
ATOM     72  S   IDS d 502      27.798  20.399 144.896  0.00  0.00     0.252 S 
ATOM     73  C1  IDS d 502      30.333  22.931 144.796  0.00  0.00     0.161 C 
ATOM     74  O61 IDS d 502      32.080  26.255 147.521  0.00  0.00    -0.646 OA
ATOM     75  O62 IDS d 502      31.438  26.567 145.447  0.00  0.00    -0.646 OA
ATOM     76  C5  IDS d 502      30.557  24.666 146.582  0.00  0.00     0.152 C 
ATOM     77  O3  IDS d 502      26.973  24.242 145.604  0.00  0.00    -0.390 OA
ATOM     78  C6  IDS d 502      31.392  25.937 146.530  0.00  0.00     0.206 C 
ATOM     79  O3S IDS d 502      28.173  19.481 143.800  0.00  0.00    -0.572 OA
ATOM     80  C4  IDS d 502      29.079  25.059 146.393  0.00  0.00     0.103 C 
ATOM     81  C2  IDS d 502      28.908  22.877 145.298  0.00  0.00     0.134 C 
ATOM     82  H   IDS d 502      28.495  24.745 144.360  0.00  0.00     0.091 H 
ATOM     83  H   IDS d 502      30.327  23.288 143.788  0.00  0.00     0.133 H 
ATOM     84  H   IDS d 502      30.568  24.114 147.499  0.00  0.00     0.104 H 
ATOM     85  H   IDS d 502      26.834  23.821 146.467  0.00  0.00     0.210 HD
ATOM     86  H   IDS d 502      28.626  24.787 147.324  0.00  0.00     0.092 H 
ATOM     87  H   IDS d 502      28.869  22.463 146.284  0.00  0.00     0.097 H 
ENDROOT
TORSDOF 28
ENDMDL
MODEL 38
REMARK VINA RESULT:      -5.6      3.696      9.906
REMARK  0 active torsions:
REMARK  status: ('A' for Active; 'I' for Inactive)
REMARK       I    between atoms: O3_1  and  C3_18 
REMARK       I    between atoms: O6_2  and  C6_6 
REMARK       I    between atoms: O6_2  and  S2_52 
REMARK       I    between atoms: C4_3  and  O4_50 
REMARK       I    between atoms: C6_4  and  C5_31 
REMARK       I    between atoms: C6_4  and  O6_12 
REMARK       I    between atoms: C6_6  and  C5_15 
REMARK       I    between atoms: O2_7  and  C2_53 
REMARK       I    between atoms: O2_7  and  S_26 
REMARK       I    between atoms: C3_8  and  O3_38 
REMARK       I    between atoms: S1_9  and  N_19 
REMARK       I    between atoms: S1_9  and  O1S_55 
REMARK       I    between atoms: S1_9  and  O2S_49 
REMARK       I    between atoms: S1_9  and  O3S_17 
REMARK       I    between atoms: O6_12  and  S2_45 
REMARK       I    between atoms: O1S_14  and  S1_48 
REMARK       I    between atoms: O3S_16  and  S1_48 
REMARK       I    between atoms: N_19  and  C2_46 
REMARK       I    between atoms: O1_22  and  C1_24 
REMARK       I    between atoms: O1_22  and  C4_41 
REMARK       I    between atoms: N_23  and  C2_47 
REMARK       I    between atoms: N_23  and  S1_48 
REMARK       I    between atoms: O2S_25  and  S1_48 
REMARK       I    between atoms: C1_27  and  O4_44 
REMARK       I    between atoms: C3_34  and  O3_43 
REMARK       I    between atoms: C1_35  and  O1_36 
REMARK       I    between atoms: C5_37  and  C6_39 
REMARK       I    between atoms: O4_44  and  C4_54 
ROOT
ATOM      1  O3  SGN d 503      33.030  27.130 147.914  0.00  0.00    -0.391 OA
ATOM      2  O6  SGN d 503      28.797  25.382 148.817  0.00  0.00    -0.254 OA
ATOM      3  C6  SGN d 503      28.251  26.544 148.205  0.00  0.00     0.067 C 
ATOM      4  O1S SGN d 503      33.712  28.813 152.240  0.00  0.00    -0.296 OA
ATOM      5  C5  SGN d 503      29.341  27.600 148.243  0.00  0.00     0.091 C 
ATOM      6  O3S SGN d 503      34.653  27.457 150.475  0.00  0.00    -0.296 OA
ATOM      7  C3  SGN d 503      31.829  27.836 148.139  0.00  0.00     0.083 C 
ATOM      8  O4S SGN d 503      27.737  23.106 148.001  0.00  0.00    -0.572 OA
ATOM      9  N   SGN d 503      32.861  29.283 149.782  0.00  0.00    -0.210 NA
ATOM     10  O2S SGN d 503      35.306  29.780 150.694  0.00  0.00    -0.296 OA
ATOM     11  O5  SGN d 503      29.396  28.097 149.581  0.00  0.00    -0.350 OA
ATOM     12  O6S SGN d 503      28.299  23.300 150.353  0.00  0.00    -0.572 OA
ATOM     13  O5S SGN d 503      26.398  24.488 149.442  0.00  0.00    -0.572 OA
ATOM     14  C1  SGN d 503      30.447  29.025 149.841  0.00  0.00     0.147 C 
ATOM     15  O1  SGN d 503      30.306  30.180 149.020  0.00  0.00    -0.369 OA
ATOM     16  O4  SGN d 503      30.642  26.555 146.516  0.00  0.00    -0.348 OA
ATOM     17  C2  SGN d 503      31.780  28.346 149.567  0.00  0.00     0.081 C 
ATOM     18  S1  SGN d 503      34.192  28.815 150.842  0.00  0.00     0.156 S 
ATOM     19  S2  SGN d 503      27.763  24.006 149.172  0.00  0.00     0.251 S 
ATOM     20  C4  SGN d 503      30.653  26.913 147.896  0.00  0.00     0.095 C 
ATOM     21  H   SGN d 503      33.785  27.719 148.069  0.00  0.00     0.210 HD
ATOM     22  H   SGN d 503      27.392  26.880 148.747  0.00  0.00     0.080 H 
ATOM     23  H   SGN d 503      27.940  26.344 147.201  0.00  0.00     0.080 H 
ATOM     24  H   SGN d 503      32.982  28.179 152.331  0.00  0.00     0.231 HD
ATOM     25  H   SGN d 503      29.156  28.400 147.557  0.00  0.00     0.090 H 
ATOM     26  H   SGN d 503      33.920  26.829 150.574  0.00  0.00     0.231 HD
ATOM     27  H   SGN d 503      31.784  28.670 147.470  0.00  0.00     0.089 H 
ATOM     28  H   SGN d 503      32.451  30.131 150.173  0.00  0.00     0.140 HD
ATOM     29  H   SGN d 503      36.037  29.523 151.277  0.00  0.00     0.231 HD
ATOM     30  H   SGN d 503      30.402  29.336 150.863  0.00  0.00     0.131 H 
ATOM     31  H   SGN d 503      30.344  29.919 148.086  0.00  0.00     0.212 HD
ATOM     32  H   SGN d 503      31.886  27.519 150.237  0.00  0.00     0.076 H 
ATOM     33  H   SGN d 503      30.754  26.046 148.516  0.00  0.00     0.091 H 
ATOM     34  C4  SGN d 501      32.957  18.415 144.012  0.00  0.00     0.089 C 
ATOM     35  C6  SGN d 501      35.098  19.724 144.263  0.00  0.00     0.067 C 
ATOM     36  O6S SGN d 501      38.174  19.834 142.915  0.00  0.00    -0.572 OA
ATOM     37  S1  SGN d 501      28.356  18.997 142.250  0.00  0.00     0.156 S 
ATOM     38  O6  SGN d 501      35.626  20.547 143.225  0.00  0.00    -0.254 OA
ATOM     39  O5S SGN d 501      36.517  18.565 141.692  0.00  0.00    -0.572 OA
ATOM     40  O3S SGN d 501      29.057  17.985 141.428  0.00  0.00    -0.296 OA
ATOM     41  N   SGN d 501      29.506  19.793 143.337  0.00  0.00    -0.210 NA
ATOM     42  O1  SGN d 501      31.311  21.564 144.540  0.00  0.00    -0.348 OA
ATOM     43  C1  SGN d 501      31.682  20.915 143.325  0.00  0.00     0.150 C 
ATOM     44  C5  SGN d 501      33.574  19.785 144.261  0.00  0.00     0.090 C 
ATOM     45  C3  SGN d 501      31.441  18.525 144.114  0.00  0.00     0.083 C 
ATOM     46  O4S SGN d 501      37.066  20.818 141.003  0.00  0.00    -0.572 OA
ATOM     47  O3  SGN d 501      30.845  17.278 143.817  0.00  0.00    -0.391 OA
ATOM     48  S2  SGN d 501      36.897  19.916 142.166  0.00  0.00     0.251 S 
ATOM     49  C2  SGN d 501      30.932  19.593 143.150  0.00  0.00     0.081 C 
ATOM     50  O2S SGN d 501      27.301  18.333 143.050  0.00  0.00    -0.296 OA
ATOM     51  O4  SGN d 501      33.441  17.483 144.981  0.00  0.00    -0.390 OA
ATOM     52  O5  SGN d 501      33.096  20.699 143.269  0.00  0.00    -0.349 OA
ATOM     53  O1S SGN d 501      27.745  20.011 141.361  0.00  0.00    -0.296 OA
ATOM     54  H   SGN d 501      33.226  18.071 143.036  0.00  0.00     0.091 H 
ATOM     55  H   SGN d 501      35.411  18.713 144.107  0.00  0.00     0.080 H 
ATOM     56  H   SGN d 501      35.460  20.077 145.206  0.00  0.00     0.080 H 
ATOM     57  H   SGN d 501      29.749  18.417 140.903  0.00  0.00     0.231 HD
ATOM     58  H   SGN d 501      29.286  19.479 144.282  0.00  0.00     0.140 HD
ATOM     59  H   SGN d 501      31.408  21.563 142.519  0.00  0.00     0.131 H 
ATOM     60  H   SGN d 501      33.280  20.125 145.232  0.00  0.00     0.090 H 
ATOM     61  H   SGN d 501      31.176  18.805 145.113  0.00  0.00     0.089 H 
ATOM     62  H   SGN d 501      31.079  17.015 142.913  0.00  0.00     0.210 HD
ATOM     63  H   SGN d 501      31.113  19.250 142.152  0.00  0.00     0.076 H 
ATOM     64  H   SGN d 501      26.840  18.994 143.590  0.00  0.00     0.231 HD
ATOM     65  H   SGN d 501      33.202  17.787 145.870  0.00  0.00     0.210 HD
ATOM     66  H   SGN d 501      27.284  20.676 141.897  0.00  0.00     0.231 HD
ATOM     67  O2  IDS d 502      28.497  25.416 145.102  0.00  0.00    -0.244 OA
ATOM     68  C3  IDS d 502      29.794  23.435 144.710  0.00  0.00     0.094 C 
ATOM     69  O2S IDS d 502      29.380  27.645 143.956  0.00  0.00    -0.572 OA
ATOM     70  O1S IDS d 502      27.224  26.809 143.235  0.00  0.00    -0.572 OA
ATOM     71  O5  IDS d 502      31.849  24.535 146.297  0.00  0.00    -0.340 OA
ATOM     72  S   IDS d 502      28.125  26.992 144.396  0.00  0.00     0.252 S 
ATOM     73  C1  IDS d 502      30.556  25.154 146.280  0.00  0.00     0.161 C 
ATOM     74  O61 IDS d 502      34.416  22.683 145.559  0.00  0.00    -0.646 OA
ATOM     75  O62 IDS d 502      32.710  21.990 146.751  0.00  0.00    -0.646 OA
ATOM     76  C5  IDS d 502      32.302  23.739 145.185  0.00  0.00     0.152 C 
ATOM     77  O3  IDS d 502      28.964  23.171 143.598  0.00  0.00    -0.390 OA
ATOM     78  C6  IDS d 502      33.204  22.709 145.851  0.00  0.00     0.206 C 
ATOM     79  O3S IDS d 502      27.464  27.843 145.409  0.00  0.00    -0.572 OA
ATOM     80  C4  IDS d 502      31.208  22.982 144.407  0.00  0.00     0.103 C 
ATOM     81  C2  IDS d 502      29.826  24.919 144.978  0.00  0.00     0.134 C 
ATOM     82  H   IDS d 502      29.410  22.912 145.561  0.00  0.00     0.091 H 
ATOM     83  H   IDS d 502      30.002  24.693 147.071  0.00  0.00     0.133 H 
ATOM     84  H   IDS d 502      32.751  24.378 144.453  0.00  0.00     0.104 H 
ATOM     85  H   IDS d 502      29.304  23.641 142.821  0.00  0.00     0.210 HD
ATOM     86  H   IDS d 502      31.401  23.240 143.387  0.00  0.00     0.092 H 
ATOM     87  H   IDS d 502      30.318  25.420 144.171  0.00  0.00     0.097 H 
ENDROOT
TORSDOF 28
ENDMDL
MODEL 39
REMARK VINA RESULT:      -5.6      3.493     10.544
REMARK  0 active torsions:
REMARK  status: ('A' for Active; 'I' for Inactive)
REMARK       I    between atoms: O3_1  and  C3_18 
REMARK       I    between atoms: O6_2  and  C6_6 
REMARK       I    between atoms: O6_2  and  S2_52 
REMARK       I    between atoms: C4_3  and  O4_50 
REMARK       I    between atoms: C6_4  and  C5_31 
REMARK       I    between atoms: C6_4  and  O6_12 
REMARK       I    between atoms: C6_6  and  C5_15 
REMARK       I    between atoms: O2_7  and  C2_53 
REMARK       I    between atoms: O2_7  and  S_26 
REMARK       I    between atoms: C3_8  and  O3_38 
REMARK       I    between atoms: S1_9  and  N_19 
REMARK       I    between atoms: S1_9  and  O1S_55 
REMARK       I    between atoms: S1_9  and  O2S_49 
REMARK       I    between atoms: S1_9  and  O3S_17 
REMARK       I    between atoms: O6_12  and  S2_45 
REMARK       I    between atoms: O1S_14  and  S1_48 
REMARK       I    between atoms: O3S_16  and  S1_48 
REMARK       I    between atoms: N_19  and  C2_46 
REMARK       I    between atoms: O1_22  and  C1_24 
REMARK       I    between atoms: O1_22  and  C4_41 
REMARK       I    between atoms: N_23  and  C2_47 
REMARK       I    between atoms: N_23  and  S1_48 
REMARK       I    between atoms: O2S_25  and  S1_48 
REMARK       I    between atoms: C1_27  and  O4_44 
REMARK       I    between atoms: C3_34  and  O3_43 
REMARK       I    between atoms: C1_35  and  O1_36 
REMARK       I    between atoms: C5_37  and  C6_39 
REMARK       I    between atoms: O4_44  and  C4_54 
ROOT
ATOM      1  O3  SGN d 503      28.177  26.644 146.997  0.00  0.00    -0.391 OA
ATOM      2  O6  SGN d 503      32.806  27.136 146.653  0.00  0.00    -0.254 OA
ATOM      3  C6  SGN d 503      32.834  27.297 148.067  0.00  0.00     0.067 C 
ATOM      4  O1S SGN d 503      27.200  31.062 145.760  0.00  0.00    -0.296 OA
ATOM      5  C5  SGN d 503      31.434  27.710 148.479  0.00  0.00     0.091 C 
ATOM      6  O3S SGN d 503      26.722  28.735 145.320  0.00  0.00    -0.296 OA
ATOM      7  C3  SGN d 503      29.037  27.375 147.843  0.00  0.00     0.083 C 
ATOM      8  O4S SGN d 503      34.586  25.433 145.703  0.00  0.00    -0.572 OA
ATOM      9  N   SGN d 503      27.648  29.354 147.725  0.00  0.00    -0.210 NA
ATOM     10  O2S SGN d 503      25.261  30.017 146.768  0.00  0.00    -0.296 OA
ATOM     11  O5  SGN d 503      31.284  29.088 148.132  0.00  0.00    -0.350 OA
ATOM     12  O6S SGN d 503      34.148  27.437 144.406  0.00  0.00    -0.572 OA
ATOM     13  O5S SGN d 503      35.401  27.560 146.473  0.00  0.00    -0.572 OA
ATOM     14  C1  SGN d 503      29.982  29.629 148.341  0.00  0.00     0.147 C 
ATOM     15  O1  SGN d 503      29.624  29.550 149.718  0.00  0.00    -0.369 OA
ATOM     16  O4  SGN d 503      30.508  25.521 148.133  0.00  0.00    -0.348 OA
ATOM     17  C2  SGN d 503      28.985  28.851 147.496  0.00  0.00     0.081 C 
ATOM     18  S1  SGN d 503      26.663  29.811 146.335  0.00  0.00     0.156 S 
ATOM     19  S2  SGN d 503      34.301  26.882 145.766  0.00  0.00     0.251 S 
ATOM     20  C4  SGN d 503      30.454  26.869 147.673  0.00  0.00     0.095 C 
ATOM     21  H   SGN d 503      27.268  26.965 147.104  0.00  0.00     0.210 HD
ATOM     22  H   SGN d 503      33.538  28.055 148.338  0.00  0.00     0.080 H 
ATOM     23  H   SGN d 503      33.131  26.392 148.554  0.00  0.00     0.080 H 
ATOM     24  H   SGN d 503      28.118  30.922 145.478  0.00  0.00     0.231 HD
ATOM     25  H   SGN d 503      31.259  27.569 149.525  0.00  0.00     0.090 H 
ATOM     26  H   SGN d 503      27.641  28.604 145.040  0.00  0.00     0.231 HD
ATOM     27  H   SGN d 503      28.722  27.245 148.858  0.00  0.00     0.089 H 
ATOM     28  H   SGN d 503      27.735  30.180 148.316  0.00  0.00     0.140 HD
ATOM     29  H   SGN d 503      24.720  30.269 146.003  0.00  0.00     0.231 HD
ATOM     30  H   SGN d 503      29.973  30.659 148.054  0.00  0.00     0.131 H 
ATOM     31  H   SGN d 503      29.625  28.621 149.999  0.00  0.00     0.212 HD
ATOM     32  H   SGN d 503      29.242  28.976 146.465  0.00  0.00     0.076 H 
ATOM     33  H   SGN d 503      30.727  26.933 146.640  0.00  0.00     0.091 H 
ATOM     34  C4  SGN d 501      31.255  18.878 142.371  0.00  0.00     0.089 C 
ATOM     35  C6  SGN d 501      28.801  19.446 142.497  0.00  0.00     0.067 C 
ATOM     36  O6S SGN d 501      25.827  17.907 142.220  0.00  0.00    -0.572 OA
ATOM     37  S1  SGN d 501      35.175  18.371 145.369  0.00  0.00     0.156 S 
ATOM     38  O6  SGN d 501      27.935  18.913 143.498  0.00  0.00    -0.254 OA
ATOM     39  O5S SGN d 501      27.754  16.467 142.471  0.00  0.00    -0.572 OA
ATOM     40  O3S SGN d 501      34.853  17.052 144.778  0.00  0.00    -0.296 OA
ATOM     41  N   SGN d 501      33.885  19.528 145.002  0.00  0.00    -0.210 NA
ATOM     42  O1  SGN d 501      31.632  21.187 145.097  0.00  0.00    -0.348 OA
ATOM     43  C1  SGN d 501      31.451  19.772 145.111  0.00  0.00     0.150 C 
ATOM     44  C5  SGN d 501      30.187  19.701 143.079  0.00  0.00     0.090 C 
ATOM     45  C3  SGN d 501      32.623  19.246 142.933  0.00  0.00     0.083 C 
ATOM     46  O4S SGN d 501      26.356  16.962 144.382  0.00  0.00    -0.572 OA
ATOM     47  O3  SGN d 501      33.622  18.442 142.338  0.00  0.00    -0.391 OA
ATOM     48  S2  SGN d 501      26.927  17.505 143.128  0.00  0.00     0.251 S 
ATOM     49  C2  SGN d 501      32.629  19.056 144.448  0.00  0.00     0.081 C 
ATOM     50  O2S SGN d 501      36.453  18.862 144.802  0.00  0.00    -0.296 OA
ATOM     51  O4  SGN d 501      31.221  19.145 140.968  0.00  0.00    -0.390 OA
ATOM     52  O5  SGN d 501      30.221  19.404 144.479  0.00  0.00    -0.349 OA
ATOM     53  O1S SGN d 501      35.302  18.232 146.837  0.00  0.00    -0.296 OA
ATOM     54  H   SGN d 501      31.071  17.836 142.529  0.00  0.00     0.091 H 
ATOM     55  H   SGN d 501      28.880  18.747 141.690  0.00  0.00     0.080 H 
ATOM     56  H   SGN d 501      28.396  20.370 142.142  0.00  0.00     0.080 H 
ATOM     57  H   SGN d 501      34.016  16.728 145.148  0.00  0.00     0.231 HD
ATOM     58  H   SGN d 501      34.269  20.198 144.336  0.00  0.00     0.140 HD
ATOM     59  H   SGN d 501      31.409  19.464 146.135  0.00  0.00     0.131 H 
ATOM     60  H   SGN d 501      30.395  20.740 142.930  0.00  0.00     0.090 H 
ATOM     61  H   SGN d 501      32.828  20.273 142.712  0.00  0.00     0.089 H 
ATOM     62  H   SGN d 501      33.445  17.508 142.533  0.00  0.00     0.210 HD
ATOM     63  H   SGN d 501      32.525  18.010 144.650  0.00  0.00     0.076 H 
ATOM     64  H   SGN d 501      36.667  19.726 145.187  0.00  0.00     0.231 HD
ATOM     65  H   SGN d 501      31.387  20.089 140.815  0.00  0.00     0.210 HD
ATOM     66  H   SGN d 501      35.514  19.095 147.227  0.00  0.00     0.231 HD
ATOM     67  O2  IDS d 502      32.826  24.059 148.757  0.00  0.00    -0.244 OA
ATOM     68  C3  IDS d 502      32.343  22.517 146.982  0.00  0.00     0.094 C 
ATOM     69  O2S IDS d 502      31.098  24.106 150.776  0.00  0.00    -0.572 OA
ATOM     70  O1S IDS d 502      33.358  23.386 151.269  0.00  0.00    -0.572 OA
ATOM     71  O5  IDS d 502      30.135  24.119 146.268  0.00  0.00    -0.340 OA
ATOM     72  S   IDS d 502      32.532  24.328 150.479  0.00  0.00     0.252 S 
ATOM     73  C1  IDS d 502      31.098  24.614 147.207  0.00  0.00     0.161 C 
ATOM     74  O61 IDS d 502      28.407  22.162 144.330  0.00  0.00    -0.646 OA
ATOM     75  O62 IDS d 502      30.324  23.066 143.761  0.00  0.00    -0.646 OA
ATOM     76  C5  IDS d 502      29.941  22.703 146.085  0.00  0.00     0.152 C 
ATOM     77  O3  IDS d 502      33.137  21.566 147.660  0.00  0.00    -0.390 OA
ATOM     78  C6  IDS d 502      29.538  22.603 144.621  0.00  0.00     0.206 C 
ATOM     79  O3S IDS d 502      32.891  25.719 150.829  0.00  0.00    -0.572 OA
ATOM     80  C4  IDS d 502      31.186  21.818 146.298  0.00  0.00     0.103 C 
ATOM     81  C2  IDS d 502      31.776  23.502 147.973  0.00  0.00     0.134 C 
ATOM     82  H   IDS d 502      32.951  23.024 146.262  0.00  0.00     0.091 H 
ATOM     83  H   IDS d 502      31.835  25.128 146.627  0.00  0.00     0.133 H 
ATOM     84  H   IDS d 502      29.238  22.346 146.810  0.00  0.00     0.104 H 
ATOM     85  H   IDS d 502      32.595  21.100 148.316  0.00  0.00     0.210 HD
ATOM     86  H   IDS d 502      30.843  21.061 146.971  0.00  0.00     0.092 H 
ATOM     87  H   IDS d 502      31.079  23.005 148.616  0.00  0.00     0.097 H 
ENDROOT
TORSDOF 28
ENDMDL
MODEL 40
REMARK VINA RESULT:      -5.6      4.307      8.712
REMARK  0 active torsions:
REMARK  status: ('A' for Active; 'I' for Inactive)
REMARK       I    between atoms: O3_1  and  C3_18 
REMARK       I    between atoms: O6_2  and  C6_6 
REMARK       I    between atoms: O6_2  and  S2_52 
REMARK       I    between atoms: C4_3  and  O4_50 
REMARK       I    between atoms: C6_4  and  C5_31 
REMARK       I    between atoms: C6_4  and  O6_12 
REMARK       I    between atoms: C6_6  and  C5_15 
REMARK       I    between atoms: O2_7  and  C2_53 
REMARK       I    between atoms: O2_7  and  S_26 
REMARK       I    between atoms: C3_8  and  O3_38 
REMARK       I    between atoms: S1_9  and  N_19 
REMARK       I    between atoms: S1_9  and  O1S_55 
REMARK       I    between atoms: S1_9  and  O2S_49 
REMARK       I    between atoms: S1_9  and  O3S_17 
REMARK       I    between atoms: O6_12  and  S2_45 
REMARK       I    between atoms: O1S_14  and  S1_48 
REMARK       I    between atoms: O3S_16  and  S1_48 
REMARK       I    between atoms: N_19  and  C2_46 
REMARK       I    between atoms: O1_22  and  C1_24 
REMARK       I    between atoms: O1_22  and  C4_41 
REMARK       I    between atoms: N_23  and  C2_47 
REMARK       I    between atoms: N_23  and  S1_48 
REMARK       I    between atoms: O2S_25  and  S1_48 
REMARK       I    between atoms: C1_27  and  O4_44 
REMARK       I    between atoms: C3_34  and  O3_43 
REMARK       I    between atoms: C1_35  and  O1_36 
REMARK       I    between atoms: C5_37  and  C6_39 
REMARK       I    between atoms: O4_44  and  C4_54 
ROOT
ATOM      1  O3  SGN d 503      31.911  23.956 150.047  0.00  0.00    -0.391 OA
ATOM      2  O6  SGN d 503      30.838  28.119 148.229  0.00  0.00    -0.254 OA
ATOM      3  C6  SGN d 503      32.233  28.401 148.202  0.00  0.00     0.067 C 
ATOM      4  O1S SGN d 503      30.982  25.190 154.477  0.00  0.00    -0.296 OA
ATOM      5  C5  SGN d 503      32.878  27.462 149.205  0.00  0.00     0.091 C 
ATOM      6  O3S SGN d 503      30.555  23.555 152.749  0.00  0.00    -0.296 OA
ATOM      7  C3  SGN d 503      32.629  25.165 150.164  0.00  0.00     0.083 C 
ATOM      8  O4S SGN d 503      29.561  28.666 145.983  0.00  0.00    -0.572 OA
ATOM      9  N   SGN d 503      32.797  24.958 152.569  0.00  0.00    -0.210 NA
ATOM     10  O2S SGN d 503      32.258  23.131 154.421  0.00  0.00    -0.296 OA
ATOM     11  O5  SGN d 503      32.602  27.984 150.506  0.00  0.00    -0.350 OA
ATOM     12  O6S SGN d 503      28.414  29.138 148.069  0.00  0.00    -0.572 OA
ATOM     13  O5S SGN d 503      30.254  30.529 147.336  0.00  0.00    -0.572 OA
ATOM     14  C1  SGN d 503      33.035  27.169 151.592  0.00  0.00     0.147 C 
ATOM     15  O1  SGN d 503      34.448  26.995 151.552  0.00  0.00    -0.369 OA
ATOM     16  O4  SGN d 503      32.620  25.526 147.807  0.00  0.00    -0.348 OA
ATOM     17  C2  SGN d 503      32.339  25.820 151.502  0.00  0.00     0.081 C 
ATOM     18  S1  SGN d 503      31.598  24.173 153.599  0.00  0.00     0.156 S 
ATOM     19  S2  SGN d 503      29.714  29.160 147.368  0.00  0.00     0.251 S 
ATOM     20  C4  SGN d 503      32.216  26.101 149.047  0.00  0.00     0.095 C 
ATOM     21  H   SGN d 503      32.173  23.354 150.760  0.00  0.00     0.210 HD
ATOM     22  H   SGN d 503      32.410  29.418 148.481  0.00  0.00     0.080 H 
ATOM     23  H   SGN d 503      32.638  28.260 147.222  0.00  0.00     0.080 H 
ATOM     24  H   SGN d 503      30.551  25.869 153.933  0.00  0.00     0.231 HD
ATOM     25  H   SGN d 503      33.934  27.372 149.057  0.00  0.00     0.090 H 
ATOM     26  H   SGN d 503      30.127  24.240 152.213  0.00  0.00     0.231 HD
ATOM     27  H   SGN d 503      33.676  24.957 150.098  0.00  0.00     0.089 H 
ATOM     28  H   SGN d 503      33.390  25.522 153.177  0.00  0.00     0.140 HD
ATOM     29  H   SGN d 503      31.599  22.699 154.986  0.00  0.00     0.231 HD
ATOM     30  H   SGN d 503      32.785  27.644 152.516  0.00  0.00     0.131 H 
ATOM     31  H   SGN d 503      34.698  26.564 150.719  0.00  0.00     0.212 HD
ATOM     32  H   SGN d 503      31.284  25.974 151.594  0.00  0.00     0.076 H 
ATOM     33  H   SGN d 503      31.155  26.238 149.078  0.00  0.00     0.091 H 
ATOM     34  C4  SGN d 501      26.615  22.104 142.319  0.00  0.00     0.089 C 
ATOM     35  C6  SGN d 501      27.153  20.307 144.005  0.00  0.00     0.067 C 
ATOM     36  O6S SGN d 501      27.314  16.954 144.171  0.00  0.00    -0.572 OA
ATOM     37  S1  SGN d 501      28.923  25.575 139.630  0.00  0.00     0.156 S 
ATOM     38  O6  SGN d 501      28.264  19.423 143.864  0.00  0.00    -0.254 OA
ATOM     39  O5S SGN d 501      27.206  17.909 141.951  0.00  0.00    -0.572 OA
ATOM     40  O3S SGN d 501      28.353  24.562 138.712  0.00  0.00    -0.296 OA
ATOM     41  N   SGN d 501      28.805  25.008 141.303  0.00  0.00    -0.210 NA
ATOM     42  O1  SGN d 501      29.313  23.928 143.836  0.00  0.00    -0.348 OA
ATOM     43  C1  SGN d 501      29.313  23.063 142.701  0.00  0.00     0.150 C 
ATOM     44  C5  SGN d 501      27.511  21.693 143.481  0.00  0.00     0.090 C 
ATOM     45  C3  SGN d 501      26.960  23.529 141.903  0.00  0.00     0.083 C 
ATOM     46  O4S SGN d 501      29.333  17.201 142.861  0.00  0.00    -0.572 OA
ATOM     47  O3  SGN d 501      26.186  23.904 140.781  0.00  0.00    -0.391 OA
ATOM     48  S2  SGN d 501      28.019  17.807 143.184  0.00  0.00     0.251 S 
ATOM     49  C2  SGN d 501      28.447  23.627 141.573  0.00  0.00     0.081 C 
ATOM     50  O2S SGN d 501      28.172  26.844 139.485  0.00  0.00    -0.296 OA
ATOM     51  O4  SGN d 501      25.244  22.034 142.718  0.00  0.00    -0.390 OA
ATOM     52  O5  SGN d 501      28.877  21.747 143.057  0.00  0.00    -0.349 OA
ATOM     53  O1S SGN d 501      30.347  25.796 139.289  0.00  0.00    -0.296 OA
ATOM     54  H   SGN d 501      26.769  21.442 141.493  0.00  0.00     0.091 H 
ATOM     55  H   SGN d 501      26.323  19.922 143.449  0.00  0.00     0.080 H 
ATOM     56  H   SGN d 501      26.897  20.381 145.041  0.00  0.00     0.080 H 
ATOM     57  H   SGN d 501      28.843  23.730 138.805  0.00  0.00     0.231 HD
ATOM     58  H   SGN d 501      28.106  25.590 141.764  0.00  0.00     0.140 HD
ATOM     59  H   SGN d 501      30.321  23.000 142.346  0.00  0.00     0.131 H 
ATOM     60  H   SGN d 501      27.362  22.375 144.291  0.00  0.00     0.090 H 
ATOM     61  H   SGN d 501      26.739  24.193 142.713  0.00  0.00     0.089 H 
ATOM     62  H   SGN d 501      26.379  23.307 140.041  0.00  0.00     0.210 HD
ATOM     63  H   SGN d 501      28.631  23.037 140.700  0.00  0.00     0.076 H 
ATOM     64  H   SGN d 501      28.543  27.510 140.085  0.00  0.00     0.231 HD
ATOM     65  H   SGN d 501      25.095  22.631 143.467  0.00  0.00     0.210 HD
ATOM     66  H   SGN d 501      30.723  26.460 139.889  0.00  0.00     0.231 HD
ATOM     67  O2  IDS d 502      32.817  26.850 145.335  0.00  0.00    -0.244 OA
ATOM     68  C3  IDS d 502      31.098  25.441 144.432  0.00  0.00     0.094 C 
ATOM     69  O2S IDS d 502      35.089  25.648 146.011  0.00  0.00    -0.572 OA
ATOM     70  O1S IDS d 502      35.189  27.280 144.223  0.00  0.00    -0.572 OA
ATOM     71  O5  IDS d 502      30.798  24.270 146.980  0.00  0.00    -0.340 OA
ATOM     72  S   IDS d 502      34.571  26.950 145.528  0.00  0.00     0.252 S 
ATOM     73  C1  IDS d 502      31.585  25.458 146.833  0.00  0.00     0.161 C 
ATOM     74  O61 IDS d 502      29.107  21.566 146.348  0.00  0.00    -0.646 OA
ATOM     75  O62 IDS d 502      28.264  23.588 146.246  0.00  0.00    -0.646 OA
ATOM     76  C5  IDS d 502      30.607  23.368 145.871  0.00  0.00     0.152 C 
ATOM     77  O3  IDS d 502      31.609  25.725 143.147  0.00  0.00    -0.390 OA
ATOM     78  C6  IDS d 502      29.225  22.790 146.141  0.00  0.00     0.206 C 
ATOM     79  O3S IDS d 502      34.901  28.000 146.515  0.00  0.00    -0.572 OA
ATOM     80  C4  IDS d 502      30.589  24.014 144.472  0.00  0.00     0.103 C 
ATOM     81  C2  IDS d 502      32.197  25.574 145.456  0.00  0.00     0.134 C 
ATOM     82  H   IDS d 502      30.304  26.126 144.648  0.00  0.00     0.091 H 
ATOM     83  H   IDS d 502      30.908  26.275 146.976  0.00  0.00     0.133 H 
ATOM     84  H   IDS d 502      31.424  22.678 145.832  0.00  0.00     0.104 H 
ATOM     85  H   IDS d 502      32.330  25.109 142.941  0.00  0.00     0.210 HD
ATOM     86  H   IDS d 502      31.285  23.424 143.914  0.00  0.00     0.092 H 
ATOM     87  H   IDS d 502      32.928  24.809 145.301  0.00  0.00     0.097 H 
ENDROOT
TORSDOF 28
ENDMDL
MODEL 41
REMARK VINA RESULT:      -5.6      3.671      8.063
REMARK  0 active torsions:
REMARK  status: ('A' for Active; 'I' for Inactive)
REMARK       I    between atoms: O3_1  and  C3_18 
REMARK       I    between atoms: O6_2  and  C6_6 
REMARK       I    between atoms: O6_2  and  S2_52 
REMARK       I    between atoms: C4_3  and  O4_50 
REMARK       I    between atoms: C6_4  and  C5_31 
REMARK       I    between atoms: C6_4  and  O6_12 
REMARK       I    between atoms: C6_6  and  C5_15 
REMARK       I    between atoms: O2_7  and  C2_53 
REMARK       I    between atoms: O2_7  and  S_26 
REMARK       I    between atoms: C3_8  and  O3_38 
REMARK       I    between atoms: S1_9  and  N_19 
REMARK       I    between atoms: S1_9  and  O1S_55 
REMARK       I    between atoms: S1_9  and  O2S_49 
REMARK       I    between atoms: S1_9  and  O3S_17 
REMARK       I    between atoms: O6_12  and  S2_45 
REMARK       I    between atoms: O1S_14  and  S1_48 
REMARK       I    between atoms: O3S_16  and  S1_48 
REMARK       I    between atoms: N_19  and  C2_46 
REMARK       I    between atoms: O1_22  and  C1_24 
REMARK       I    between atoms: O1_22  and  C4_41 
REMARK       I    between atoms: N_23  and  C2_47 
REMARK       I    between atoms: N_23  and  S1_48 
REMARK       I    between atoms: O2S_25  and  S1_48 
REMARK       I    between atoms: C1_27  and  O4_44 
REMARK       I    between atoms: C3_34  and  O3_43 
REMARK       I    between atoms: C1_35  and  O1_36 
REMARK       I    between atoms: C5_37  and  C6_39 
REMARK       I    between atoms: O4_44  and  C4_54 
ROOT
ATOM      1  O3  SGN d 503      35.143  22.055 146.561  0.00  0.00    -0.391 OA
ATOM      2  O6  SGN d 503      32.209  24.211 149.482  0.00  0.00    -0.254 OA
ATOM      3  C6  SGN d 503      33.217  25.197 149.673  0.00  0.00     0.067 C 
ATOM      4  O1S SGN d 503      36.590  18.883 149.699  0.00  0.00    -0.296 OA
ATOM      5  C5  SGN d 503      34.529  24.550 149.270  0.00  0.00     0.091 C 
ATOM      6  O3S SGN d 503      35.702  19.200 147.474  0.00  0.00    -0.296 OA
ATOM      7  C3  SGN d 503      35.463  22.871 147.667  0.00  0.00     0.083 C 
ATOM      8  O4S SGN d 503      29.801  25.180 148.995  0.00  0.00    -0.572 OA
ATOM      9  N   SGN d 503      37.002  21.235 148.567  0.00  0.00    -0.210 NA
ATOM     10  O2S SGN d 503      38.089  18.937 147.797  0.00  0.00    -0.296 OA
ATOM     11  O5  SGN d 503      34.912  23.677 150.334  0.00  0.00    -0.350 OA
ATOM     12  O6S SGN d 503      29.953  23.207 150.399  0.00  0.00    -0.572 OA
ATOM     13  O5S SGN d 503      30.629  25.372 151.244  0.00  0.00    -0.572 OA
ATOM     14  C1  SGN d 503      36.072  22.888 150.085  0.00  0.00     0.147 C 
ATOM     15  O1  SGN d 503      37.204  23.723 149.864  0.00  0.00    -0.369 OA
ATOM     16  O4  SGN d 503      34.037  24.631 146.921  0.00  0.00    -0.348 OA
ATOM     17  C2  SGN d 503      35.820  22.014 148.866  0.00  0.00     0.081 C 
ATOM     18  S1  SGN d 503      36.841  19.489 148.374  0.00  0.00     0.156 S 
ATOM     19  S2  SGN d 503      30.574  24.503 150.057  0.00  0.00     0.251 S 
ATOM     20  C4  SGN d 503      34.269  23.740 148.009  0.00  0.00     0.095 C 
ATOM     21  H   SGN d 503      35.905  21.498 146.339  0.00  0.00     0.210 HD
ATOM     22  H   SGN d 503      33.253  25.495 150.700  0.00  0.00     0.080 H 
ATOM     23  H   SGN d 503      33.020  26.072 149.090  0.00  0.00     0.080 H 
ATOM     24  H   SGN d 503      35.772  19.247 150.072  0.00  0.00     0.231 HD
ATOM     25  H   SGN d 503      35.299  25.271 149.087  0.00  0.00     0.090 H 
ATOM     26  H   SGN d 503      34.887  19.563 147.857  0.00  0.00     0.231 HD
ATOM     27  H   SGN d 503      36.302  23.486 147.416  0.00  0.00     0.089 H 
ATOM     28  H   SGN d 503      37.665  21.393 149.324  0.00  0.00     0.140 HD
ATOM     29  H   SGN d 503      38.000  17.977 147.691  0.00  0.00     0.231 HD
ATOM     30  H   SGN d 503      36.274  22.272 150.936  0.00  0.00     0.131 H 
ATOM     31  H   SGN d 503      37.042  24.291 149.094  0.00  0.00     0.212 HD
ATOM     32  H   SGN d 503      35.004  21.356 149.081  0.00  0.00     0.076 H 
ATOM     33  H   SGN d 503      33.418  23.114 148.180  0.00  0.00     0.091 H 
ATOM     34  C4  SGN d 501      27.106  23.430 141.590  0.00  0.00     0.089 C 
ATOM     35  C6  SGN d 501      28.939  21.924 140.734  0.00  0.00     0.067 C 
ATOM     36  O6S SGN d 501      30.018  20.650 137.818  0.00  0.00    -0.572 OA
ATOM     37  S1  SGN d 501      26.516  28.017 143.384  0.00  0.00     0.156 S 
ATOM     38  O6  SGN d 501      29.959  22.376 139.846  0.00  0.00    -0.254 OA
ATOM     39  O5S SGN d 501      28.439  22.477 137.666  0.00  0.00    -0.572 OA
ATOM     40  O3S SGN d 501      25.811  27.919 142.085  0.00  0.00    -0.296 OA
ATOM     41  N   SGN d 501      27.511  26.575 143.641  0.00  0.00    -0.210 NA
ATOM     42  O1  SGN d 501      29.612  24.733 143.809  0.00  0.00    -0.348 OA
ATOM     43  C1  SGN d 501      29.195  25.193 142.525  0.00  0.00     0.150 C 
ATOM     44  C5  SGN d 501      28.569  23.027 141.719  0.00  0.00     0.090 C 
ATOM     45  C3  SGN d 501      26.778  24.466 142.658  0.00  0.00     0.083 C 
ATOM     46  O4S SGN d 501      30.804  22.895 137.376  0.00  0.00    -0.572 OA
ATOM     47  O3  SGN d 501      25.442  24.905 142.511  0.00  0.00    -0.391 OA
ATOM     48  S2  SGN d 501      29.799  22.088 138.106  0.00  0.00     0.251 S 
ATOM     49  C2  SGN d 501      27.736  25.649 142.546  0.00  0.00     0.081 C 
ATOM     50  O2S SGN d 501      25.519  28.130 144.474  0.00  0.00    -0.296 OA
ATOM     51  O4  SGN d 501      26.272  22.282 141.754  0.00  0.00    -0.390 OA
ATOM     52  O5  SGN d 501      29.390  24.184 141.529  0.00  0.00    -0.349 OA
ATOM     53  O1S SGN d 501      27.386  29.215 143.378  0.00  0.00    -0.296 OA
ATOM     54  H   SGN d 501      26.932  23.849 140.621  0.00  0.00     0.091 H 
ATOM     55  H   SGN d 501      28.073  21.651 140.168  0.00  0.00     0.080 H 
ATOM     56  H   SGN d 501      29.301  21.077 141.279  0.00  0.00     0.080 H 
ATOM     57  H   SGN d 501      26.462  27.846 141.369  0.00  0.00     0.231 HD
ATOM     58  H   SGN d 501      27.071  26.043 144.393  0.00  0.00     0.140 HD
ATOM     59  H   SGN d 501      29.804  26.037 142.274  0.00  0.00     0.131 H 
ATOM     60  H   SGN d 501      28.733  22.631 142.699  0.00  0.00     0.090 H 
ATOM     61  H   SGN d 501      26.890  24.019 143.625  0.00  0.00     0.089 H 
ATOM     62  H   SGN d 501      25.330  25.312 141.637  0.00  0.00     0.210 HD
ATOM     63  H   SGN d 501      27.539  26.145 141.618  0.00  0.00     0.076 H 
ATOM     64  H   SGN d 501      25.978  28.194 145.327  0.00  0.00     0.231 HD
ATOM     65  H   SGN d 501      26.423  21.897 142.631  0.00  0.00     0.210 HD
ATOM     66  H   SGN d 501      27.849  29.283 144.229  0.00  0.00     0.231 HD
ATOM     67  O2  IDS d 502      32.460  26.958 146.973  0.00  0.00    -0.244 OA
ATOM     68  C3  IDS d 502      30.962  25.991 145.367  0.00  0.00     0.094 C 
ATOM     69  O2S IDS d 502      34.934  27.443 146.131  0.00  0.00    -0.572 OA
ATOM     70  O1S IDS d 502      33.587  29.352 146.772  0.00  0.00    -0.572 OA
ATOM     71  O5  IDS d 502      32.462  23.606 145.488  0.00  0.00    -0.340 OA
ATOM     72  S   IDS d 502      33.921  27.945 147.089  0.00  0.00     0.252 S 
ATOM     73  C1  IDS d 502      32.692  24.639 146.454  0.00  0.00     0.161 C 
ATOM     74  O61 IDS d 502      31.471  21.983 142.851  0.00  0.00    -0.646 OA
ATOM     75  O62 IDS d 502      30.232  22.291 144.635  0.00  0.00    -0.646 OA
ATOM     76  C5  IDS d 502      31.918  23.915 144.189  0.00  0.00     0.152 C 
ATOM     77  O3  IDS d 502      30.568  27.302 145.020  0.00  0.00    -0.390 OA
ATOM     78  C6  IDS d 502      31.132  22.659 143.844  0.00  0.00     0.206 C 
ATOM     79  O3S IDS d 502      34.467  27.860 148.461  0.00  0.00    -0.572 OA
ATOM     80  C4  IDS d 502      30.950  25.114 144.131  0.00  0.00     0.103 C 
ATOM     81  C2  IDS d 502      32.368  26.013 145.912  0.00  0.00     0.134 C 
ATOM     82  H   IDS d 502      30.284  25.609 146.102  0.00  0.00     0.091 H 
ATOM     83  H   IDS d 502      32.031  24.429 147.269  0.00  0.00     0.133 H 
ATOM     84  H   IDS d 502      32.715  24.188 143.529  0.00  0.00     0.104 H 
ATOM     85  H   IDS d 502      31.177  27.658 144.354  0.00  0.00     0.210 HD
ATOM     86  H   IDS d 502      31.335  25.708 143.329  0.00  0.00     0.092 H 
ATOM     87  H   IDS d 502      33.052  26.284 145.135  0.00  0.00     0.097 H 
ENDROOT
TORSDOF 28
ENDMDL
MODEL 42
REMARK VINA RESULT:      -5.5      2.647      9.752
REMARK  0 active torsions:
REMARK  status: ('A' for Active; 'I' for Inactive)
REMARK       I    between atoms: O3_1  and  C3_18 
REMARK       I    between atoms: O6_2  and  C6_6 
REMARK       I    between atoms: O6_2  and  S2_52 
REMARK       I    between atoms: C4_3  and  O4_50 
REMARK       I    between atoms: C6_4  and  C5_31 
REMARK       I    between atoms: C6_4  and  O6_12 
REMARK       I    between atoms: C6_6  and  C5_15 
REMARK       I    between atoms: O2_7  and  C2_53 
REMARK       I    between atoms: O2_7  and  S_26 
REMARK       I    between atoms: C3_8  and  O3_38 
REMARK       I    between atoms: S1_9  and  N_19 
REMARK       I    between atoms: S1_9  and  O1S_55 
REMARK       I    between atoms: S1_9  and  O2S_49 
REMARK       I    between atoms: S1_9  and  O3S_17 
REMARK       I    between atoms: O6_12  and  S2_45 
REMARK       I    between atoms: O1S_14  and  S1_48 
REMARK       I    between atoms: O3S_16  and  S1_48 
REMARK       I    between atoms: N_19  and  C2_46 
REMARK       I    between atoms: O1_22  and  C1_24 
REMARK       I    between atoms: O1_22  and  C4_41 
REMARK       I    between atoms: N_23  and  C2_47 
REMARK       I    between atoms: N_23  and  S1_48 
REMARK       I    between atoms: O2S_25  and  S1_48 
REMARK       I    between atoms: C1_27  and  O4_44 
REMARK       I    between atoms: C3_34  and  O3_43 
REMARK       I    between atoms: C1_35  and  O1_36 
REMARK       I    between atoms: C5_37  and  C6_39 
REMARK       I    between atoms: O4_44  and  C4_54 
ROOT
ATOM      1  O3  SGN d 503      29.124  27.992 148.176  0.00  0.00    -0.391 OA
ATOM      2  O6  SGN d 503      25.511  25.461 146.653  0.00  0.00    -0.254 OA
ATOM      3  C6  SGN d 503      25.168  26.561 145.817  0.00  0.00     0.067 C 
ATOM      4  O1S SGN d 503      27.019  29.373 152.135  0.00  0.00    -0.296 OA
ATOM      5  C5  SGN d 503      25.834  27.782 146.424  0.00  0.00     0.091 C 
ATOM      6  O3S SGN d 503      29.006  28.366 151.201  0.00  0.00    -0.296 OA
ATOM      7  C3  SGN d 503      27.882  28.456 147.694  0.00  0.00     0.083 C 
ATOM      8  O4S SGN d 503      25.526  23.118 145.436  0.00  0.00    -0.572 OA
ATOM      9  N   SGN d 503      27.558  29.907 149.603  0.00  0.00    -0.210 NA
ATOM     10  O2S SGN d 503      28.971  30.738 151.694  0.00  0.00    -0.296 OA
ATOM     11  O5  SGN d 503      25.060  28.159 147.564  0.00  0.00    -0.350 OA
ATOM     12  O6S SGN d 503      24.679  23.195 147.708  0.00  0.00    -0.572 OA
ATOM     13  O5S SGN d 503      23.382  24.111 145.881  0.00  0.00    -0.572 OA
ATOM     14  C1  SGN d 503      25.600  29.228 148.337  0.00  0.00     0.147 C 
ATOM     15  O1  SGN d 503      25.703  30.410 147.549  0.00  0.00    -0.369 OA
ATOM     16  O4  SGN d 503      28.036  27.139 145.712  0.00  0.00    -0.348 OA
ATOM     17  C2  SGN d 503      26.971  28.820 148.851  0.00  0.00     0.081 C 
ATOM     18  S1  SGN d 503      28.166  29.584 151.228  0.00  0.00     0.156 S 
ATOM     19  S2  SGN d 503      24.740  23.900 146.412  0.00  0.00     0.251 S 
ATOM     20  C4  SGN d 503      27.230  27.368 146.866  0.00  0.00     0.095 C 
ATOM     21  H   SGN d 503      29.544  28.687 148.707  0.00  0.00     0.210 HD
ATOM     22  H   SGN d 503      24.106  26.692 145.795  0.00  0.00     0.080 H 
ATOM     23  H   SGN d 503      25.494  26.400 144.811  0.00  0.00     0.080 H 
ATOM     24  H   SGN d 503      26.496  28.617 151.825  0.00  0.00     0.231 HD
ATOM     25  H   SGN d 503      25.898  28.597 145.732  0.00  0.00     0.090 H 
ATOM     26  H   SGN d 503      28.475  27.613 150.895  0.00  0.00     0.231 HD
ATOM     27  H   SGN d 503      28.044  29.326 147.092  0.00  0.00     0.089 H 
ATOM     28  H   SGN d 503      26.846  30.632 149.688  0.00  0.00     0.140 HD
ATOM     29  H   SGN d 503      29.305  30.560 152.587  0.00  0.00     0.231 HD
ATOM     30  H   SGN d 503      24.950  29.434 149.162  0.00  0.00     0.131 H 
ATOM     31  H   SGN d 503      26.289  30.245 146.794  0.00  0.00     0.212 HD
ATOM     32  H   SGN d 503      26.857  27.966 149.487  0.00  0.00     0.076 H 
ATOM     33  H   SGN d 503      27.146  26.480 147.457  0.00  0.00     0.091 H 
ATOM     34  C4  SGN d 501      32.868  19.783 145.050  0.00  0.00     0.089 C 
ATOM     35  C6  SGN d 501      34.230  21.417 146.404  0.00  0.00     0.067 C 
ATOM     36  O6S SGN d 501      37.456  22.181 146.956  0.00  0.00    -0.572 OA
ATOM     37  S1  SGN d 501      29.939  19.712 141.047  0.00  0.00     0.156 S 
ATOM     38  O6  SGN d 501      35.064  22.409 145.808  0.00  0.00    -0.254 OA
ATOM     39  O5S SGN d 501      37.007  20.758 145.052  0.00  0.00    -0.572 OA
ATOM     40  O3S SGN d 501      31.154  18.914 140.763  0.00  0.00    -0.296 OA
ATOM     41  N   SGN d 501      30.139  20.595 142.569  0.00  0.00    -0.210 NA
ATOM     42  O1  SGN d 501      30.622  22.537 144.526  0.00  0.00    -0.348 OA
ATOM     43  C1  SGN d 501      31.708  22.075 143.727  0.00  0.00     0.150 C 
ATOM     44  C5  SGN d 501      32.972  21.211 145.568  0.00  0.00     0.090 C 
ATOM     45  C3  SGN d 501      31.550  19.618 144.304  0.00  0.00     0.083 C 
ATOM     46  O4S SGN d 501      37.390  23.124 144.730  0.00  0.00    -0.572 OA
ATOM     47  O3  SGN d 501      31.465  18.318 143.755  0.00  0.00    -0.391 OA
ATOM     48  S2  SGN d 501      36.799  22.106 145.630  0.00  0.00     0.251 S 
ATOM     49  C2  SGN d 501      31.446  20.664 143.196  0.00  0.00     0.081 C 
ATOM     50  O2S SGN d 501      28.772  18.805 141.152  0.00  0.00    -0.296 OA
ATOM     51  O4  SGN d 501      32.923  18.866 146.145  0.00  0.00    -0.390 OA
ATOM     52  O5  SGN d 501      32.938  22.114 144.457  0.00  0.00    -0.349 OA
ATOM     53  O1S SGN d 501      29.721  20.679 139.947  0.00  0.00    -0.296 OA
ATOM     54  H   SGN d 501      33.682  19.580 144.387  0.00  0.00     0.091 H 
ATOM     55  H   SGN d 501      34.768  20.494 146.466  0.00  0.00     0.080 H 
ATOM     56  H   SGN d 501      33.949  21.742 147.384  0.00  0.00     0.080 H 
ATOM     57  H   SGN d 501      31.919  19.506 140.693  0.00  0.00     0.231 HD
ATOM     58  H   SGN d 501      29.509  20.164 143.246  0.00  0.00     0.140 HD
ATOM     59  H   SGN d 501      31.793  22.734 142.888  0.00  0.00     0.131 H 
ATOM     60  H   SGN d 501      32.141  21.407 146.212  0.00  0.00     0.090 H 
ATOM     61  H   SGN d 501      30.739  19.757 144.989  0.00  0.00     0.089 H 
ATOM     62  H   SGN d 501      32.196  18.182 143.131  0.00  0.00     0.210 HD
ATOM     63  H   SGN d 501      32.199  20.448 142.467  0.00  0.00     0.076 H 
ATOM     64  H   SGN d 501      27.974  19.325 141.339  0.00  0.00     0.231 HD
ATOM     65  H   SGN d 501      32.187  19.043 146.751  0.00  0.00     0.210 HD
ATOM     66  H   SGN d 501      28.925  21.203 140.130  0.00  0.00     0.231 HD
ATOM     67  O2  IDS d 502      27.265  25.775 143.378  0.00  0.00    -0.244 OA
ATOM     68  C3  IDS d 502      28.924  24.094 143.801  0.00  0.00     0.094 C 
ATOM     69  O2S IDS d 502      28.173  28.218 142.857  0.00  0.00    -0.572 OA
ATOM     70  O1S IDS d 502      26.959  27.087 141.091  0.00  0.00    -0.572 OA
ATOM     71  O5  IDS d 502      29.535  25.387 146.231  0.00  0.00    -0.340 OA
ATOM     72  S   IDS d 502      27.034  27.320 142.552  0.00  0.00     0.252 S 
ATOM     73  C1  IDS d 502      28.366  25.771 145.496  0.00  0.00     0.161 C 
ATOM     74  O61 IDS d 502      32.397  24.083 147.055  0.00  0.00    -0.646 OA
ATOM     75  O62 IDS d 502      30.490  23.000 147.133  0.00  0.00    -0.646 OA
ATOM     76  C5  IDS d 502      30.662  24.785 145.564  0.00  0.00     0.152 C 
ATOM     77  O3  IDS d 502      28.896  23.790 142.422  0.00  0.00    -0.390 OA
ATOM     78  C6  IDS d 502      31.241  23.872 146.636  0.00  0.00     0.206 C 
ATOM     79  O3S IDS d 502      25.780  27.949 143.020  0.00  0.00    -0.572 OA
ATOM     80  C4  IDS d 502      30.334  23.922 144.330  0.00  0.00     0.103 C 
ATOM     81  C2  IDS d 502      28.516  25.530 144.012  0.00  0.00     0.134 C 
ATOM     82  H   IDS d 502      28.251  23.437 144.313  0.00  0.00     0.091 H 
ATOM     83  H   IDS d 502      27.574  25.152 145.865  0.00  0.00     0.133 H 
ATOM     84  H   IDS d 502      31.301  25.556 145.184  0.00  0.00     0.104 H 
ATOM     85  H   IDS d 502      29.503  24.380 141.947  0.00  0.00     0.210 HD
ATOM     86  H   IDS d 502      30.992  24.301 143.577  0.00  0.00     0.092 H 
ATOM     87  H   IDS d 502      29.258  26.180 143.596  0.00  0.00     0.097 H 
ENDROOT
TORSDOF 28
ENDMDL
MODEL 43
REMARK VINA RESULT:      -5.5      5.353     12.407
REMARK  0 active torsions:
REMARK  status: ('A' for Active; 'I' for Inactive)
REMARK       I    between atoms: O3_1  and  C3_18 
REMARK       I    between atoms: O6_2  and  C6_6 
REMARK       I    between atoms: O6_2  and  S2_52 
REMARK       I    between atoms: C4_3  and  O4_50 
REMARK       I    between atoms: C6_4  and  C5_31 
REMARK       I    between atoms: C6_4  and  O6_12 
REMARK       I    between atoms: C6_6  and  C5_15 
REMARK       I    between atoms: O2_7  and  C2_53 
REMARK       I    between atoms: O2_7  and  S_26 
REMARK       I    between atoms: C3_8  and  O3_38 
REMARK       I    between atoms: S1_9  and  N_19 
REMARK       I    between atoms: S1_9  and  O1S_55 
REMARK       I    between atoms: S1_9  and  O2S_49 
REMARK       I    between atoms: S1_9  and  O3S_17 
REMARK       I    between atoms: O6_12  and  S2_45 
REMARK       I    between atoms: O1S_14  and  S1_48 
REMARK       I    between atoms: O3S_16  and  S1_48 
REMARK       I    between atoms: N_19  and  C2_46 
REMARK       I    between atoms: O1_22  and  C1_24 
REMARK       I    between atoms: O1_22  and  C4_41 
REMARK       I    between atoms: N_23  and  C2_47 
REMARK       I    between atoms: N_23  and  S1_48 
REMARK       I    between atoms: O2S_25  and  S1_48 
REMARK       I    between atoms: C1_27  and  O4_44 
REMARK       I    between atoms: C3_34  and  O3_43 
REMARK       I    between atoms: C1_35  and  O1_36 
REMARK       I    between atoms: C5_37  and  C6_39 
REMARK       I    between atoms: O4_44  and  C4_54 
ROOT
ATOM      1  O3  SGN d 503      31.292  19.595 140.894  0.00  0.00    -0.391 OA
ATOM      2  O6  SGN d 503      30.510  20.757 145.347  0.00  0.00    -0.254 OA
ATOM      3  C6  SGN d 503      29.527  19.729 145.381  0.00  0.00     0.067 C 
ATOM      4  O1S SGN d 503      28.688  23.061 139.101  0.00  0.00    -0.296 OA
ATOM      5  C5  SGN d 503      29.136  19.463 143.939  0.00  0.00     0.091 C 
ATOM      6  O3S SGN d 503      30.847  21.977 139.042  0.00  0.00    -0.296 OA
ATOM      7  C3  SGN d 503      30.094  19.463 141.628  0.00  0.00     0.083 C 
ATOM      8  O4S SGN d 503      32.192  20.741 147.382  0.00  0.00    -0.572 OA
ATOM      9  N   SGN d 503      28.789  20.544 139.901  0.00  0.00    -0.210 NA
ATOM     10  O2S SGN d 503      29.155  21.390 137.410  0.00  0.00    -0.296 OA
ATOM     11  O5  SGN d 503      28.280  20.533 143.533  0.00  0.00    -0.350 OA
ATOM     12  O6S SGN d 503      31.454  22.900 146.555  0.00  0.00    -0.572 OA
ATOM     13  O5S SGN d 503      29.948  21.487 147.816  0.00  0.00    -0.572 OA
ATOM     14  C1  SGN d 503      27.897  20.517 142.160  0.00  0.00     0.147 C 
ATOM     15  O1  SGN d 503      27.176  19.327 141.858  0.00  0.00    -0.369 OA
ATOM     16  O4  SGN d 503      31.187  18.329 143.418  0.00  0.00    -0.348 OA
ATOM     17  C2  SGN d 503      29.149  20.603 141.300  0.00  0.00     0.081 C 
ATOM     18  S1  SGN d 503      29.395  21.795 138.815  0.00  0.00     0.156 S 
ATOM     19  S2  SGN d 503      31.051  21.508 146.841  0.00  0.00     0.251 S 
ATOM     20  C4  SGN d 503      30.411  19.484 143.109  0.00  0.00     0.095 C 
ATOM     21  H   SGN d 503      31.092  19.581 139.945  0.00  0.00     0.210 HD
ATOM     22  H   SGN d 503      28.675  20.051 145.942  0.00  0.00     0.080 H 
ATOM     23  H   SGN d 503      29.907  18.845 145.849  0.00  0.00     0.080 H 
ATOM     24  H   SGN d 503      28.849  23.321 140.022  0.00  0.00     0.231 HD
ATOM     25  H   SGN d 503      28.638  18.524 143.819  0.00  0.00     0.090 H 
ATOM     26  H   SGN d 503      30.999  22.241 139.963  0.00  0.00     0.231 HD
ATOM     27  H   SGN d 503      29.625  18.537 141.368  0.00  0.00     0.089 H 
ATOM     28  H   SGN d 503      27.771  20.572 139.851  0.00  0.00     0.140 HD
ATOM     29  H   SGN d 503      29.488  22.078 136.813  0.00  0.00     0.231 HD
ATOM     30  H   SGN d 503      27.261  21.352 141.958  0.00  0.00     0.131 H 
ATOM     31  H   SGN d 503      27.736  18.555 142.034  0.00  0.00     0.212 HD
ATOM     32  H   SGN d 503      29.639  21.532 141.504  0.00  0.00     0.076 H 
ATOM     33  H   SGN d 503      30.948  20.380 143.340  0.00  0.00     0.091 H 
ATOM     34  C4  SGN d 501      39.793  19.101 145.214  0.00  0.00     0.089 C 
ATOM     35  C6  SGN d 501      39.590  19.018 142.702  0.00  0.00     0.067 C 
ATOM     36  O6S SGN d 501      41.354  17.948 140.050  0.00  0.00    -0.572 OA
ATOM     37  S1  SGN d 501      37.875  16.919 149.235  0.00  0.00     0.156 S 
ATOM     38  O6  SGN d 501      39.517  17.794 141.973  0.00  0.00    -0.254 OA
ATOM     39  O5S SGN d 501      42.086  17.147 142.213  0.00  0.00    -0.572 OA
ATOM     40  O3S SGN d 501      39.311  16.570 149.143  0.00  0.00    -0.296 OA
ATOM     41  N   SGN d 501      37.353  17.726 147.747  0.00  0.00    -0.210 NA
ATOM     42  O1  SGN d 501      36.283  18.338 145.234  0.00  0.00    -0.348 OA
ATOM     43  C1  SGN d 501      37.411  17.469 145.313  0.00  0.00     0.150 C 
ATOM     44  C5  SGN d 501      38.857  18.884 144.033  0.00  0.00     0.090 C 
ATOM     45  C3  SGN d 501      38.987  19.046 146.506  0.00  0.00     0.083 C 
ATOM     46  O4S SGN d 501      40.725  15.735 140.797  0.00  0.00    -0.572 OA
ATOM     47  O3  SGN d 501      39.849  19.176 147.619  0.00  0.00    -0.391 OA
ATOM     48  S2  SGN d 501      40.980  17.129 141.228  0.00  0.00     0.251 S 
ATOM     49  C2  SGN d 501      38.222  17.727 146.584  0.00  0.00     0.081 C 
ATOM     50  O2S SGN d 501      37.664  17.825 150.388  0.00  0.00    -0.296 OA
ATOM     51  O4  SGN d 501      40.434  20.373 145.097  0.00  0.00    -0.390 OA
ATOM     52  O5  SGN d 501      38.243  17.597 144.155  0.00  0.00    -0.349 OA
ATOM     53  O1S SGN d 501      37.082  15.682 149.422  0.00  0.00    -0.296 OA
ATOM     54  H   SGN d 501      40.541  18.337 145.227  0.00  0.00     0.091 H 
ATOM     55  H   SGN d 501      40.616  19.260 142.886  0.00  0.00     0.080 H 
ATOM     56  H   SGN d 501      39.129  19.794 142.127  0.00  0.00     0.080 H 
ATOM     57  H   SGN d 501      39.451  15.976 148.389  0.00  0.00     0.231 HD
ATOM     58  H   SGN d 501      37.178  18.702 147.987  0.00  0.00     0.140 HD
ATOM     59  H   SGN d 501      37.042  16.466 145.353  0.00  0.00     0.131 H 
ATOM     60  H   SGN d 501      38.103  19.642 144.045  0.00  0.00     0.090 H 
ATOM     61  H   SGN d 501      38.286  19.855 146.516  0.00  0.00     0.089 H 
ATOM     62  H   SGN d 501      40.489  18.447 147.620  0.00  0.00     0.210 HD
ATOM     63  H   SGN d 501      38.937  16.937 146.677  0.00  0.00     0.076 H 
ATOM     64  H   SGN d 501      36.724  18.056 150.451  0.00  0.00     0.231 HD
ATOM     65  H   SGN d 501      39.762  21.073 145.085  0.00  0.00     0.210 HD
ATOM     66  H   SGN d 501      36.140  15.908 149.483  0.00  0.00     0.231 HD
ATOM     67  O2  IDS d 502      31.660  17.268 145.978  0.00  0.00    -0.244 OA
ATOM     68  C3  IDS d 502      34.006  17.712 145.739  0.00  0.00     0.094 C 
ATOM     69  O2S IDS d 502      30.630  15.463 144.321  0.00  0.00    -0.572 OA
ATOM     70  O1S IDS d 502      30.605  14.938 146.686  0.00  0.00    -0.572 OA
ATOM     71  O5  IDS d 502      33.464  18.941 143.260  0.00  0.00    -0.340 OA
ATOM     72  S   IDS d 502      30.448  16.016 145.684  0.00  0.00     0.252 S 
ATOM     73  C1  IDS d 502      32.383  18.608 144.139  0.00  0.00     0.161 C 
ATOM     74  O61 IDS d 502      36.397  19.108 141.868  0.00  0.00    -0.646 OA
ATOM     75  O62 IDS d 502      35.780  20.342 143.573  0.00  0.00    -0.646 OA
ATOM     76  C5  IDS d 502      34.714  18.226 143.321  0.00  0.00     0.152 C 
ATOM     77  O3  IDS d 502      34.244  16.713 146.709  0.00  0.00    -0.390 OA
ATOM     78  C6  IDS d 502      35.728  19.282 142.906  0.00  0.00     0.206 C 
ATOM     79  O3S IDS d 502      29.095  16.604 145.793  0.00  0.00    -0.572 OA
ATOM     80  C4  IDS d 502      35.120  17.696 144.711  0.00  0.00     0.103 C 
ATOM     81  C2  IDS d 502      32.708  17.429 145.027  0.00  0.00     0.134 C 
ATOM     82  H   IDS d 502      33.963  18.664 146.226  0.00  0.00     0.091 H 
ATOM     83  H   IDS d 502      32.233  19.469 144.756  0.00  0.00     0.133 H 
ATOM     84  H   IDS d 502      34.649  17.347 142.713  0.00  0.00     0.104 H 
ATOM     85  H   IDS d 502      34.285  15.845 146.277  0.00  0.00     0.210 HD
ATOM     86  H   IDS d 502      35.354  16.668 144.528  0.00  0.00     0.092 H 
ATOM     87  H   IDS d 502      32.802  16.533 144.448  0.00  0.00     0.097 H 
ENDROOT
TORSDOF 28
ENDMDL
MODEL 44
REMARK VINA RESULT:      -5.5      3.449      9.566
REMARK  0 active torsions:
REMARK  status: ('A' for Active; 'I' for Inactive)
REMARK       I    between atoms: O3_1  and  C3_18 
REMARK       I    between atoms: O6_2  and  C6_6 
REMARK       I    between atoms: O6_2  and  S2_52 
REMARK       I    between atoms: C4_3  and  O4_50 
REMARK       I    between atoms: C6_4  and  C5_31 
REMARK       I    between atoms: C6_4  and  O6_12 
REMARK       I    between atoms: C6_6  and  C5_15 
REMARK       I    between atoms: O2_7  and  C2_53 
REMARK       I    between atoms: O2_7  and  S_26 
REMARK       I    between atoms: C3_8  and  O3_38 
REMARK       I    between atoms: S1_9  and  N_19 
REMARK       I    between atoms: S1_9  and  O1S_55 
REMARK       I    between atoms: S1_9  and  O2S_49 
REMARK       I    between atoms: S1_9  and  O3S_17 
REMARK       I    between atoms: O6_12  and  S2_45 
REMARK       I    between atoms: O1S_14  and  S1_48 
REMARK       I    between atoms: O3S_16  and  S1_48 
REMARK       I    between atoms: N_19  and  C2_46 
REMARK       I    between atoms: O1_22  and  C1_24 
REMARK       I    between atoms: O1_22  and  C4_41 
REMARK       I    between atoms: N_23  and  C2_47 
REMARK       I    between atoms: N_23  and  S1_48 
REMARK       I    between atoms: O2S_25  and  S1_48 
REMARK       I    between atoms: C1_27  and  O4_44 
REMARK       I    between atoms: C3_34  and  O3_43 
REMARK       I    between atoms: C1_35  and  O1_36 
REMARK       I    between atoms: C5_37  and  C6_39 
REMARK       I    between atoms: O4_44  and  C4_54 
ROOT
ATOM      1  O3  SGN d 503      25.918  23.089 148.478  0.00  0.00    -0.391 OA
ATOM      2  O6  SGN d 503      23.411  24.448 144.783  0.00  0.00    -0.254 OA
ATOM      3  C6  SGN d 503      23.440  25.764 145.321  0.00  0.00     0.067 C 
ATOM      4  O1S SGN d 503      22.252  21.386 150.859  0.00  0.00    -0.296 OA
ATOM      5  C5  SGN d 503      23.739  25.615 146.801  0.00  0.00     0.091 C 
ATOM      6  O3S SGN d 503      24.475  20.905 150.042  0.00  0.00    -0.296 OA
ATOM      7  C3  SGN d 503      25.002  24.159 148.397  0.00  0.00     0.083 C 
ATOM      8  O4S SGN d 503      24.023  24.293 142.219  0.00  0.00    -0.572 OA
ATOM      9  N   SGN d 503      23.833  23.453 150.395  0.00  0.00    -0.210 NA
ATOM     10  O2S SGN d 503      24.162  21.657 152.325  0.00  0.00    -0.296 OA
ATOM     11  O5  SGN d 503      22.533  25.177 147.431  0.00  0.00    -0.350 OA
ATOM     12  O6S SGN d 503      22.263  22.840 143.041  0.00  0.00    -0.572 OA
ATOM     13  O5S SGN d 503      21.875  25.214 142.783  0.00  0.00    -0.572 OA
ATOM     14  C1  SGN d 503      22.648  24.870 148.818  0.00  0.00     0.147 C 
ATOM     15  O1  SGN d 503      23.055  26.021 149.551  0.00  0.00    -0.369 OA
ATOM     16  O4  SGN d 503      26.046  25.050 146.447  0.00  0.00    -0.348 OA
ATOM     17  C2  SGN d 503      23.666  23.752 148.990  0.00  0.00     0.081 C 
ATOM     18  S1  SGN d 503      23.675  21.779 150.930  0.00  0.00     0.156 S 
ATOM     19  S2  SGN d 503      22.867  24.184 143.133  0.00  0.00     0.251 S 
ATOM     20  C4  SGN d 503      24.810  24.543 146.945  0.00  0.00     0.095 C 
ATOM     21  H   SGN d 503      26.044  22.841 149.407  0.00  0.00     0.210 HD
ATOM     22  H   SGN d 503      22.493  26.242 145.182  0.00  0.00     0.080 H 
ATOM     23  H   SGN d 503      24.179  26.366 144.835  0.00  0.00     0.080 H 
ATOM     24  H   SGN d 503      21.939  21.468 149.944  0.00  0.00     0.231 HD
ATOM     25  H   SGN d 503      24.077  26.529 147.243  0.00  0.00     0.090 H 
ATOM     26  H   SGN d 503      24.153  20.989 149.131  0.00  0.00     0.231 HD
ATOM     27  H   SGN d 503      25.387  24.992 148.947  0.00  0.00     0.089 H 
ATOM     28  H   SGN d 503      23.137  23.997 150.903  0.00  0.00     0.140 HD
ATOM     29  H   SGN d 503      24.075  20.737 152.619  0.00  0.00     0.231 HD
ATOM     30  H   SGN d 503      21.698  24.554 149.193  0.00  0.00     0.131 H 
ATOM     31  H   SGN d 503      23.917  26.324 149.226  0.00  0.00     0.212 HD
ATOM     32  H   SGN d 503      23.308  22.883 148.479  0.00  0.00     0.076 H 
ATOM     33  H   SGN d 503      24.499  23.681 146.392  0.00  0.00     0.091 H 
ATOM     34  C4  SGN d 501      30.877  20.263 140.823  0.00  0.00     0.089 C 
ATOM     35  C6  SGN d 501      31.462  19.455 143.139  0.00  0.00     0.067 C 
ATOM     36  O6S SGN d 501      34.096  18.173 144.786  0.00  0.00    -0.572 OA
ATOM     37  S1  SGN d 501      30.006  24.510 138.412  0.00  0.00     0.156 S 
ATOM     38  O6  SGN d 501      32.445  20.090 143.954  0.00  0.00    -0.254 OA
ATOM     39  O5S SGN d 501      34.567  19.177 142.637  0.00  0.00    -0.572 OA
ATOM     40  O3S SGN d 501      31.243  23.901 137.873  0.00  0.00    -0.296 OA
ATOM     41  N   SGN d 501      29.493  23.645 139.870  0.00  0.00    -0.210 NA
ATOM     42  O1  SGN d 501      29.015  22.833 142.506  0.00  0.00    -0.348 OA
ATOM     43  C1  SGN d 501      30.354  22.842 142.016  0.00  0.00     0.150 C 
ATOM     44  C5  SGN d 501      30.705  20.493 142.319  0.00  0.00     0.090 C 
ATOM     45  C3  SGN d 501      30.026  21.272 140.062  0.00  0.00     0.083 C 
ATOM     46  O4S SGN d 501      34.988  20.418 144.670  0.00  0.00    -0.572 OA
ATOM     47  O3  SGN d 501      30.226  21.121 138.670  0.00  0.00    -0.391 OA
ATOM     48  S2  SGN d 501      34.090  19.438 144.015  0.00  0.00     0.251 S 
ATOM     49  C2  SGN d 501      30.390  22.690 140.495  0.00  0.00     0.081 C 
ATOM     50  O2S SGN d 501      28.937  24.431 137.389  0.00  0.00    -0.296 OA
ATOM     51  O4  SGN d 501      30.472  18.935 140.487  0.00  0.00    -0.390 OA
ATOM     52  O5  SGN d 501      31.137  21.819 142.640  0.00  0.00    -0.349 OA
ATOM     53  O1S SGN d 501      30.266  25.927 138.752  0.00  0.00    -0.296 OA
ATOM     54  H   SGN d 501      31.906  20.389 140.556  0.00  0.00     0.091 H 
ATOM     55  H   SGN d 501      31.944  18.765 142.478  0.00  0.00     0.080 H 
ATOM     56  H   SGN d 501      30.770  18.936 143.769  0.00  0.00     0.080 H 
ATOM     57  H   SGN d 501      31.946  23.952 138.540  0.00  0.00     0.231 HD
ATOM     58  H   SGN d 501      28.642  23.137 139.628  0.00  0.00     0.140 HD
ATOM     59  H   SGN d 501      30.780  23.791 142.265  0.00  0.00     0.131 H 
ATOM     60  H   SGN d 501      29.670  20.385 142.568  0.00  0.00     0.090 H 
ATOM     61  H   SGN d 501      28.993  21.096 140.283  0.00  0.00     0.089 H 
ATOM     62  H   SGN d 501      31.160  21.278 138.459  0.00  0.00     0.210 HD
ATOM     63  H   SGN d 501      31.392  22.885 140.175  0.00  0.00     0.076 H 
ATOM     64  H   SGN d 501      28.124  24.829 137.740  0.00  0.00     0.231 HD
ATOM     65  H   SGN d 501      29.540  18.812 140.726  0.00  0.00     0.210 HD
ATOM     66  H   SGN d 501      29.457  26.329 139.105  0.00  0.00     0.231 HD
ATOM     67  O2  IDS d 502      26.415  26.546 144.096  0.00  0.00    -0.244 OA
ATOM     68  C3  IDS d 502      27.766  24.787 143.178  0.00  0.00     0.094 C 
ATOM     69  O2S IDS d 502      27.393  27.784 146.235  0.00  0.00    -0.572 OA
ATOM     70  O1S IDS d 502      27.109  29.105 144.223  0.00  0.00    -0.572 OA
ATOM     71  O5  IDS d 502      27.213  23.242 145.471  0.00  0.00    -0.340 OA
ATOM     72  S   IDS d 502      26.529  28.026 145.055  0.00  0.00     0.252 S 
ATOM     73  C1  IDS d 502      26.474  24.447 145.231  0.00  0.00     0.161 C 
ATOM     74  O61 IDS d 502      29.456  20.894 145.331  0.00  0.00    -0.646 OA
ATOM     75  O62 IDS d 502      27.740  21.029 143.971  0.00  0.00    -0.646 OA
ATOM     76  C5  IDS d 502      28.534  23.064 144.924  0.00  0.00     0.152 C 
ATOM     77  O3  IDS d 502      28.354  25.750 142.329  0.00  0.00    -0.390 OA
ATOM     78  C6  IDS d 502      28.608  21.560 144.703  0.00  0.00     0.206 C 
ATOM     79  O3S IDS d 502      25.180  28.422 145.514  0.00  0.00    -0.572 OA
ATOM     80  C4  IDS d 502      28.804  23.757 143.574  0.00  0.00     0.103 C 
ATOM     81  C2  IDS d 502      27.268  25.456 144.434  0.00  0.00     0.134 C 
ATOM     82  H   IDS d 502      26.955  24.319 142.660  0.00  0.00     0.091 H 
ATOM     83  H   IDS d 502      25.619  24.155 144.659  0.00  0.00     0.133 H 
ATOM     84  H   IDS d 502      29.253  23.494 145.590  0.00  0.00     0.104 H 
ATOM     85  H   IDS d 502      29.091  26.181 142.789  0.00  0.00     0.210 HD
ATOM     86  H   IDS d 502      29.716  24.290 143.744  0.00  0.00     0.092 H 
ATOM     87  H   IDS d 502      28.098  25.820 145.003  0.00  0.00     0.097 H 
ENDROOT
TORSDOF 28
ENDMDL
MODEL 45
REMARK VINA RESULT:      -5.5      3.553      5.211
REMARK  0 active torsions:
REMARK  status: ('A' for Active; 'I' for Inactive)
REMARK       I    between atoms: O3_1  and  C3_18 
REMARK       I    between atoms: O6_2  and  C6_6 
REMARK       I    between atoms: O6_2  and  S2_52 
REMARK       I    between atoms: C4_3  and  O4_50 
REMARK       I    between atoms: C6_4  and  C5_31 
REMARK       I    between atoms: C6_4  and  O6_12 
REMARK       I    between atoms: C6_6  and  C5_15 
REMARK       I    between atoms: O2_7  and  C2_53 
REMARK       I    between atoms: O2_7  and  S_26 
REMARK       I    between atoms: C3_8  and  O3_38 
REMARK       I    between atoms: S1_9  and  N_19 
REMARK       I    between atoms: S1_9  and  O1S_55 
REMARK       I    between atoms: S1_9  and  O2S_49 
REMARK       I    between atoms: S1_9  and  O3S_17 
REMARK       I    between atoms: O6_12  and  S2_45 
REMARK       I    between atoms: O1S_14  and  S1_48 
REMARK       I    between atoms: O3S_16  and  S1_48 
REMARK       I    between atoms: N_19  and  C2_46 
REMARK       I    between atoms: O1_22  and  C1_24 
REMARK       I    between atoms: O1_22  and  C4_41 
REMARK       I    between atoms: N_23  and  C2_47 
REMARK       I    between atoms: N_23  and  S1_48 
REMARK       I    between atoms: O2S_25  and  S1_48 
REMARK       I    between atoms: C1_27  and  O4_44 
REMARK       I    between atoms: C3_34  and  O3_43 
REMARK       I    between atoms: C1_35  and  O1_36 
REMARK       I    between atoms: C5_37  and  C6_39 
REMARK       I    between atoms: O4_44  and  C4_54 
ROOT
ATOM      1  O3  SGN d 503      29.466  19.937 148.474  0.00  0.00    -0.391 OA
ATOM      2  O6  SGN d 503      32.678  19.382 145.133  0.00  0.00    -0.254 OA
ATOM      3  C6  SGN d 503      32.269  18.022 145.048  0.00  0.00     0.067 C 
ATOM      4  O1S SGN d 503      32.506  19.586 152.030  0.00  0.00    -0.296 OA
ATOM      5  C5  SGN d 503      31.579  17.700 146.361  0.00  0.00     0.091 C 
ATOM      6  O3S SGN d 503      30.736  20.920 151.067  0.00  0.00    -0.296 OA
ATOM      7  C3  SGN d 503      30.170  18.763 148.134  0.00  0.00     0.083 C 
ATOM      8  O4S SGN d 503      32.881  20.618 142.808  0.00  0.00    -0.572 OA
ATOM      9  N   SGN d 503      30.803  18.347 150.432  0.00  0.00    -0.210 NA
ATOM     10  O2S SGN d 503      30.233  19.336 152.831  0.00  0.00    -0.296 OA
ATOM     11  O5  SGN d 503      32.603  17.531 147.343  0.00  0.00    -0.350 OA
ATOM     12  O6S SGN d 503      34.543  21.132 144.500  0.00  0.00    -0.572 OA
ATOM     13  O5S SGN d 503      34.580  19.005 143.348  0.00  0.00    -0.572 OA
ATOM     14  C1  SGN d 503      32.140  17.333 148.676  0.00  0.00     0.147 C 
ATOM     15  O1  SGN d 503      31.347  16.153 148.758  0.00  0.00    -0.369 OA
ATOM     16  O4  SGN d 503      29.609  18.963 145.825  0.00  0.00    -0.348 OA
ATOM     17  C2  SGN d 503      31.322  18.544 149.097  0.00  0.00     0.081 C 
ATOM     18  S1  SGN d 503      31.079  19.600 151.643  0.00  0.00     0.156 S 
ATOM     19  S2  SGN d 503      33.719  20.067 143.894  0.00  0.00     0.251 S 
ATOM     20  C4  SGN d 503      30.712  18.896 146.725  0.00  0.00     0.095 C 
ATOM     21  H   SGN d 503      29.117  19.856 149.375  0.00  0.00     0.210 HD
ATOM     22  H   SGN d 503      33.120  17.388 144.912  0.00  0.00     0.080 H 
ATOM     23  H   SGN d 503      31.615  17.865 144.217  0.00  0.00     0.080 H 
ATOM     24  H   SGN d 503      33.055  19.759 151.249  0.00  0.00     0.231 HD
ATOM     25  H   SGN d 503      30.976  16.818 146.298  0.00  0.00     0.090 H 
ATOM     26  H   SGN d 503      31.292  21.088 150.290  0.00  0.00     0.231 HD
ATOM     27  H   SGN d 503      29.505  17.927 148.192  0.00  0.00     0.089 H 
ATOM     28  H   SGN d 503      31.217  17.487 150.791  0.00  0.00     0.140 HD
ATOM     29  H   SGN d 503      30.385  20.025 153.496  0.00  0.00     0.231 HD
ATOM     30  H   SGN d 503      32.978  17.217 149.331  0.00  0.00     0.131 H 
ATOM     31  H   SGN d 503      30.580  16.238 148.170  0.00  0.00     0.212 HD
ATOM     32  H   SGN d 503      31.957  19.406 149.083  0.00  0.00     0.076 H 
ATOM     33  H   SGN d 503      31.313  19.779 146.662  0.00  0.00     0.091 H 
ATOM     34  C4  SGN d 501      27.527  26.592 141.905  0.00  0.00     0.089 C 
ATOM     35  C6  SGN d 501      26.434  26.631 144.178  0.00  0.00     0.067 C 
ATOM     36  O6S SGN d 501      23.691  27.897 145.650  0.00  0.00    -0.572 OA
ATOM     37  S1  SGN d 501      28.332  23.446 138.155  0.00  0.00     0.156 S 
ATOM     38  O6  SGN d 501      25.162  26.039 144.435  0.00  0.00    -0.254 OA
ATOM     39  O5S SGN d 501      23.708  27.912 143.231  0.00  0.00    -0.572 OA
ATOM     40  O3S SGN d 501      27.430  24.523 137.689  0.00  0.00    -0.296 OA
ATOM     41  N   SGN d 501      28.534  23.547 139.912  0.00  0.00    -0.210 NA
ATOM     42  O1  SGN d 501      28.349  23.182 142.682  0.00  0.00    -0.348 OA
ATOM     43  C1  SGN d 501      27.231  23.719 141.977  0.00  0.00     0.150 C 
ATOM     44  C5  SGN d 501      27.211  25.797 143.166  0.00  0.00     0.090 C 
ATOM     45  C3  SGN d 501      28.380  25.736 140.977  0.00  0.00     0.083 C 
ATOM     46  O4S SGN d 501      22.505  26.184 144.422  0.00  0.00    -0.572 OA
ATOM     47  O3  SGN d 501      28.625  26.431 139.770  0.00  0.00    -0.391 OA
ATOM     48  S2  SGN d 501      23.707  27.049 144.435  0.00  0.00     0.251 S 
ATOM     49  C2  SGN d 501      27.669  24.416 140.689  0.00  0.00     0.081 C 
ATOM     50  O2S SGN d 501      29.652  23.594 137.498  0.00  0.00    -0.296 OA
ATOM     51  O4  SGN d 501      28.232  27.785 142.250  0.00  0.00    -0.390 OA
ATOM     52  O5  SGN d 501      26.485  24.618 142.804  0.00  0.00    -0.349 OA
ATOM     53  O1S SGN d 501      27.747  22.131 137.807  0.00  0.00    -0.296 OA
ATOM     54  H   SGN d 501      26.616  26.858 141.411  0.00  0.00     0.091 H 
ATOM     55  H   SGN d 501      26.292  27.618 143.788  0.00  0.00     0.080 H 
ATOM     56  H   SGN d 501      26.988  26.676 145.092  0.00  0.00     0.080 H 
ATOM     57  H   SGN d 501      26.564  24.427 138.117  0.00  0.00     0.231 HD
ATOM     58  H   SGN d 501      29.492  23.853 140.082  0.00  0.00     0.140 HD
ATOM     59  H   SGN d 501      26.595  22.899 141.712  0.00  0.00     0.131 H 
ATOM     60  H   SGN d 501      28.130  25.519 143.639  0.00  0.00     0.090 H 
ATOM     61  H   SGN d 501      29.316  25.530 141.453  0.00  0.00     0.089 H 
ATOM     62  H   SGN d 501      27.782  26.623 139.330  0.00  0.00     0.210 HD
ATOM     63  H   SGN d 501      26.787  24.633 140.123  0.00  0.00     0.076 H 
ATOM     64  H   SGN d 501      30.246  22.890 137.802  0.00  0.00     0.231 HD
ATOM     65  H   SGN d 501      29.060  27.552 142.699  0.00  0.00     0.210 HD
ATOM     66  H   SGN d 501      28.337  21.423 138.111  0.00  0.00     0.231 HD
ATOM     67  O2  IDS d 502      29.697  18.586 143.041  0.00  0.00    -0.244 OA
ATOM     68  C3  IDS d 502      28.994  20.855 142.701  0.00  0.00     0.094 C 
ATOM     69  O2S IDS d 502      27.940  16.974 144.215  0.00  0.00    -0.572 OA
ATOM     70  O1S IDS d 502      28.573  16.451 141.935  0.00  0.00    -0.572 OA
ATOM     71  O5  IDS d 502      29.104  21.248 145.491  0.00  0.00    -0.340 OA
ATOM     72  S   IDS d 502      29.058  16.951 143.242  0.00  0.00     0.252 S 
ATOM     73  C1  IDS d 502      29.665  20.060 144.919  0.00  0.00     0.161 C 
ATOM     74  O61 IDS d 502      27.434  24.005 145.910  0.00  0.00    -0.646 OA
ATOM     75  O62 IDS d 502      29.425  23.908 144.993  0.00  0.00    -0.646 OA
ATOM     76  C5  IDS d 502      28.052  21.967 144.819  0.00  0.00     0.152 C 
ATOM     77  O3  IDS d 502      28.527  20.467 141.426  0.00  0.00    -0.390 OA
ATOM     78  C6  IDS d 502      28.303  23.407 145.243  0.00  0.00     0.206 C 
ATOM     79  O3S IDS d 502      30.125  16.062 143.750  0.00  0.00    -0.572 OA
ATOM     80  C4  IDS d 502      28.076  21.914 143.278  0.00  0.00     0.103 C 
ATOM     81  C2  IDS d 502      28.981  19.667 143.629  0.00  0.00     0.134 C 
ATOM     82  H   IDS d 502      29.989  21.239 142.603  0.00  0.00     0.091 H 
ATOM     83  H   IDS d 502      30.687  20.293 144.706  0.00  0.00     0.133 H 
ATOM     84  H   IDS d 502      27.107  21.539 145.082  0.00  0.00     0.104 H 
ATOM     85  H   IDS d 502      27.625  20.118 141.505  0.00  0.00     0.210 HD
ATOM     86  H   IDS d 502      27.078  21.627 143.022  0.00  0.00     0.092 H 
ATOM     87  H   IDS d 502      27.971  19.365 143.813  0.00  0.00     0.097 H 
ENDROOT
TORSDOF 28
ENDMDL
MODEL 46
REMARK VINA RESULT:      -5.5      3.993      7.812
REMARK  0 active torsions:
REMARK  status: ('A' for Active; 'I' for Inactive)
REMARK       I    between atoms: O3_1  and  C3_18 
REMARK       I    between atoms: O6_2  and  C6_6 
REMARK       I    between atoms: O6_2  and  S2_52 
REMARK       I    between atoms: C4_3  and  O4_50 
REMARK       I    between atoms: C6_4  and  C5_31 
REMARK       I    between atoms: C6_4  and  O6_12 
REMARK       I    between atoms: C6_6  and  C5_15 
REMARK       I    between atoms: O2_7  and  C2_53 
REMARK       I    between atoms: O2_7  and  S_26 
REMARK       I    between atoms: C3_8  and  O3_38 
REMARK       I    between atoms: S1_9  and  N_19 
REMARK       I    between atoms: S1_9  and  O1S_55 
REMARK       I    between atoms: S1_9  and  O2S_49 
REMARK       I    between atoms: S1_9  and  O3S_17 
REMARK       I    between atoms: O6_12  and  S2_45 
REMARK       I    between atoms: O1S_14  and  S1_48 
REMARK       I    between atoms: O3S_16  and  S1_48 
REMARK       I    between atoms: N_19  and  C2_46 
REMARK       I    between atoms: O1_22  and  C1_24 
REMARK       I    between atoms: O1_22  and  C4_41 
REMARK       I    between atoms: N_23  and  C2_47 
REMARK       I    between atoms: N_23  and  S1_48 
REMARK       I    between atoms: O2S_25  and  S1_48 
REMARK       I    between atoms: C1_27  and  O4_44 
REMARK       I    between atoms: C3_34  and  O3_43 
REMARK       I    between atoms: C1_35  and  O1_36 
REMARK       I    between atoms: C5_37  and  C6_39 
REMARK       I    between atoms: O4_44  and  C4_54 
ROOT
ATOM      1  O3  SGN d 503      30.580  20.161 147.490  0.00  0.00    -0.391 OA
ATOM      2  O6  SGN d 503      26.792  22.194 149.308  0.00  0.00    -0.254 OA
ATOM      3  C6  SGN d 503      27.646  22.775 150.287  0.00  0.00     0.067 C 
ATOM      4  O1S SGN d 503      29.830  16.000 149.524  0.00  0.00    -0.296 OA
ATOM      5  C5  SGN d 503      28.900  21.921 150.322  0.00  0.00     0.091 C 
ATOM      6  O3S SGN d 503      30.278  17.127 147.434  0.00  0.00    -0.296 OA
ATOM      7  C3  SGN d 503      30.355  20.534 148.832  0.00  0.00     0.083 C 
ATOM      8  O4S SGN d 503      25.112  23.884 148.171  0.00  0.00    -0.572 OA
ATOM      9  N   SGN d 503      31.015  18.359 149.662  0.00  0.00    -0.210 NA
ATOM     10  O2S SGN d 503      32.100  16.138 148.689  0.00  0.00    -0.296 OA
ATOM     11  O5  SGN d 503      28.575  20.727 151.036  0.00  0.00    -0.350 OA
ATOM     12  O6S SGN d 503      24.300  21.648 148.651  0.00  0.00    -0.572 OA
ATOM     13  O5S SGN d 503      24.653  23.238 150.441  0.00  0.00    -0.572 OA
ATOM     14  C1  SGN d 503      29.604  19.742 151.075  0.00  0.00     0.147 C 
ATOM     15  O1  SGN d 503      30.764  20.259 151.721  0.00  0.00    -0.369 OA
ATOM     16  O4  SGN d 503      29.723  22.752 148.225  0.00  0.00    -0.348 OA
ATOM     17  C2  SGN d 503      29.940  19.326 149.651  0.00  0.00     0.081 C 
ATOM     18  S1  SGN d 503      30.799  16.840 148.789  0.00  0.00     0.156 S 
ATOM     19  S2  SGN d 503      25.138  22.763 149.134  0.00  0.00     0.251 S 
ATOM     20  C4  SGN d 503      29.257  21.576 148.884  0.00  0.00     0.095 C 
ATOM     21  H   SGN d 503      31.283  19.494 147.454  0.00  0.00     0.210 HD
ATOM     22  H   SGN d 503      27.168  22.769 151.245  0.00  0.00     0.080 H 
ATOM     23  H   SGN d 503      27.875  23.792 150.048  0.00  0.00     0.080 H 
ATOM     24  H   SGN d 503      28.981  16.465 149.586  0.00  0.00     0.231 HD
ATOM     25  H   SGN d 503      29.721  22.422 150.791  0.00  0.00     0.090 H 
ATOM     26  H   SGN d 503      29.427  17.586 147.505  0.00  0.00     0.231 HD
ATOM     27  H   SGN d 503      31.259  20.936 149.239  0.00  0.00     0.089 H 
ATOM     28  H   SGN d 503      31.195  18.121 150.637  0.00  0.00     0.140 HD
ATOM     29  H   SGN d 503      31.981  15.303 148.209  0.00  0.00     0.231 HD
ATOM     30  H   SGN d 503      29.265  18.893 151.629  0.00  0.00     0.131 H 
ATOM     31  H   SGN d 503      31.089  21.032 151.232  0.00  0.00     0.212 HD
ATOM     32  H   SGN d 503      29.069  18.888 149.209  0.00  0.00     0.076 H 
ATOM     33  H   SGN d 503      28.383  21.189 148.403  0.00  0.00     0.091 H 
ATOM     34  C4  SGN d 501      26.534  24.968 140.299  0.00  0.00     0.089 C 
ATOM     35  C6  SGN d 501      28.376  23.295 139.889  0.00  0.00     0.067 C 
ATOM     36  O6S SGN d 501      30.685  22.589 137.552  0.00  0.00    -0.572 OA
ATOM     37  S1  SGN d 501      25.569  28.896 143.171  0.00  0.00     0.156 S 
ATOM     38  O6  SGN d 501      29.751  23.665 139.802  0.00  0.00    -0.254 OA
ATOM     39  O5S SGN d 501      29.619  24.754 137.380  0.00  0.00    -0.572 OA
ATOM     40  O3S SGN d 501      25.644  29.343 141.761  0.00  0.00    -0.296 OA
ATOM     41  N   SGN d 501      26.126  27.220 143.303  0.00  0.00    -0.210 NA
ATOM     42  O1  SGN d 501      27.624  24.892 143.721  0.00  0.00    -0.348 OA
ATOM     43  C1  SGN d 501      27.992  25.772 142.661  0.00  0.00     0.150 C 
ATOM     44  C5  SGN d 501      27.661  24.156 140.924  0.00  0.00     0.090 C 
ATOM     45  C3  SGN d 501      25.804  25.733 141.395  0.00  0.00     0.083 C 
ATOM     46  O4S SGN d 501      31.813  24.562 138.380  0.00  0.00    -0.572 OA
ATOM     47  O3  SGN d 501      24.797  26.548 140.827  0.00  0.00    -0.391 OA
ATOM     48  S2  SGN d 501      30.498  23.902 138.214  0.00  0.00     0.251 S 
ATOM     49  C2  SGN d 501      26.795  26.592 142.178  0.00  0.00     0.081 C 
ATOM     50  O2S SGN d 501      24.167  28.988 143.640  0.00  0.00    -0.296 OA
ATOM     51  O4  SGN d 501      25.624  24.095 139.628  0.00  0.00    -0.390 OA
ATOM     52  O5  SGN d 501      28.575  25.048 141.571  0.00  0.00    -0.349 OA
ATOM     53  O1S SGN d 501      26.431  29.763 144.005  0.00  0.00    -0.296 OA
ATOM     54  H   SGN d 501      26.939  25.659 139.589  0.00  0.00     0.091 H 
ATOM     55  H   SGN d 501      27.912  23.432 138.934  0.00  0.00     0.080 H 
ATOM     56  H   SGN d 501      28.309  22.268 140.184  0.00  0.00     0.080 H 
ATOM     57  H   SGN d 501      26.562  29.284 141.452  0.00  0.00     0.231 HD
ATOM     58  H   SGN d 501      25.306  26.652 143.515  0.00  0.00     0.140 HD
ATOM     59  H   SGN d 501      28.726  26.449 143.045  0.00  0.00     0.131 H 
ATOM     60  H   SGN d 501      27.246  23.486 141.646  0.00  0.00     0.090 H 
ATOM     61  H   SGN d 501      25.345  25.035 142.065  0.00  0.00     0.089 H 
ATOM     62  H   SGN d 501      25.203  27.185 140.218  0.00  0.00     0.210 HD
ATOM     63  H   SGN d 501      27.166  27.349 141.520  0.00  0.00     0.076 H 
ATOM     64  H   SGN d 501      24.114  28.695 144.563  0.00  0.00     0.231 HD
ATOM     65  H   SGN d 501      25.252  23.465 140.265  0.00  0.00     0.210 HD
ATOM     66  H   SGN d 501      26.384  29.473 144.930  0.00  0.00     0.231 HD
ATOM     67  O2  IDS d 502      28.603  25.324 148.404  0.00  0.00    -0.244 OA
ATOM     68  C3  IDS d 502      28.079  25.269 146.063  0.00  0.00     0.094 C 
ATOM     69  O2S IDS d 502      31.186  25.310 149.031  0.00  0.00    -0.572 OA
ATOM     70  O1S IDS d 502      29.909  27.278 149.637  0.00  0.00    -0.572 OA
ATOM     71  O5  IDS d 502      29.036  22.619 145.967  0.00  0.00    -0.340 OA
ATOM     72  S   IDS d 502      29.879  25.801 149.529  0.00  0.00     0.252 S 
ATOM     73  C1  IDS d 502      28.831  23.255 147.235  0.00  0.00     0.161 C 
ATOM     74  O61 IDS d 502      29.413  22.090 142.782  0.00  0.00    -0.646 OA
ATOM     75  O62 IDS d 502      27.462  22.247 143.774  0.00  0.00    -0.646 OA
ATOM     76  C5  IDS d 502      29.290  23.398 144.782  0.00  0.00     0.152 C 
ATOM     77  O3  IDS d 502      28.063  26.682 146.084  0.00  0.00    -0.390 OA
ATOM     78  C6  IDS d 502      28.676  22.546 143.680  0.00  0.00     0.206 C 
ATOM     79  O3S IDS d 502      29.613  25.210 150.858  0.00  0.00    -0.572 OA
ATOM     80  C4  IDS d 502      28.626  24.788 144.733  0.00  0.00     0.103 C 
ATOM     81  C2  IDS d 502      28.984  24.756 147.154  0.00  0.00     0.134 C 
ATOM     82  H   IDS d 502      27.081  24.910 146.207  0.00  0.00     0.091 H 
ATOM     83  H   IDS d 502      27.824  23.028 147.516  0.00  0.00     0.133 H 
ATOM     84  H   IDS d 502      30.338  23.604 144.712  0.00  0.00     0.104 H 
ATOM     85  H   IDS d 502      28.964  27.018 145.954  0.00  0.00     0.210 HD
ATOM     86  H   IDS d 502      29.433  25.443 144.479  0.00  0.00     0.092 H 
ATOM     87  H   IDS d 502      29.997  25.023 146.938  0.00  0.00     0.097 H 
ENDROOT
TORSDOF 28
ENDMDL
MODEL 47
REMARK VINA RESULT:      -5.5      3.187     10.527
REMARK  0 active torsions:
REMARK  status: ('A' for Active; 'I' for Inactive)
REMARK       I    between atoms: O3_1  and  C3_18 
REMARK       I    between atoms: O6_2  and  C6_6 
REMARK       I    between atoms: O6_2  and  S2_52 
REMARK       I    between atoms: C4_3  and  O4_50 
REMARK       I    between atoms: C6_4  and  C5_31 
REMARK       I    between atoms: C6_4  and  O6_12 
REMARK       I    between atoms: C6_6  and  C5_15 
REMARK       I    between atoms: O2_7  and  C2_53 
REMARK       I    between atoms: O2_7  and  S_26 
REMARK       I    between atoms: C3_8  and  O3_38 
REMARK       I    between atoms: S1_9  and  N_19 
REMARK       I    between atoms: S1_9  and  O1S_55 
REMARK       I    between atoms: S1_9  and  O2S_49 
REMARK       I    between atoms: S1_9  and  O3S_17 
REMARK       I    between atoms: O6_12  and  S2_45 
REMARK       I    between atoms: O1S_14  and  S1_48 
REMARK       I    between atoms: O3S_16  and  S1_48 
REMARK       I    between atoms: N_19  and  C2_46 
REMARK       I    between atoms: O1_22  and  C1_24 
REMARK       I    between atoms: O1_22  and  C4_41 
REMARK       I    between atoms: N_23  and  C2_47 
REMARK       I    between atoms: N_23  and  S1_48 
REMARK       I    between atoms: O2S_25  and  S1_48 
REMARK       I    between atoms: C1_27  and  O4_44 
REMARK       I    between atoms: C3_34  and  O3_43 
REMARK       I    between atoms: C1_35  and  O1_36 
REMARK       I    between atoms: C5_37  and  C6_39 
REMARK       I    between atoms: O4_44  and  C4_54 
ROOT
ATOM      1  O3  SGN d 503      27.116  26.186 142.538  0.00  0.00    -0.391 OA
ATOM      2  O6  SGN d 503      28.135  28.785 146.279  0.00  0.00    -0.254 OA
ATOM      3  C6  SGN d 503      26.768  28.671 146.657  0.00  0.00     0.067 C 
ATOM      4  O1S SGN d 503      26.781  29.820 139.591  0.00  0.00    -0.296 OA
ATOM      5  C5  SGN d 503      26.003  28.316 145.395  0.00  0.00     0.091 C 
ATOM      6  O3S SGN d 503      27.799  27.660 139.957  0.00  0.00    -0.296 OA
ATOM      7  C3  SGN d 503      26.262  27.054 143.250  0.00  0.00     0.083 C 
ATOM      8  O4S SGN d 503      29.857  28.292 148.219  0.00  0.00    -0.572 OA
ATOM      9  N   SGN d 503      25.530  28.167 141.230  0.00  0.00    -0.210 NA
ATOM     10  O2S SGN d 503      25.794  27.838 138.607  0.00  0.00    -0.296 OA
ATOM     11  O5  SGN d 503      25.890  29.512 144.622  0.00  0.00    -0.350 OA
ATOM     12  O6S SGN d 503      30.395  30.081 146.670  0.00  0.00    -0.572 OA
ATOM     13  O5S SGN d 503      28.650  30.369 148.322  0.00  0.00    -0.572 OA
ATOM     14  C1  SGN d 503      25.296  29.351 143.337  0.00  0.00     0.147 C 
ATOM     15  O1  SGN d 503      23.964  28.861 143.462  0.00  0.00    -0.369 OA
ATOM     16  O4  SGN d 503      26.811  26.055 145.345  0.00  0.00    -0.348 OA
ATOM     17  C2  SGN d 503      26.138  28.381 142.524  0.00  0.00     0.081 C 
ATOM     18  S1  SGN d 503      26.517  28.379 139.783  0.00  0.00     0.156 S 
ATOM     19  S2  SGN d 503      29.314  29.411 147.422  0.00  0.00     0.251 S 
ATOM     20  C4  SGN d 503      26.831  27.291 144.634  0.00  0.00     0.095 C 
ATOM     21  H   SGN d 503      26.754  26.032 141.652  0.00  0.00     0.210 HD
ATOM     22  H   SGN d 503      26.415  29.601 147.053  0.00  0.00     0.080 H 
ATOM     23  H   SGN d 503      26.635  27.927 147.414  0.00  0.00     0.080 H 
ATOM     24  H   SGN d 503      27.254  30.168 140.364  0.00  0.00     0.231 HD
ATOM     25  H   SGN d 503      25.033  27.917 145.606  0.00  0.00     0.090 H 
ATOM     26  H   SGN d 503      28.268  28.017 140.728  0.00  0.00     0.231 HD
ATOM     27  H   SGN d 503      25.293  26.607 143.325  0.00  0.00     0.089 H 
ATOM     28  H   SGN d 503      24.746  28.814 141.155  0.00  0.00     0.140 HD
ATOM     29  H   SGN d 503      26.337  27.955 137.812  0.00  0.00     0.231 HD
ATOM     30  H   SGN d 503      25.256  30.299 142.842  0.00  0.00     0.131 H 
ATOM     31  H   SGN d 503      23.977  28.000 143.909  0.00  0.00     0.212 HD
ATOM     32  H   SGN d 503      27.114  28.800 142.396  0.00  0.00     0.076 H 
ATOM     33  H   SGN d 503      27.829  27.665 144.543  0.00  0.00     0.091 H 
ATOM     34  C4  SGN d 501      34.327  21.699 146.905  0.00  0.00     0.089 C 
ATOM     35  C6  SGN d 501      33.592  21.053 144.580  0.00  0.00     0.067 C 
ATOM     36  O6S SGN d 501      33.769  18.413 142.509  0.00  0.00    -0.572 OA
ATOM     37  S1  SGN d 501      32.383  22.476 151.402  0.00  0.00     0.156 S 
ATOM     38  O6  SGN d 501      32.655  20.007 144.329  0.00  0.00    -0.254 OA
ATOM     39  O5S SGN d 501      34.314  17.989 144.827  0.00  0.00    -0.572 OA
ATOM     40  O3S SGN d 501      33.270  21.293 151.464  0.00  0.00    -0.296 OA
ATOM     41  N   SGN d 501      32.146  22.965 149.716  0.00  0.00    -0.210 NA
ATOM     42  O1  SGN d 501      31.152  23.366 147.130  0.00  0.00    -0.348 OA
ATOM     43  C1  SGN d 501      31.528  22.050 147.531  0.00  0.00     0.150 C 
ATOM     44  C5  SGN d 501      33.223  21.796 145.859  0.00  0.00     0.090 C 
ATOM     45  C3  SGN d 501      33.939  22.535 148.118  0.00  0.00     0.083 C 
ATOM     46  O4S SGN d 501      32.121  17.423 143.977  0.00  0.00    -0.572 OA
ATOM     47  O3  SGN d 501      34.919  22.402 149.129  0.00  0.00    -0.391 OA
ATOM     48  S2  SGN d 501      33.238  18.392 143.892  0.00  0.00     0.251 S 
ATOM     49  C2  SGN d 501      32.578  22.087 148.643  0.00  0.00     0.081 C 
ATOM     50  O2S SGN d 501      33.001  23.591 152.157  0.00  0.00    -0.296 OA
ATOM     51  O4  SGN d 501      35.555  22.180 146.357  0.00  0.00    -0.390 OA
ATOM     52  O5  SGN d 501      32.007  21.289 146.417  0.00  0.00    -0.349 OA
ATOM     53  O1S SGN d 501      31.072  22.136 151.999  0.00  0.00    -0.296 OA
ATOM     54  H   SGN d 501      34.455  20.679 147.199  0.00  0.00     0.091 H 
ATOM     55  H   SGN d 501      34.571  20.633 144.685  0.00  0.00     0.080 H 
ATOM     56  H   SGN d 501      33.575  21.740 143.760  0.00  0.00     0.080 H 
ATOM     57  H   SGN d 501      32.868  20.560 150.971  0.00  0.00     0.231 HD
ATOM     58  H   SGN d 501      32.641  23.848 149.592  0.00  0.00     0.140 HD
ATOM     59  H   SGN d 501      30.653  21.570 147.916  0.00  0.00     0.131 H 
ATOM     60  H   SGN d 501      33.091  22.823 145.590  0.00  0.00     0.090 H 
ATOM     61  H   SGN d 501      33.878  23.564 147.829  0.00  0.00     0.089 H 
ATOM     62  H   SGN d 501      34.982  21.472 149.398  0.00  0.00     0.210 HD
ATOM     63  H   SGN d 501      32.682  21.091 149.022  0.00  0.00     0.076 H 
ATOM     64  H   SGN d 501      32.421  24.369 152.117  0.00  0.00     0.231 HD
ATOM     65  H   SGN d 501      35.448  23.105 146.087  0.00  0.00     0.210 HD
ATOM     66  H   SGN d 501      30.488  22.910 151.960  0.00  0.00     0.231 HD
ATOM     67  O2  IDS d 502      27.084  25.719 148.122  0.00  0.00    -0.244 OA
ATOM     68  C3  IDS d 502      29.119  24.492 147.783  0.00  0.00     0.094 C 
ATOM     69  O2S IDS d 502      24.864  24.593 147.191  0.00  0.00    -0.572 OA
ATOM     70  O1S IDS d 502      25.028  24.903 149.588  0.00  0.00    -0.572 OA
ATOM     71  O5  IDS d 502      28.909  25.017 145.021  0.00  0.00    -0.340 OA
ATOM     72  S   IDS d 502      25.338  25.496 148.267  0.00  0.00     0.252 S 
ATOM     73  C1  IDS d 502      28.056  25.708 145.942  0.00  0.00     0.161 C 
ATOM     74  O61 IDS d 502      30.993  22.893 143.711  0.00  0.00    -0.646 OA
ATOM     75  O62 IDS d 502      31.606  24.658 144.860  0.00  0.00    -0.646 OA
ATOM     76  C5  IDS d 502      29.467  23.730 145.353  0.00  0.00     0.152 C 
ATOM     77  O3  IDS d 502      28.912  23.897 149.047  0.00  0.00    -0.390 OA
ATOM     78  C6  IDS d 502      30.795  23.735 144.610  0.00  0.00     0.206 C 
ATOM     79  O3S IDS d 502      24.660  26.804 148.138  0.00  0.00    -0.572 OA
ATOM     80  C4  IDS d 502      29.758  23.486 146.847  0.00  0.00     0.103 C 
ATOM     81  C2  IDS d 502      27.794  24.904 147.194  0.00  0.00     0.134 C 
ATOM     82  H   IDS d 502      29.754  25.346 147.903  0.00  0.00     0.091 H 
ATOM     83  H   IDS d 502      28.581  26.600 146.212  0.00  0.00     0.133 H 
ATOM     84  H   IDS d 502      28.766  22.963 145.093  0.00  0.00     0.104 H 
ATOM     85  H   IDS d 502      28.337  23.122 148.950  0.00  0.00     0.210 HD
ATOM     86  H   IDS d 502      29.290  22.544 147.043  0.00  0.00     0.092 H 
ATOM     87  H   IDS d 502      27.213  24.034 146.971  0.00  0.00     0.097 H 
ENDROOT
TORSDOF 28
ENDMDL
MODEL 48
REMARK VINA RESULT:      -5.4      4.031      9.045
REMARK  0 active torsions:
REMARK  status: ('A' for Active; 'I' for Inactive)
REMARK       I    between atoms: O3_1  and  C3_18 
REMARK       I    between atoms: O6_2  and  C6_6 
REMARK       I    between atoms: O6_2  and  S2_52 
REMARK       I    between atoms: C4_3  and  O4_50 
REMARK       I    between atoms: C6_4  and  C5_31 
REMARK       I    between atoms: C6_4  and  O6_12 
REMARK       I    between atoms: C6_6  and  C5_15 
REMARK       I    between atoms: O2_7  and  C2_53 
REMARK       I    between atoms: O2_7  and  S_26 
REMARK       I    between atoms: C3_8  and  O3_38 
REMARK       I    between atoms: S1_9  and  N_19 
REMARK       I    between atoms: S1_9  and  O1S_55 
REMARK       I    between atoms: S1_9  and  O2S_49 
REMARK       I    between atoms: S1_9  and  O3S_17 
REMARK       I    between atoms: O6_12  and  S2_45 
REMARK       I    between atoms: O1S_14  and  S1_48 
REMARK       I    between atoms: O3S_16  and  S1_48 
REMARK       I    between atoms: N_19  and  C2_46 
REMARK       I    between atoms: O1_22  and  C1_24 
REMARK       I    between atoms: O1_22  and  C4_41 
REMARK       I    between atoms: N_23  and  C2_47 
REMARK       I    between atoms: N_23  and  S1_48 
REMARK       I    between atoms: O2S_25  and  S1_48 
REMARK       I    between atoms: C1_27  and  O4_44 
REMARK       I    between atoms: C3_34  and  O3_43 
REMARK       I    between atoms: C1_35  and  O1_36 
REMARK       I    between atoms: C5_37  and  C6_39 
REMARK       I    between atoms: O4_44  and  C4_54 
ROOT
ATOM      1  O3  SGN d 503      28.064  23.909 148.454  0.00  0.00    -0.391 OA
ATOM      2  O6  SGN d 503      24.463  26.856 148.086  0.00  0.00    -0.254 OA
ATOM      3  C6  SGN d 503      25.259  27.820 148.766  0.00  0.00     0.067 C 
ATOM      4  O1S SGN d 503      26.339  21.613 152.165  0.00  0.00    -0.296 OA
ATOM      5  C5  SGN d 503      26.331  27.044 149.507  0.00  0.00     0.091 C 
ATOM      6  O3S SGN d 503      27.259  21.372 149.944  0.00  0.00    -0.296 OA
ATOM      7  C3  SGN d 503      27.722  24.973 149.316  0.00  0.00     0.083 C 
ATOM      8  O4S SGN d 503      23.271  27.750 145.907  0.00  0.00    -0.572 OA
ATOM      9  N   SGN d 503      27.879  23.573 151.284  0.00  0.00    -0.210 NA
ATOM     10  O2S SGN d 503      28.693  21.116 151.880  0.00  0.00    -0.296 OA
ATOM     11  O5  SGN d 503      25.711  26.464 150.656  0.00  0.00    -0.350 OA
ATOM     12  O6S SGN d 503      22.031  26.207 147.310  0.00  0.00    -0.572 OA
ATOM     13  O5S SGN d 503      22.397  28.491 148.021  0.00  0.00    -0.572 OA
ATOM     14  C1  SGN d 503      26.542  25.597 151.423  0.00  0.00     0.147 C 
ATOM     15  O1  SGN d 503      27.671  26.304 151.925  0.00  0.00    -0.369 OA
ATOM     16  O4  SGN d 503      27.568  26.527 147.514  0.00  0.00    -0.348 OA
ATOM     17  C2  SGN d 503      26.996  24.445 150.540  0.00  0.00     0.081 C 
ATOM     18  S1  SGN d 503      27.530  21.844 151.320  0.00  0.00     0.156 S 
ATOM     19  S2  SGN d 503      22.972  27.346 147.296  0.00  0.00     0.251 S 
ATOM     20  C4  SGN d 503      26.821  25.942 148.579  0.00  0.00     0.095 C 
ATOM     21  H   SGN d 503      28.640  23.286 148.923  0.00  0.00     0.210 HD
ATOM     22  H   SGN d 503      24.659  28.374 149.457  0.00  0.00     0.080 H 
ATOM     23  H   SGN d 503      25.690  28.519 148.080  0.00  0.00     0.080 H 
ATOM     24  H   SGN d 503      25.581  22.092 151.793  0.00  0.00     0.231 HD
ATOM     25  H   SGN d 503      27.153  27.664 149.801  0.00  0.00     0.090 H 
ATOM     26  H   SGN d 503      26.498  21.851 149.581  0.00  0.00     0.231 HD
ATOM     27  H   SGN d 503      28.616  25.470 149.629  0.00  0.00     0.089 H 
ATOM     28  H   SGN d 503      27.878  23.899 152.250  0.00  0.00     0.140 HD
ATOM     29  H   SGN d 503      28.502  20.166 151.900  0.00  0.00     0.231 HD
ATOM     30  H   SGN d 503      25.989  25.217 152.256  0.00  0.00     0.131 H 
ATOM     31  H   SGN d 503      28.188  26.657 151.184  0.00  0.00     0.212 HD
ATOM     32  H   SGN d 503      26.134  23.896 150.224  0.00  0.00     0.076 H 
ATOM     33  H   SGN d 503      25.969  25.414 148.204  0.00  0.00     0.091 H 
ATOM     34  C4  SGN d 501      25.938  24.229 139.150  0.00  0.00     0.089 C 
ATOM     35  C6  SGN d 501      27.506  22.486 140.081  0.00  0.00     0.067 C 
ATOM     36  O6S SGN d 501      29.963  20.458 139.012  0.00  0.00    -0.572 OA
ATOM     37  S1  SGN d 501      25.268  29.143 139.243  0.00  0.00     0.156 S 
ATOM     38  O6  SGN d 501      28.923  22.654 140.103  0.00  0.00    -0.254 OA
ATOM     39  O5S SGN d 501      29.317  22.238 137.506  0.00  0.00    -0.572 OA
ATOM     40  O3S SGN d 501      25.613  28.735 137.862  0.00  0.00    -0.296 OA
ATOM     41  N   SGN d 501      25.507  27.783 140.352  0.00  0.00    -0.210 NA
ATOM     42  O1  SGN d 501      26.512  25.974 142.237  0.00  0.00    -0.348 OA
ATOM     43  C1  SGN d 501      27.169  26.098 140.977  0.00  0.00     0.150 C 
ATOM     44  C5  SGN d 501      26.812  23.821 140.329  0.00  0.00     0.090 C 
ATOM     45  C3  SGN d 501      25.204  25.518 139.497  0.00  0.00     0.083 C 
ATOM     46  O4S SGN d 501      31.285  22.480 138.890  0.00  0.00    -0.572 OA
ATOM     47  O3  SGN d 501      24.440  25.951 138.388  0.00  0.00    -0.391 OA
ATOM     48  S2  SGN d 501      29.912  21.928 138.826  0.00  0.00     0.251 S 
ATOM     49  C2  SGN d 501      26.208  26.596 139.897  0.00  0.00     0.081 C 
ATOM     50  O2S SGN d 501      23.850  29.572 139.286  0.00  0.00    -0.296 OA
ATOM     51  O4  SGN d 501      24.994  23.194 138.867  0.00  0.00    -0.390 OA
ATOM     52  O5  SGN d 501      27.765  24.858 140.583  0.00  0.00    -0.349 OA
ATOM     53  O1S SGN d 501      26.141  30.266 139.654  0.00  0.00    -0.296 OA
ATOM     54  H   SGN d 501      26.549  24.386 138.286  0.00  0.00     0.091 H 
ATOM     55  H   SGN d 501      27.210  22.107 139.125  0.00  0.00     0.080 H 
ATOM     56  H   SGN d 501      27.225  21.798 140.850  0.00  0.00     0.080 H 
ATOM     57  H   SGN d 501      26.541  28.454 137.831  0.00  0.00     0.231 HD
ATOM     58  H   SGN d 501      24.580  27.481 140.654  0.00  0.00     0.140 HD
ATOM     59  H   SGN d 501      27.947  26.825 141.091  0.00  0.00     0.131 H 
ATOM     60  H   SGN d 501      26.192  23.688 141.190  0.00  0.00     0.090 H 
ATOM     61  H   SGN d 501      24.544  25.335 140.320  0.00  0.00     0.089 H 
ATOM     62  H   SGN d 501      25.029  26.120 137.636  0.00  0.00     0.210 HD
ATOM     63  H   SGN d 501      26.791  26.840 139.034  0.00  0.00     0.076 H 
ATOM     64  H   SGN d 501      23.621  29.840 140.190  0.00  0.00     0.231 HD
ATOM     65  H   SGN d 501      24.436  23.045 139.646  0.00  0.00     0.210 HD
ATOM     66  H   SGN d 501      25.917  30.536 140.559  0.00  0.00     0.231 HD
ATOM     67  O2  IDS d 502      26.890  28.842 146.071  0.00  0.00    -0.244 OA
ATOM     68  C3  IDS d 502      26.695  27.545 144.062  0.00  0.00     0.094 C 
ATOM     69  O2S IDS d 502      29.320  29.001 147.137  0.00  0.00    -0.572 OA
ATOM     70  O1S IDS d 502      28.326  31.059 146.332  0.00  0.00    -0.572 OA
ATOM     71  O5  IDS d 502      27.189  25.221 145.581  0.00  0.00    -0.340 OA
ATOM     72  S   IDS d 502      28.060  29.772 147.014  0.00  0.00     0.252 S 
ATOM     73  C1  IDS d 502      26.922  26.462 146.247  0.00  0.00     0.161 C 
ATOM     74  O61 IDS d 502      27.910  23.004 143.316  0.00  0.00    -0.646 OA
ATOM     75  O62 IDS d 502      25.896  23.811 143.641  0.00  0.00    -0.646 OA
ATOM     76  C5  IDS d 502      27.734  25.201 144.247  0.00  0.00     0.152 C 
ATOM     77  O3  IDS d 502      26.917  28.734 143.332  0.00  0.00    -0.390 OA
ATOM     78  C6  IDS d 502      27.144  23.927 143.660  0.00  0.00     0.206 C 
ATOM     79  O3S IDS d 502      27.514  30.029 148.365  0.00  0.00    -0.572 OA
ATOM     80  C4  IDS d 502      27.331  26.377 143.336  0.00  0.00     0.103 C 
ATOM     81  C2  IDS d 502      27.338  27.657 145.421  0.00  0.00     0.134 C 
ATOM     82  H   IDS d 502      25.640  27.392 144.161  0.00  0.00     0.091 H 
ATOM     83  H   IDS d 502      25.861  26.495 146.387  0.00  0.00     0.133 H 
ATOM     84  H   IDS d 502      28.802  25.264 144.301  0.00  0.00     0.104 H 
ATOM     85  H   IDS d 502      27.871  28.881 143.236  0.00  0.00     0.210 HD
ATOM     86  H   IDS d 502      28.266  26.727 142.950  0.00  0.00     0.092 H 
ATOM     87  H   IDS d 502      28.402  27.692 145.315  0.00  0.00     0.097 H 
ENDROOT
TORSDOF 28
ENDMDL
MODEL 49
REMARK VINA RESULT:      -5.4      4.419      7.639
REMARK  0 active torsions:
REMARK  status: ('A' for Active; 'I' for Inactive)
REMARK       I    between atoms: O3_1  and  C3_18 
REMARK       I    between atoms: O6_2  and  C6_6 
REMARK       I    between atoms: O6_2  and  S2_52 
REMARK       I    between atoms: C4_3  and  O4_50 
REMARK       I    between atoms: C6_4  and  C5_31 
REMARK       I    between atoms: C6_4  and  O6_12 
REMARK       I    between atoms: C6_6  and  C5_15 
REMARK       I    between atoms: O2_7  and  C2_53 
REMARK       I    between atoms: O2_7  and  S_26 
REMARK       I    between atoms: C3_8  and  O3_38 
REMARK       I    between atoms: S1_9  and  N_19 
REMARK       I    between atoms: S1_9  and  O1S_55 
REMARK       I    between atoms: S1_9  and  O2S_49 
REMARK       I    between atoms: S1_9  and  O3S_17 
REMARK       I    between atoms: O6_12  and  S2_45 
REMARK       I    between atoms: O1S_14  and  S1_48 
REMARK       I    between atoms: O3S_16  and  S1_48 
REMARK       I    between atoms: N_19  and  C2_46 
REMARK       I    between atoms: O1_22  and  C1_24 
REMARK       I    between atoms: O1_22  and  C4_41 
REMARK       I    between atoms: N_23  and  C2_47 
REMARK       I    between atoms: N_23  and  S1_48 
REMARK       I    between atoms: O2S_25  and  S1_48 
REMARK       I    between atoms: C1_27  and  O4_44 
REMARK       I    between atoms: C3_34  and  O3_43 
REMARK       I    between atoms: C1_35  and  O1_36 
REMARK       I    between atoms: C5_37  and  C6_39 
REMARK       I    between atoms: O4_44  and  C4_54 
ROOT
ATOM      1  O3  SGN d 503      27.432  19.520 145.649  0.00  0.00    -0.391 OA
ATOM      2  O6  SGN d 503      31.417  18.938 143.289  0.00  0.00    -0.254 OA
ATOM      3  C6  SGN d 503      30.688  19.230 142.102  0.00  0.00     0.067 C 
ATOM      4  O1S SGN d 503      26.489  14.938 146.001  0.00  0.00    -0.296 OA
ATOM      5  C5  SGN d 503      29.228  18.969 142.422  0.00  0.00     0.091 C 
ATOM      6  O3S SGN d 503      26.712  17.010 147.225  0.00  0.00    -0.296 OA
ATOM      7  C3  SGN d 503      27.596  19.091 144.315  0.00  0.00     0.083 C 
ATOM      8  O4S SGN d 503      33.694  20.253 143.533  0.00  0.00    -0.572 OA
ATOM      9  N   SGN d 503      26.150  17.178 144.640  0.00  0.00    -0.210 NA
ATOM     10  O2S SGN d 503      24.521  16.250 146.521  0.00  0.00    -0.296 OA
ATOM     11  O5  SGN d 503      29.043  17.552 142.417  0.00  0.00    -0.350 OA
ATOM     12  O6S SGN d 503      33.647  17.944 144.277  0.00  0.00    -0.572 OA
ATOM     13  O5S SGN d 503      33.619  18.475 141.916  0.00  0.00    -0.572 OA
ATOM     14  C1  SGN d 503      27.749  17.107 142.812  0.00  0.00     0.147 C 
ATOM     15  O1  SGN d 503      26.755  17.615 141.927  0.00  0.00    -0.369 OA
ATOM     16  O4  SGN d 503      29.002  20.940 143.776  0.00  0.00    -0.348 OA
ATOM     17  C2  SGN d 503      27.478  17.581 144.232  0.00  0.00     0.081 C 
ATOM     18  S1  SGN d 503      25.957  16.308 146.162  0.00  0.00     0.156 S 
ATOM     19  S2  SGN d 503      33.174  18.898 143.254  0.00  0.00     0.251 S 
ATOM     20  C4  SGN d 503      28.962  19.515 143.818  0.00  0.00     0.095 C 
ATOM     21  H   SGN d 503      26.558  19.250 145.971  0.00  0.00     0.210 HD
ATOM     22  H   SGN d 503      31.011  18.594 141.304  0.00  0.00     0.080 H 
ATOM     23  H   SGN d 503      30.842  20.241 141.791  0.00  0.00     0.080 H 
ATOM     24  H   SGN d 503      27.430  14.982 145.767  0.00  0.00     0.231 HD
ATOM     25  H   SGN d 503      28.568  19.432 141.719  0.00  0.00     0.090 H 
ATOM     26  H   SGN d 503      27.651  17.045 146.985  0.00  0.00     0.231 HD
ATOM     27  H   SGN d 503      26.833  19.534 143.710  0.00  0.00     0.089 H 
ATOM     28  H   SGN d 503      25.778  16.578 143.903  0.00  0.00     0.140 HD
ATOM     29  H   SGN d 503      24.415  15.772 147.359  0.00  0.00     0.231 HD
ATOM     30  H   SGN d 503      27.712  16.038 142.774  0.00  0.00     0.131 H 
ATOM     31  H   SGN d 503      26.770  18.585 141.947  0.00  0.00     0.212 HD
ATOM     32  H   SGN d 503      28.202  17.137 144.883  0.00  0.00     0.076 H 
ATOM     33  H   SGN d 503      29.711  19.130 144.478  0.00  0.00     0.091 H 
ATOM     34  C4  SGN d 501      33.727  25.433 149.724  0.00  0.00     0.089 C 
ATOM     35  C6  SGN d 501      31.501  24.938 150.802  0.00  0.00     0.067 C 
ATOM     36  O6S SGN d 501      29.406  26.316 153.039  0.00  0.00    -0.572 OA
ATOM     37  S1  SGN d 501      35.571  26.851 145.343  0.00  0.00     0.156 S 
ATOM     38  O6  SGN d 501      30.351  25.759 150.611  0.00  0.00    -0.254 OA
ATOM     39  O5S SGN d 501      31.145  27.759 152.175  0.00  0.00    -0.572 OA
ATOM     40  O3S SGN d 501      35.829  27.918 146.336  0.00  0.00    -0.296 OA
ATOM     41  N   SGN d 501      34.476  25.640 146.028  0.00  0.00    -0.210 NA
ATOM     42  O1  SGN d 501      32.248  24.098 146.735  0.00  0.00    -0.348 OA
ATOM     43  C1  SGN d 501      32.332  25.446 147.194  0.00  0.00     0.150 C 
ATOM     44  C5  SGN d 501      32.324  24.876 149.520  0.00  0.00     0.090 C 
ATOM     45  C3  SGN d 501      34.525  25.259 148.438  0.00  0.00     0.083 C 
ATOM     46  O4S SGN d 501      28.903  27.892 151.275  0.00  0.00    -0.572 OA
ATOM     47  O3  SGN d 501      35.809  25.833 148.585  0.00  0.00    -0.391 OA
ATOM     48  S2  SGN d 501      29.934  26.981 151.824  0.00  0.00     0.251 S 
ATOM     49  C2  SGN d 501      33.785  25.916 147.275  0.00  0.00     0.081 C 
ATOM     50  O2S SGN d 501      36.852  26.205 144.974  0.00  0.00    -0.296 OA
ATOM     51  O4  SGN d 501      34.372  24.739 150.793  0.00  0.00    -0.390 OA
ATOM     52  O5  SGN d 501      31.685  25.599 148.462  0.00  0.00    -0.349 OA
ATOM     53  O1S SGN d 501      34.947  27.445 144.138  0.00  0.00    -0.296 OA
ATOM     54  H   SGN d 501      33.669  26.472 149.972  0.00  0.00     0.091 H 
ATOM     55  H   SGN d 501      32.102  25.347 151.588  0.00  0.00     0.080 H 
ATOM     56  H   SGN d 501      31.185  23.949 151.061  0.00  0.00     0.080 H 
ATOM     57  H   SGN d 501      34.991  28.343 146.579  0.00  0.00     0.231 HD
ATOM     58  H   SGN d 501      35.026  24.794 146.176  0.00  0.00     0.140 HD
ATOM     59  H   SGN d 501      31.823  26.060 146.481  0.00  0.00     0.131 H 
ATOM     60  H   SGN d 501      32.398  23.843 149.252  0.00  0.00     0.090 H 
ATOM     61  H   SGN d 501      34.635  24.214 148.233  0.00  0.00     0.089 H 
ATOM     62  H   SGN d 501      35.719  26.781 148.771  0.00  0.00     0.210 HD
ATOM     63  H   SGN d 501      33.773  26.972 147.446  0.00  0.00     0.076 H 
ATOM     64  H   SGN d 501      36.686  25.505 144.323  0.00  0.00     0.231 HD
ATOM     65  H   SGN d 501      34.429  23.795 150.577  0.00  0.00     0.210 HD
ATOM     66  H   SGN d 501      34.777  26.748 143.484  0.00  0.00     0.231 HD
ATOM     67  O2  IDS d 502      30.881  22.521 142.409  0.00  0.00    -0.244 OA
ATOM     68  C3  IDS d 502      31.651  23.427 144.494  0.00  0.00     0.094 C 
ATOM     69  O2S IDS d 502      28.384  23.113 141.720  0.00  0.00    -0.572 OA
ATOM     70  O1S IDS d 502      30.154  23.948 140.292  0.00  0.00    -0.572 OA
ATOM     71  O5  IDS d 502      29.887  21.685 145.837  0.00  0.00    -0.340 OA
ATOM     72  S   IDS d 502      29.704  22.807 141.122  0.00  0.00     0.252 S 
ATOM     73  C1  IDS d 502      30.128  21.509 144.436  0.00  0.00     0.161 C 
ATOM     74  O61 IDS d 502      29.763  22.936 148.835  0.00  0.00    -0.646 OA
ATOM     75  O62 IDS d 502      31.512  21.896 148.014  0.00  0.00    -0.646 OA
ATOM     76  C5  IDS d 502      30.060  22.972 146.461  0.00  0.00     0.152 C 
ATOM     77  O3  IDS d 502      32.133  24.542 143.774  0.00  0.00    -0.390 OA
ATOM     78  C6  IDS d 502      30.489  22.608 147.875  0.00  0.00     0.206 C 
ATOM     79  O3S IDS d 502      29.588  21.596 140.281  0.00  0.00    -0.572 OA
ATOM     80  C4  IDS d 502      31.149  23.877 145.851  0.00  0.00     0.103 C 
ATOM     81  C2  IDS d 502      30.496  22.805 143.750  0.00  0.00     0.134 C 
ATOM     82  H   IDS d 502      32.445  22.718 144.606  0.00  0.00     0.091 H 
ATOM     83  H   IDS d 502      30.958  20.837 144.365  0.00  0.00     0.133 H 
ATOM     84  H   IDS d 502      29.158  23.540 146.357  0.00  0.00     0.104 H 
ATOM     85  H   IDS d 502      31.420  25.191 143.666  0.00  0.00     0.210 HD
ATOM     86  H   IDS d 502      30.645  24.808 145.699  0.00  0.00     0.092 H 
ATOM     87  H   IDS d 502      29.665  23.479 143.745  0.00  0.00     0.097 H 
ENDROOT
TORSDOF 28
ENDMDL
MODEL 50
REMARK VINA RESULT:      -5.4      3.423      9.376
REMARK  0 active torsions:
REMARK  status: ('A' for Active; 'I' for Inactive)
REMARK       I    between atoms: O3_1  and  C3_18 
REMARK       I    between atoms: O6_2  and  C6_6 
REMARK       I    between atoms: O6_2  and  S2_52 
REMARK       I    between atoms: C4_3  and  O4_50 
REMARK       I    between atoms: C6_4  and  C5_31 
REMARK       I    between atoms: C6_4  and  O6_12 
REMARK       I    between atoms: C6_6  and  C5_15 
REMARK       I    between atoms: O2_7  and  C2_53 
REMARK       I    between atoms: O2_7  and  S_26 
REMARK       I    between atoms: C3_8  and  O3_38 
REMARK       I    between atoms: S1_9  and  N_19 
REMARK       I    between atoms: S1_9  and  O1S_55 
REMARK       I    between atoms: S1_9  and  O2S_49 
REMARK       I    between atoms: S1_9  and  O3S_17 
REMARK       I    between atoms: O6_12  and  S2_45 
REMARK       I    between atoms: O1S_14  and  S1_48 
REMARK       I    between atoms: O3S_16  and  S1_48 
REMARK       I    between atoms: N_19  and  C2_46 
REMARK       I    between atoms: O1_22  and  C1_24 
REMARK       I    between atoms: O1_22  and  C4_41 
REMARK       I    between atoms: N_23  and  C2_47 
REMARK       I    between atoms: N_23  and  S1_48 
REMARK       I    between atoms: O2S_25  and  S1_48 
REMARK       I    between atoms: C1_27  and  O4_44 
REMARK       I    between atoms: C3_34  and  O3_43 
REMARK       I    between atoms: C1_35  and  O1_36 
REMARK       I    between atoms: C5_37  and  C6_39 
REMARK       I    between atoms: O4_44  and  C4_54 
ROOT
ATOM      1  O3  SGN d 503      29.165  27.454 145.831  0.00  0.00    -0.391 OA
ATOM      2  O6  SGN d 503      24.537  26.852 145.818  0.00  0.00    -0.254 OA
ATOM      3  C6  SGN d 503      24.482  27.749 144.715  0.00  0.00     0.067 C 
ATOM      4  O1S SGN d 503      29.164  30.574 149.335  0.00  0.00    -0.296 OA
ATOM      5  C5  SGN d 503      25.764  28.560 144.760  0.00  0.00     0.091 C 
ATOM      6  O3S SGN d 503      30.128  28.511 148.525  0.00  0.00    -0.296 OA
ATOM      7  C3  SGN d 503      28.173  28.363 145.406  0.00  0.00     0.083 C 
ATOM      8  O4S SGN d 503      23.157  24.624 145.494  0.00  0.00    -0.572 OA
ATOM      9  N   SGN d 503      29.105  30.165 146.725  0.00  0.00    -0.210 NA
ATOM     10  O2S SGN d 503      31.288  30.609 148.170  0.00  0.00    -0.296 OA
ATOM     11  O5  SGN d 503      25.613  29.527 145.800  0.00  0.00    -0.350 OA
ATOM     12  O6S SGN d 503      23.148  25.637 147.699  0.00  0.00    -0.572 OA
ATOM     13  O5S SGN d 503      21.910  26.643 145.880  0.00  0.00    -0.572 OA
ATOM     14  C1  SGN d 503      26.770  30.314 146.071  0.00  0.00     0.147 C 
ATOM     15  O1  SGN d 503      27.144  31.062 144.918  0.00  0.00    -0.369 OA
ATOM     16  O4  SGN d 503      27.136  26.741 143.999  0.00  0.00    -0.348 OA
ATOM     17  C2  SGN d 503      27.905  29.392 146.488  0.00  0.00     0.081 C 
ATOM     18  S1  SGN d 503      29.960  29.957 148.253  0.00  0.00     0.156 S 
ATOM     19  S2  SGN d 503      23.125  25.896 146.245  0.00  0.00     0.251 S 
ATOM     20  C4  SGN d 503      26.896  27.604 145.108  0.00  0.00     0.095 C 
ATOM     21  H   SGN d 503      29.984  27.936 146.023  0.00  0.00     0.210 HD
ATOM     22  H   SGN d 503      23.633  28.394 144.805  0.00  0.00     0.080 H 
ATOM     23  H   SGN d 503      24.389  27.221 143.790  0.00  0.00     0.080 H 
ATOM     24  H   SGN d 503      28.296  30.143 149.385  0.00  0.00     0.231 HD
ATOM     25  H   SGN d 503      25.971  29.046 143.829  0.00  0.00     0.090 H 
ATOM     26  H   SGN d 503      29.256  28.089 148.578  0.00  0.00     0.231 HD
ATOM     27  H   SGN d 503      28.514  28.865 144.525  0.00  0.00     0.089 H 
ATOM     28  H   SGN d 503      28.846  31.149 146.658  0.00  0.00     0.140 HD
ATOM     29  H   SGN d 503      31.759  30.494 149.011  0.00  0.00     0.231 HD
ATOM     30  H   SGN d 503      26.555  31.004 146.860  0.00  0.00     0.131 H 
ATOM     31  H   SGN d 503      27.344  30.455 144.189  0.00  0.00     0.212 HD
ATOM     32  H   SGN d 503      27.622  28.887 147.387  0.00  0.00     0.076 H 
ATOM     33  H   SGN d 503      26.610  27.045 145.974  0.00  0.00     0.091 H 
ATOM     34  C4  SGN d 501      27.797  18.024 145.210  0.00  0.00     0.089 C 
ATOM     35  C6  SGN d 501      30.073  18.992 145.704  0.00  0.00     0.067 C 
ATOM     36  O6S SGN d 501      33.307  18.105 145.481  0.00  0.00    -0.572 OA
ATOM     37  S1  SGN d 501      24.095  18.549 141.951  0.00  0.00     0.156 S 
ATOM     38  O6  SGN d 501      31.039  19.254 144.687  0.00  0.00    -0.254 OA
ATOM     39  O5S SGN d 501      31.734  16.721 144.271  0.00  0.00    -0.572 OA
ATOM     40  O3S SGN d 501      24.689  17.204 141.784  0.00  0.00    -0.296 OA
ATOM     41  N   SGN d 501      25.105  19.526 143.029  0.00  0.00    -0.210 NA
ATOM     42  O1  SGN d 501      26.950  21.335 144.105  0.00  0.00    -0.348 OA
ATOM     43  C1  SGN d 501      27.430  20.215 143.364  0.00  0.00     0.150 C 
ATOM     44  C5  SGN d 501      28.668  19.273 145.184  0.00  0.00     0.090 C 
ATOM     45  C3  SGN d 501      26.386  18.390 144.768  0.00  0.00     0.083 C 
ATOM     46  O4S SGN d 501      33.004  18.415 143.101  0.00  0.00    -0.572 OA
ATOM     47  O3  SGN d 501      25.579  17.230 144.719  0.00  0.00    -0.391 OA
ATOM     48  S2  SGN d 501      32.323  18.076 144.372  0.00  0.00     0.251 S 
ATOM     49  C2  SGN d 501      26.429  19.059 143.396  0.00  0.00     0.081 C 
ATOM     50  O2S SGN d 501      22.738  18.417 142.531  0.00  0.00    -0.296 OA
ATOM     51  O4  SGN d 501      27.766  17.484 146.533  0.00  0.00    -0.390 OA
ATOM     52  O5  SGN d 501      28.706  19.786 143.848  0.00  0.00    -0.349 OA
ATOM     53  O1S SGN d 501      24.009  19.213 140.630  0.00  0.00    -0.296 OA
ATOM     54  H   SGN d 501      28.201  17.289 144.546  0.00  0.00     0.091 H 
ATOM     55  H   SGN d 501      30.141  17.965 146.000  0.00  0.00     0.080 H 
ATOM     56  H   SGN d 501      30.268  19.627 146.542  0.00  0.00     0.080 H 
ATOM     57  H   SGN d 501      25.577  17.287 141.404  0.00  0.00     0.231 HD
ATOM     58  H   SGN d 501      24.582  19.643 143.897  0.00  0.00     0.140 HD
ATOM     59  H   SGN d 501      27.543  20.529 142.347  0.00  0.00     0.131 H 
ATOM     60  H   SGN d 501      28.241  20.006 145.835  0.00  0.00     0.090 H 
ATOM     61  H   SGN d 501      25.964  19.075 145.474  0.00  0.00     0.089 H 
ATOM     62  H   SGN d 501      25.953  16.603 144.080  0.00  0.00     0.210 HD
ATOM     63  H   SGN d 501      26.756  18.330 142.684  0.00  0.00     0.076 H 
ATOM     64  H   SGN d 501      22.346  19.297 142.642  0.00  0.00     0.231 HD
ATOM     65  H   SGN d 501      27.400  18.145 147.142  0.00  0.00     0.210 HD
ATOM     66  H   SGN d 501      23.619  20.095 140.736  0.00  0.00     0.231 HD
ATOM     67  O2  IDS d 502      25.189  25.473 142.417  0.00  0.00    -0.244 OA
ATOM     68  C3  IDS d 502      25.980  23.328 143.145  0.00  0.00     0.094 C 
ATOM     69  O2S IDS d 502      26.878  26.917 140.960  0.00  0.00    -0.572 OA
ATOM     70  O1S IDS d 502      24.828  26.197 139.889  0.00  0.00    -0.572 OA
ATOM     71  O5  IDS d 502      27.789  24.641 144.863  0.00  0.00    -0.340 OA
ATOM     72  S   IDS d 502      25.427  26.684 141.152  0.00  0.00     0.252 S 
ATOM     73  C1  IDS d 502      26.749  25.389 144.222  0.00  0.00     0.161 C 
ATOM     74  O61 IDS d 502      29.886  22.287 145.658  0.00  0.00    -0.646 OA
ATOM     75  O62 IDS d 502      27.817  22.379 146.383  0.00  0.00    -0.646 OA
ATOM     76  C5  IDS d 502      28.282  23.415 144.287  0.00  0.00     0.152 C 
ATOM     77  O3  IDS d 502      25.413  22.776 141.975  0.00  0.00    -0.390 OA
ATOM     78  C6  IDS d 502      28.689  22.607 145.511  0.00  0.00     0.206 C 
ATOM     79  O3S IDS d 502      24.781  27.952 141.554  0.00  0.00    -0.572 OA
ATOM     80  C4  IDS d 502      27.257  22.586 143.488  0.00  0.00     0.103 C 
ATOM     81  C2  IDS d 502      26.329  24.775 142.906  0.00  0.00     0.134 C 
ATOM     82  H   IDS d 502      25.274  23.243 143.944  0.00  0.00     0.091 H 
ATOM     83  H   IDS d 502      25.915  25.363 144.892  0.00  0.00     0.133 H 
ATOM     84  H   IDS d 502      29.049  23.642 143.576  0.00  0.00     0.104 H 
ATOM     85  H   IDS d 502      26.046  22.848 141.243  0.00  0.00     0.210 HD
ATOM     86  H   IDS d 502      27.758  22.393 142.563  0.00  0.00     0.092 H 
ATOM     87  H   IDS d 502      27.120  24.841 142.188  0.00  0.00     0.097 H 
ENDROOT
TORSDOF 28
ENDMDL
MODEL 51
REMARK VINA RESULT:      -5.4      3.658      7.201
REMARK  0 active torsions:
REMARK  status: ('A' for Active; 'I' for Inactive)
REMARK       I    between atoms: O3_1  and  C3_18 
REMARK       I    between atoms: O6_2  and  C6_6 
REMARK       I    between atoms: O6_2  and  S2_52 
REMARK       I    between atoms: C4_3  and  O4_50 
REMARK       I    between atoms: C6_4  and  C5_31 
REMARK       I    between atoms: C6_4  and  O6_12 
REMARK       I    between atoms: C6_6  and  C5_15 
REMARK       I    between atoms: O2_7  and  C2_53 
REMARK       I    between atoms: O2_7  and  S_26 
REMARK       I    between atoms: C3_8  and  O3_38 
REMARK       I    between atoms: S1_9  and  N_19 
REMARK       I    between atoms: S1_9  and  O1S_55 
REMARK       I    between atoms: S1_9  and  O2S_49 
REMARK       I    between atoms: S1_9  and  O3S_17 
REMARK       I    between atoms: O6_12  and  S2_45 
REMARK       I    between atoms: O1S_14  and  S1_48 
REMARK       I    between atoms: O3S_16  and  S1_48 
REMARK       I    between atoms: N_19  and  C2_46 
REMARK       I    between atoms: O1_22  and  C1_24 
REMARK       I    between atoms: O1_22  and  C4_41 
REMARK       I    between atoms: N_23  and  C2_47 
REMARK       I    between atoms: N_23  and  S1_48 
REMARK       I    between atoms: O2S_25  and  S1_48 
REMARK       I    between atoms: C1_27  and  O4_44 
REMARK       I    between atoms: C3_34  and  O3_43 
REMARK       I    between atoms: C1_35  and  O1_36 
REMARK       I    between atoms: C5_37  and  C6_39 
REMARK       I    between atoms: O4_44  and  C4_54 
ROOT
ATOM      1  O3  SGN d 503      25.519  20.736 144.570  0.00  0.00    -0.391 OA
ATOM      2  O6  SGN d 503      29.893  19.111 144.697  0.00  0.00    -0.254 OA
ATOM      3  C6  SGN d 503      29.801  18.921 143.290  0.00  0.00     0.067 C 
ATOM      4  O1S SGN d 503      23.549  16.725 145.998  0.00  0.00    -0.296 OA
ATOM      5  C5  SGN d 503      28.320  18.863 142.962  0.00  0.00     0.091 C 
ATOM      6  O3S SGN d 503      23.689  19.106 146.385  0.00  0.00    -0.296 OA
ATOM      7  C3  SGN d 503      26.121  19.797 143.706  0.00  0.00     0.083 C 
ATOM      8  O4S SGN d 503      32.091  20.333 145.501  0.00  0.00    -0.572 OA
ATOM      9  N   SGN d 503      24.294  18.230 143.958  0.00  0.00    -0.210 NA
ATOM     10  O2S SGN d 503      21.876  18.202 145.056  0.00  0.00    -0.296 OA
ATOM     11  O5  SGN d 503      27.853  17.573 143.360  0.00  0.00    -0.350 OA
ATOM     12  O6S SGN d 503      31.244  18.527 146.882  0.00  0.00    -0.572 OA
ATOM     13  O5S SGN d 503      32.308  18.056 144.760  0.00  0.00    -0.572 OA
ATOM     14  C1  SGN d 503      26.448  17.370 143.235  0.00  0.00     0.147 C 
ATOM     15  O1  SGN d 503      26.044  17.510 141.876  0.00  0.00    -0.369 OA
ATOM     16  O4  SGN d 503      27.988  21.220 143.283  0.00  0.00    -0.348 OA
ATOM     17  C2  SGN d 503      25.725  18.388 144.104  0.00  0.00     0.081 C 
ATOM     18  S1  SGN d 503      23.307  18.059 145.411  0.00  0.00     0.156 S 
ATOM     19  S2  SGN d 503      31.453  19.000 145.499  0.00  0.00     0.251 S 
ATOM     20  C4  SGN d 503      27.628  19.936 143.789  0.00  0.00     0.095 C 
ATOM     21  H   SGN d 503      24.555  20.649 144.520  0.00  0.00     0.210 HD
ATOM     22  H   SGN d 503      30.278  18.006 143.008  0.00  0.00     0.080 H 
ATOM     23  H   SGN d 503      30.285  19.714 142.759  0.00  0.00     0.080 H 
ATOM     24  H   SGN d 503      24.487  16.638 146.229  0.00  0.00     0.231 HD
ATOM     25  H   SGN d 503      28.126  19.023 141.922  0.00  0.00     0.090 H 
ATOM     26  H   SGN d 503      24.626  19.009 146.614  0.00  0.00     0.231 HD
ATOM     27  H   SGN d 503      25.792  19.982 142.705  0.00  0.00     0.089 H 
ATOM     28  H   SGN d 503      24.140  17.397 143.391  0.00  0.00     0.140 HD
ATOM     29  H   SGN d 503      21.333  18.108 145.854  0.00  0.00     0.231 HD
ATOM     30  H   SGN d 503      26.200  16.380 143.555  0.00  0.00     0.131 H 
ATOM     31  H   SGN d 503      26.259  18.403 141.565  0.00  0.00     0.212 HD
ATOM     32  H   SGN d 503      26.001  18.222 145.124  0.00  0.00     0.076 H 
ATOM     33  H   SGN d 503      27.935  19.826 144.808  0.00  0.00     0.091 H 
ATOM     34  C4  SGN d 501      30.686  27.574 148.782  0.00  0.00     0.089 C 
ATOM     35  C6  SGN d 501      28.164  27.634 148.797  0.00  0.00     0.067 C 
ATOM     36  O6S SGN d 501      25.686  29.871 149.174  0.00  0.00    -0.572 OA
ATOM     37  S1  SGN d 501      34.432  27.030 145.576  0.00  0.00     0.156 S 
ATOM     38  O6  SGN d 501      27.403  28.347 147.825  0.00  0.00    -0.254 OA
ATOM     39  O5S SGN d 501      27.893  30.780 148.780  0.00  0.00    -0.572 OA
ATOM     40  O3S SGN d 501      34.481  28.399 146.138  0.00  0.00    -0.296 OA
ATOM     41  N   SGN d 501      32.918  26.239 146.044  0.00  0.00    -0.210 NA
ATOM     42  O1  SGN d 501      30.322  25.193 146.116  0.00  0.00    -0.348 OA
ATOM     43  C1  SGN d 501      30.498  26.608 146.065  0.00  0.00     0.150 C 
ATOM     44  C5  SGN d 501      29.408  27.030 148.155  0.00  0.00     0.090 C 
ATOM     45  C3  SGN d 501      31.885  26.866 148.163  0.00  0.00     0.083 C 
ATOM     46  O4S SGN d 501      26.310  30.614 146.958  0.00  0.00    -0.572 OA
ATOM     47  O3  SGN d 501      33.085  27.406 148.681  0.00  0.00    -0.391 OA
ATOM     48  S2  SGN d 501      26.798  29.969 148.199  0.00  0.00     0.251 S 
ATOM     49  C2  SGN d 501      31.852  27.020 146.645  0.00  0.00     0.081 C 
ATOM     50  O2S SGN d 501      35.578  26.247 146.093  0.00  0.00    -0.296 OA
ATOM     51  O4  SGN d 501      30.666  27.350 150.193  0.00  0.00    -0.390 OA
ATOM     52  O5  SGN d 501      29.436  27.283 146.747  0.00  0.00    -0.349 OA
ATOM     53  O1S SGN d 501      34.506  27.106 144.099  0.00  0.00    -0.296 OA
ATOM     54  H   SGN d 501      30.757  28.625 148.599  0.00  0.00     0.091 H 
ATOM     55  H   SGN d 501      28.460  28.306 149.576  0.00  0.00     0.080 H 
ATOM     56  H   SGN d 501      27.564  26.847 149.202  0.00  0.00     0.080 H 
ATOM     57  H   SGN d 501      33.732  28.914 145.801  0.00  0.00     0.231 HD
ATOM     58  H   SGN d 501      33.161  25.507 146.712  0.00  0.00     0.140 HD
ATOM     59  H   SGN d 501      30.475  26.897 145.035  0.00  0.00     0.131 H 
ATOM     60  H   SGN d 501      29.361  25.975 148.327  0.00  0.00     0.090 H 
ATOM     61  H   SGN d 501      31.842  25.825 148.407  0.00  0.00     0.089 H 
ATOM     62  H   SGN d 501      33.134  28.351 148.465  0.00  0.00     0.210 HD
ATOM     63  H   SGN d 501      32.000  28.055 146.415  0.00  0.00     0.076 H 
ATOM     64  H   SGN d 501      35.549  25.349 145.726  0.00  0.00     0.231 HD
ATOM     65  H   SGN d 501      30.601  26.399 150.368  0.00  0.00     0.210 HD
ATOM     66  H   SGN d 501      34.474  26.210 143.727  0.00  0.00     0.231 HD
ATOM     67  O2  IDS d 502      30.557  22.046 142.496  0.00  0.00    -0.244 OA
ATOM     68  C3  IDS d 502      30.573  23.692 144.242  0.00  0.00     0.094 C 
ATOM     69  O2S IDS d 502      28.759  22.393 140.569  0.00  0.00    -0.572 OA
ATOM     70  O1S IDS d 502      31.095  22.516 139.940  0.00  0.00    -0.572 OA
ATOM     71  O5  IDS d 502      28.081  22.705 145.118  0.00  0.00    -0.340 OA
ATOM     72  S   IDS d 502      30.108  21.825 140.801  0.00  0.00     0.252 S 
ATOM     73  C1  IDS d 502      28.835  21.968 144.148  0.00  0.00     0.161 C 
ATOM     74  O61 IDS d 502      27.006  25.068 147.075  0.00  0.00    -0.646 OA
ATOM     75  O62 IDS d 502      28.667  23.725 147.577  0.00  0.00    -0.646 OA
ATOM     76  C5  IDS d 502      28.255  24.129 145.264  0.00  0.00     0.152 C 
ATOM     77  O3  IDS d 502      31.538  24.402 143.495  0.00  0.00    -0.390 OA
ATOM     78  C6  IDS d 502      27.973  24.354 146.743  0.00  0.00     0.206 C 
ATOM     79  O3S IDS d 502      30.090  20.382 140.478  0.00  0.00    -0.572 OA
ATOM     80  C4  IDS d 502      29.666  24.670 144.961  0.00  0.00     0.103 C 
ATOM     81  C2  IDS d 502      29.724  22.862 143.313  0.00  0.00     0.134 C 
ATOM     82  H   IDS d 502      31.076  23.063 144.947  0.00  0.00     0.091 H 
ATOM     83  H   IDS d 502      29.454  21.298 144.707  0.00  0.00     0.133 H 
ATOM     84  H   IDS d 502      27.623  24.635 144.565  0.00  0.00     0.104 H 
ATOM     85  H   IDS d 502      31.092  24.976 142.851  0.00  0.00     0.210 HD
ATOM     86  H   IDS d 502      29.485  25.476 144.281  0.00  0.00     0.092 H 
ATOM     87  H   IDS d 502      29.137  23.504 142.690  0.00  0.00     0.097 H 
ENDROOT
TORSDOF 28
ENDMDL
MODEL 52
REMARK VINA RESULT:      -5.4      3.944      6.111
REMARK  0 active torsions:
REMARK  status: ('A' for Active; 'I' for Inactive)
REMARK       I    between atoms: O3_1  and  C3_18 
REMARK       I    between atoms: O6_2  and  C6_6 
REMARK       I    between atoms: O6_2  and  S2_52 
REMARK       I    between atoms: C4_3  and  O4_50 
REMARK       I    between atoms: C6_4  and  C5_31 
REMARK       I    between atoms: C6_4  and  O6_12 
REMARK       I    between atoms: C6_6  and  C5_15 
REMARK       I    between atoms: O2_7  and  C2_53 
REMARK       I    between atoms: O2_7  and  S_26 
REMARK       I    between atoms: C3_8  and  O3_38 
REMARK       I    between atoms: S1_9  and  N_19 
REMARK       I    between atoms: S1_9  and  O1S_55 
REMARK       I    between atoms: S1_9  and  O2S_49 
REMARK       I    between atoms: S1_9  and  O3S_17 
REMARK       I    between atoms: O6_12  and  S2_45 
REMARK       I    between atoms: O1S_14  and  S1_48 
REMARK       I    between atoms: O3S_16  and  S1_48 
REMARK       I    between atoms: N_19  and  C2_46 
REMARK       I    between atoms: O1_22  and  C1_24 
REMARK       I    between atoms: O1_22  and  C4_41 
REMARK       I    between atoms: N_23  and  C2_47 
REMARK       I    between atoms: N_23  and  S1_48 
REMARK       I    between atoms: O2S_25  and  S1_48 
REMARK       I    between atoms: C1_27  and  O4_44 
REMARK       I    between atoms: C3_34  and  O3_43 
REMARK       I    between atoms: C1_35  and  O1_36 
REMARK       I    between atoms: C5_37  and  C6_39 
REMARK       I    between atoms: O4_44  and  C4_54 
ROOT
ATOM      1  O3  SGN d 503      31.567  18.886 149.530  0.00  0.00    -0.391 OA
ATOM      2  O6  SGN d 503      34.277  18.003 145.834  0.00  0.00    -0.254 OA
ATOM      3  C6  SGN d 503      33.732  16.689 145.822  0.00  0.00     0.067 C 
ATOM      4  O1S SGN d 503      34.973  18.258 152.696  0.00  0.00    -0.296 OA
ATOM      5  C5  SGN d 503      33.181  16.442 147.214  0.00  0.00     0.091 C 
ATOM      6  O3S SGN d 503      33.234  19.753 151.932  0.00  0.00    -0.296 OA
ATOM      7  C3  SGN d 503      32.108  17.647 149.127  0.00  0.00     0.083 C 
ATOM      8  O4S SGN d 503      34.311  19.201 143.481  0.00  0.00    -0.572 OA
ATOM      9  N   SGN d 503      32.976  17.183 151.338  0.00  0.00    -0.210 NA
ATOM     10  O2S SGN d 503      32.802  18.235 153.771  0.00  0.00    -0.296 OA
ATOM     11  O5  SGN d 503      34.296  16.179 148.067  0.00  0.00    -0.350 OA
ATOM     12  O6S SGN d 503      36.209  19.559 144.949  0.00  0.00    -0.572 OA
ATOM     13  O5S SGN d 503      35.900  17.433 143.837  0.00  0.00    -0.572 OA
ATOM     14  C1  SGN d 503      33.983  16.034 149.450  0.00  0.00     0.147 C 
ATOM     15  O1  SGN d 503      33.096  14.938 149.647  0.00  0.00    -0.369 OA
ATOM     16  O4  SGN d 503      31.290  17.889 146.901  0.00  0.00    -0.348 OA
ATOM     17  C2  SGN d 503      33.343  17.321 149.946  0.00  0.00     0.081 C 
ATOM     18  S1  SGN d 503      33.517  18.409 152.485  0.00  0.00     0.156 S 
ATOM     19  S2  SGN d 503      35.219  18.577 144.465  0.00  0.00     0.251 S 
ATOM     20  C4  SGN d 503      32.483  17.719 147.661  0.00  0.00     0.095 C 
ATOM     21  H   SGN d 503      31.326  18.843 150.468  0.00  0.00     0.210 HD
ATOM     22  H   SGN d 503      34.495  15.974 145.595  0.00  0.00     0.080 H 
ATOM     23  H   SGN d 503      32.968  16.592 145.079  0.00  0.00     0.080 H 
ATOM     24  H   SGN d 503      35.436  18.373 151.851  0.00  0.00     0.231 HD
ATOM     25  H   SGN d 503      32.492  15.623 147.240  0.00  0.00     0.090 H 
ATOM     26  H   SGN d 503      33.705  19.862 151.091  0.00  0.00     0.231 HD
ATOM     27  H   SGN d 503      31.378  16.880 149.280  0.00  0.00     0.089 H 
ATOM     28  H   SGN d 503      33.346  16.288 151.659  0.00  0.00     0.140 HD
ATOM     29  H   SGN d 503      33.100  18.909 154.401  0.00  0.00     0.231 HD
ATOM     30  H   SGN d 503      34.880  15.840 150.000  0.00  0.00     0.131 H 
ATOM     31  H   SGN d 503      32.274  15.094 149.156  0.00  0.00     0.212 HD
ATOM     32  H   SGN d 503      34.051  18.117 149.841  0.00  0.00     0.076 H 
ATOM     33  H   SGN d 503      33.154  18.539 147.511  0.00  0.00     0.091 H 
ATOM     34  C4  SGN d 501      29.486  25.664 143.134  0.00  0.00     0.089 C 
ATOM     35  C6  SGN d 501      28.689  25.822 145.522  0.00  0.00     0.067 C 
ATOM     36  O6S SGN d 501      26.282  27.356 147.295  0.00  0.00    -0.572 OA
ATOM     37  S1  SGN d 501      29.519  22.436 139.368  0.00  0.00     0.156 S 
ATOM     38  O6  SGN d 501      27.408  25.357 145.941  0.00  0.00    -0.254 OA
ATOM     39  O5S SGN d 501      26.003  27.357 144.892  0.00  0.00    -0.572 OA
ATOM     40  O3S SGN d 501      28.674  23.593 138.996  0.00  0.00    -0.296 OA
ATOM     41  N   SGN d 501      29.944  22.525 141.085  0.00  0.00    -0.210 NA
ATOM     42  O1  SGN d 501      30.065  22.194 143.863  0.00  0.00    -0.348 OA
ATOM     43  C1  SGN d 501      28.926  22.834 143.290  0.00  0.00     0.150 C 
ATOM     44  C5  SGN d 501      29.253  24.910 144.437  0.00  0.00     0.090 C 
ATOM     45  C3  SGN d 501      30.132  24.725 142.124  0.00  0.00     0.083 C 
ATOM     46  O4S SGN d 501      24.795  25.761 146.249  0.00  0.00    -0.572 OA
ATOM     47  O3  SGN d 501      30.293  25.386 140.884  0.00  0.00    -0.391 OA
ATOM     48  S2  SGN d 501      26.068  26.504 146.101  0.00  0.00     0.251 S 
ATOM     49  C2  SGN d 501      29.268  23.479 141.946  0.00  0.00     0.081 C 
ATOM     50  O2S SGN d 501      30.756  22.451 138.553  0.00  0.00    -0.296 OA
ATOM     51  O4  SGN d 501      30.340  26.785 143.370  0.00  0.00    -0.390 OA
ATOM     52  O5  SGN d 501      28.377  23.806 144.186  0.00  0.00    -0.349 OA
ATOM     53  O1S SGN d 501      28.771  21.183 139.115  0.00  0.00    -0.296 OA
ATOM     54  H   SGN d 501      28.552  26.016 142.749  0.00  0.00     0.091 H 
ATOM     55  H   SGN d 501      28.597  26.815 145.135  0.00  0.00     0.080 H 
ATOM     56  H   SGN d 501      29.353  25.817 146.361  0.00  0.00     0.080 H 
ATOM     57  H   SGN d 501      27.862  23.585 139.528  0.00  0.00     0.231 HD
ATOM     58  H   SGN d 501      30.940  22.738 141.133  0.00  0.00     0.140 HD
ATOM     59  H   SGN d 501      28.187  22.079 143.118  0.00  0.00     0.131 H 
ATOM     60  H   SGN d 501      30.191  24.547 144.799  0.00  0.00     0.090 H 
ATOM     61  H   SGN d 501      31.096  24.430 142.485  0.00  0.00     0.089 H 
ATOM     62  H   SGN d 501      29.425  25.657 140.547  0.00  0.00     0.210 HD
ATOM     63  H   SGN d 501      28.348  23.778 141.489  0.00  0.00     0.076 H 
ATOM     64  H   SGN d 501      31.312  21.694 138.794  0.00  0.00     0.231 HD
ATOM     65  H   SGN d 501      31.190  26.475 143.719  0.00  0.00     0.210 HD
ATOM     66  H   SGN d 501      29.323  20.422 139.358  0.00  0.00     0.231 HD
ATOM     67  O2  IDS d 502      30.999  17.491 144.133  0.00  0.00    -0.244 OA
ATOM     68  C3  IDS d 502      30.482  19.816 143.843  0.00  0.00     0.094 C 
ATOM     69  O2S IDS d 502      29.252  16.064 145.539  0.00  0.00    -0.572 OA
ATOM     70  O1S IDS d 502      29.547  15.470 143.209  0.00  0.00    -0.572 OA
ATOM     71  O5  IDS d 502      30.970  20.210 146.592  0.00  0.00    -0.340 OA
ATOM     72  S   IDS d 502      30.235  15.927 144.439  0.00  0.00     0.252 S 
ATOM     73  C1  IDS d 502      31.339  18.970 145.976  0.00  0.00     0.161 C 
ATOM     74  O61 IDS d 502      29.637  23.119 147.164  0.00  0.00    -0.646 OA
ATOM     75  O62 IDS d 502      31.481  22.824 146.014  0.00  0.00    -0.646 OA
ATOM     76  C5  IDS d 502      29.918  21.025 146.040  0.00  0.00     0.152 C 
ATOM     77  O3  IDS d 502      29.826  19.469 142.641  0.00  0.00    -0.390 OA
ATOM     78  C6  IDS d 502      30.356  22.436 146.407  0.00  0.00     0.206 C 
ATOM     79  O3S IDS d 502      31.266  14.941 144.828  0.00  0.00    -0.572 OA
ATOM     80  C4  IDS d 502      29.747  20.962 144.510  0.00  0.00     0.103 C 
ATOM     81  C2  IDS d 502      30.468  18.639 144.786  0.00  0.00     0.134 C 
ATOM     82  H   IDS d 502      31.489  20.100 143.618  0.00  0.00     0.091 H 
ATOM     83  H   IDS d 502      32.346  19.101 145.636  0.00  0.00     0.133 H 
ATOM     84  H   IDS d 502      28.975  20.693 146.424  0.00  0.00     0.104 H 
ATOM     85  H   IDS d 502      28.911  19.210 142.835  0.00  0.00     0.210 HD
ATOM     86  H   IDS d 502      28.702  20.773 144.381  0.00  0.00     0.092 H 
ATOM     87  H   IDS d 502      29.464  18.438 145.096  0.00  0.00     0.097 H 
ENDROOT
TORSDOF 28
ENDMDL
MODEL 53
REMARK VINA RESULT:      -5.4      4.798     11.294
REMARK  0 active torsions:
REMARK  status: ('A' for Active; 'I' for Inactive)
REMARK       I    between atoms: O3_1  and  C3_18 
REMARK       I    between atoms: O6_2  and  C6_6 
REMARK       I    between atoms: O6_2  and  S2_52 
REMARK       I    between atoms: C4_3  and  O4_50 
REMARK       I    between atoms: C6_4  and  C5_31 
REMARK       I    between atoms: C6_4  and  O6_12 
REMARK       I    between atoms: C6_6  and  C5_15 
REMARK       I    between atoms: O2_7  and  C2_53 
REMARK       I    between atoms: O2_7  and  S_26 
REMARK       I    between atoms: C3_8  and  O3_38 
REMARK       I    between atoms: S1_9  and  N_19 
REMARK       I    between atoms: S1_9  and  O1S_55 
REMARK       I    between atoms: S1_9  and  O2S_49 
REMARK       I    between atoms: S1_9  and  O3S_17 
REMARK       I    between atoms: O6_12  and  S2_45 
REMARK       I    between atoms: O1S_14  and  S1_48 
REMARK       I    between atoms: O3S_16  and  S1_48 
REMARK       I    between atoms: N_19  and  C2_46 
REMARK       I    between atoms: O1_22  and  C1_24 
REMARK       I    between atoms: O1_22  and  C4_41 
REMARK       I    between atoms: N_23  and  C2_47 
REMARK       I    between atoms: N_23  and  S1_48 
REMARK       I    between atoms: O2S_25  and  S1_48 
REMARK       I    between atoms: C1_27  and  O4_44 
REMARK       I    between atoms: C3_34  and  O3_43 
REMARK       I    between atoms: C1_35  and  O1_36 
REMARK       I    between atoms: C5_37  and  C6_39 
REMARK       I    between atoms: O4_44  and  C4_54 
ROOT
ATOM      1  O3  SGN d 503      28.884  26.554 144.425  0.00  0.00    -0.391 OA
ATOM      2  O6  SGN d 503      29.264  27.141 149.040  0.00  0.00    -0.254 OA
ATOM      3  C6  SGN d 503      28.513  25.943 149.195  0.00  0.00     0.067 C 
ATOM      4  O1S SGN d 503      25.347  29.593 143.913  0.00  0.00    -0.296 OA
ATOM      5  C5  SGN d 503      27.765  25.735 147.891  0.00  0.00     0.091 C 
ATOM      6  O3S SGN d 503      27.539  28.959 143.118  0.00  0.00    -0.296 OA
ATOM      7  C3  SGN d 503      27.991  26.127 145.431  0.00  0.00     0.083 C 
ATOM      8  O4S SGN d 503      31.447  27.272 150.519  0.00  0.00    -0.572 OA
ATOM      9  N   SGN d 503      26.081  27.083 144.293  0.00  0.00    -0.210 NA
ATOM     10  O2S SGN d 503      25.561  28.202 141.941  0.00  0.00    -0.296 OA
ATOM     11  O5  SGN d 503      26.667  26.649 147.887  0.00  0.00    -0.350 OA
ATOM     12  O6S SGN d 503      30.162  29.310 150.236  0.00  0.00    -0.572 OA
ATOM     13  O5S SGN d 503      29.339  27.525 151.647  0.00  0.00    -0.572 OA
ATOM     14  C1  SGN d 503      25.907  26.681 146.682  0.00  0.00     0.147 C 
ATOM     15  O1  SGN d 503      25.330  25.405 146.423  0.00  0.00    -0.369 OA
ATOM     16  O4  SGN d 503      29.729  25.072 146.678  0.00  0.00    -0.348 OA
ATOM     17  C2  SGN d 503      26.821  27.086 145.536  0.00  0.00     0.081 C 
ATOM     18  S1  SGN d 503      26.134  28.519 143.270  0.00  0.00     0.156 S 
ATOM     19  S2  SGN d 503      30.090  27.847 150.422  0.00  0.00     0.251 S 
ATOM     20  C4  SGN d 503      28.720  26.077 146.758  0.00  0.00     0.095 C 
ATOM     21  H   SGN d 503      28.421  26.587 143.574  0.00  0.00     0.210 HD
ATOM     22  H   SGN d 503      27.822  26.041 150.006  0.00  0.00     0.080 H 
ATOM     23  H   SGN d 503      29.150  25.112 149.413  0.00  0.00     0.080 H 
ATOM     24  H   SGN d 503      25.727  29.796 144.782  0.00  0.00     0.231 HD
ATOM     25  H   SGN d 503      27.412  24.731 147.780  0.00  0.00     0.090 H 
ATOM     26  H   SGN d 503      27.910  29.165 143.991  0.00  0.00     0.231 HD
ATOM     27  H   SGN d 503      27.623  25.154 145.180  0.00  0.00     0.089 H 
ATOM     28  H   SGN d 503      25.103  26.916 144.526  0.00  0.00     0.140 HD
ATOM     29  H   SGN d 503      25.590  28.992 141.379  0.00  0.00     0.231 HD
ATOM     30  H   SGN d 503      25.113  27.391 146.780  0.00  0.00     0.131 H 
ATOM     31  H   SGN d 503      26.035  24.745 146.330  0.00  0.00     0.212 HD
ATOM     32  H   SGN d 503      27.193  28.071 145.728  0.00  0.00     0.076 H 
ATOM     33  H   SGN d 503      29.150  27.036 146.958  0.00  0.00     0.091 H 
ATOM     34  C4  SGN d 501      38.242  27.342 146.160  0.00  0.00     0.089 C 
ATOM     35  C6  SGN d 501      37.327  27.445 143.811  0.00  0.00     0.067 C 
ATOM     36  O6S SGN d 501      38.387  26.979 140.657  0.00  0.00    -0.572 OA
ATOM     37  S1  SGN d 501      37.961  24.479 150.201  0.00  0.00     0.156 S 
ATOM     38  O6  SGN d 501      37.243  26.300 142.965  0.00  0.00    -0.254 OA
ATOM     39  O5S SGN d 501      39.838  26.147 142.405  0.00  0.00    -0.572 OA
ATOM     40  O3S SGN d 501      39.344  24.426 149.675  0.00  0.00    -0.296 OA
ATOM     41  N   SGN d 501      36.904  25.299 149.041  0.00  0.00    -0.210 NA
ATOM     42  O1  SGN d 501      35.061  25.911 147.024  0.00  0.00    -0.348 OA
ATOM     43  C1  SGN d 501      36.288  25.275 146.671  0.00  0.00     0.150 C 
ATOM     44  C5  SGN d 501      37.048  27.053 145.259  0.00  0.00     0.090 C 
ATOM     45  C3  SGN d 501      37.868  27.017 147.601  0.00  0.00     0.083 C 
ATOM     46  O4S SGN d 501      38.369  24.628 141.227  0.00  0.00    -0.572 OA
ATOM     47  O3  SGN d 501      38.986  27.212 148.445  0.00  0.00    -0.391 OA
ATOM     48  S2  SGN d 501      38.511  26.001 141.765  0.00  0.00     0.251 S 
ATOM     49  C2  SGN d 501      37.383  25.572 147.698  0.00  0.00     0.081 C 
ATOM     50  O2S SGN d 501      37.955  25.221 151.484  0.00  0.00    -0.296 OA
ATOM     51  O4  SGN d 501      38.606  28.719 146.053  0.00  0.00    -0.390 OA
ATOM     52  O5  SGN d 501      36.712  25.665 145.361  0.00  0.00    -0.349 OA
ATOM     53  O1S SGN d 501      37.468  23.100 150.421  0.00  0.00    -0.296 OA
ATOM     54  H   SGN d 501      39.073  26.740 145.861  0.00  0.00     0.091 H 
ATOM     55  H   SGN d 501      38.310  27.864 143.742  0.00  0.00     0.080 H 
ATOM     56  H   SGN d 501      36.600  28.164 143.499  0.00  0.00     0.080 H 
ATOM     57  H   SGN d 501      39.352  23.940 148.835  0.00  0.00     0.231 HD
ATOM     58  H   SGN d 501      36.652  26.197 149.453  0.00  0.00     0.140 HD
ATOM     59  H   SGN d 501      36.113  24.220 146.668  0.00  0.00     0.131 H 
ATOM     60  H   SGN d 501      36.219  27.646 145.582  0.00  0.00     0.090 H 
ATOM     61  H   SGN d 501      37.080  27.669 147.915  0.00  0.00     0.089 H 
ATOM     62  H   SGN d 501      39.706  26.624 148.169  0.00  0.00     0.210 HD
ATOM     63  H   SGN d 501      38.211  24.931 147.480  0.00  0.00     0.076 H 
ATOM     64  H   SGN d 501      37.050  25.258 151.832  0.00  0.00     0.231 HD
ATOM     65  H   SGN d 501      37.857  29.273 146.323  0.00  0.00     0.210 HD
ATOM     66  H   SGN d 501      36.562  23.132 150.766  0.00  0.00     0.231 HD
ATOM     67  O2  IDS d 502      31.095  23.900 148.837  0.00  0.00    -0.244 OA
ATOM     68  C3  IDS d 502      33.164  24.812 148.035  0.00  0.00     0.094 C 
ATOM     69  O2S IDS d 502      29.930  22.085 147.285  0.00  0.00    -0.572 OA
ATOM     70  O1S IDS d 502      30.683  21.356 149.470  0.00  0.00    -0.572 OA
ATOM     71  O5  IDS d 502      31.730  26.127 145.995  0.00  0.00    -0.340 OA
ATOM     72  S   IDS d 502      30.067  22.468 148.710  0.00  0.00     0.252 S 
ATOM     73  C1  IDS d 502      31.021  25.513 147.079  0.00  0.00     0.161 C 
ATOM     74  O61 IDS d 502      34.060  26.985 143.897  0.00  0.00    -0.646 OA
ATOM     75  O62 IDS d 502      33.778  27.919 145.862  0.00  0.00    -0.646 OA
ATOM     76  C5  IDS d 502      33.041  25.667 145.614  0.00  0.00     0.152 C 
ATOM     77  O3  IDS d 502      33.833  23.796 148.754  0.00  0.00    -0.390 OA
ATOM     78  C6  IDS d 502      33.705  26.933 145.092  0.00  0.00     0.206 C 
ATOM     79  O3S IDS d 502      28.730  22.769 149.264  0.00  0.00    -0.572 OA
ATOM     80  C4  IDS d 502      33.916  25.104 146.752  0.00  0.00     0.103 C 
ATOM     81  C2  IDS d 502      31.778  24.346 147.670  0.00  0.00     0.134 C 
ATOM     82  H   IDS d 502      33.113  25.690 148.645  0.00  0.00     0.091 H 
ATOM     83  H   IDS d 502      30.922  26.271 147.829  0.00  0.00     0.133 H 
ATOM     84  H   IDS d 502      32.943  24.850 144.929  0.00  0.00     0.104 H 
ATOM     85  H   IDS d 502      33.885  22.994 148.209  0.00  0.00     0.210 HD
ATOM     86  H   IDS d 502      34.249  24.162 146.370  0.00  0.00     0.092 H 
ATOM     87  H   IDS d 502      31.841  23.541 146.968  0.00  0.00     0.097 H 
ENDROOT
TORSDOF 28
ENDMDL
MODEL 54
REMARK VINA RESULT:      -5.4      3.880      7.900
REMARK  0 active torsions:
REMARK  status: ('A' for Active; 'I' for Inactive)
REMARK       I    between atoms: O3_1  and  C3_18 
REMARK       I    between atoms: O6_2  and  C6_6 
REMARK       I    between atoms: O6_2  and  S2_52 
REMARK       I    between atoms: C4_3  and  O4_50 
REMARK       I    between atoms: C6_4  and  C5_31 
REMARK       I    between atoms: C6_4  and  O6_12 
REMARK       I    between atoms: C6_6  and  C5_15 
REMARK       I    between atoms: O2_7  and  C2_53 
REMARK       I    between atoms: O2_7  and  S_26 
REMARK       I    between atoms: C3_8  and  O3_38 
REMARK       I    between atoms: S1_9  and  N_19 
REMARK       I    between atoms: S1_9  and  O1S_55 
REMARK       I    between atoms: S1_9  and  O2S_49 
REMARK       I    between atoms: S1_9  and  O3S_17 
REMARK       I    between atoms: O6_12  and  S2_45 
REMARK       I    between atoms: O1S_14  and  S1_48 
REMARK       I    between atoms: O3S_16  and  S1_48 
REMARK       I    between atoms: N_19  and  C2_46 
REMARK       I    between atoms: O1_22  and  C1_24 
REMARK       I    between atoms: O1_22  and  C4_41 
REMARK       I    between atoms: N_23  and  C2_47 
REMARK       I    between atoms: N_23  and  S1_48 
REMARK       I    between atoms: O2S_25  and  S1_48 
REMARK       I    between atoms: C1_27  and  O4_44 
REMARK       I    between atoms: C3_34  and  O3_43 
REMARK       I    between atoms: C1_35  and  O1_36 
REMARK       I    between atoms: C5_37  and  C6_39 
REMARK       I    between atoms: O4_44  and  C4_54 
ROOT
ATOM      1  O3  SGN d 503      30.018  24.091 140.929  0.00  0.00    -0.391 OA
ATOM      2  O6  SGN d 503      28.662  19.674 141.591  0.00  0.00    -0.254 OA
ATOM      3  C6  SGN d 503      29.807  19.273 140.847  0.00  0.00     0.067 C 
ATOM      4  O1S SGN d 503      27.064  24.900 137.375  0.00  0.00    -0.296 OA
ATOM      5  C5  SGN d 503      30.223  20.475 140.020  0.00  0.00     0.091 C 
ATOM      6  O3S SGN d 503      27.852  25.705 139.513  0.00  0.00    -0.296 OA
ATOM      7  C3  SGN d 503      30.257  22.976 140.098  0.00  0.00     0.083 C 
ATOM      8  O4S SGN d 503      28.312  18.371 143.861  0.00  0.00    -0.572 OA
ATOM      9  N   SGN d 503      29.483  24.144 138.124  0.00  0.00    -0.210 NA
ATOM     10  O2S SGN d 503      28.771  26.616 137.465  0.00  0.00    -0.296 OA
ATOM     11  O5  SGN d 503      29.308  20.569 138.927  0.00  0.00    -0.350 OA
ATOM     12  O6S SGN d 503      26.334  18.920 142.566  0.00  0.00    -0.572 OA
ATOM     13  O5S SGN d 503      27.844  17.179 141.826  0.00  0.00    -0.572 OA
ATOM     14  C1  SGN d 503      29.471  21.715 138.095  0.00  0.00     0.147 C 
ATOM     15  O1  SGN d 503      30.765  21.719 137.500  0.00  0.00    -0.369 OA
ATOM     16  O4  SGN d 503      31.108  21.673 141.904  0.00  0.00    -0.348 OA
ATOM     17  C2  SGN d 503      29.278  22.965 138.938  0.00  0.00     0.081 C 
ATOM     18  S1  SGN d 503      28.241  25.397 138.118  0.00  0.00     0.156 S 
ATOM     19  S2  SGN d 503      27.744  18.484 142.501  0.00  0.00     0.251 S 
ATOM     20  C4  SGN d 503      30.091  21.706 140.906  0.00  0.00     0.095 C 
ATOM     21  H   SGN d 503      30.124  24.906 140.414  0.00  0.00     0.210 HD
ATOM     22  H   SGN d 503      29.564  18.450 140.208  0.00  0.00     0.080 H 
ATOM     23  H   SGN d 503      30.598  18.955 141.494  0.00  0.00     0.080 H 
ATOM     24  H   SGN d 503      26.721  24.102 137.808  0.00  0.00     0.231 HD
ATOM     25  H   SGN d 503      31.227  20.393 139.658  0.00  0.00     0.090 H 
ATOM     26  H   SGN d 503      27.505  24.903 139.937  0.00  0.00     0.231 HD
ATOM     27  H   SGN d 503      31.253  23.035 139.711  0.00  0.00     0.089 H 
ATOM     28  H   SGN d 503      29.594  23.828 137.161  0.00  0.00     0.140 HD
ATOM     29  H   SGN d 503      28.088  27.305 137.461  0.00  0.00     0.231 HD
ATOM     30  H   SGN d 503      28.744  21.692 137.311  0.00  0.00     0.131 H 
ATOM     31  H   SGN d 503      31.441  21.740 138.195  0.00  0.00     0.212 HD
ATOM     32  H   SGN d 503      28.280  22.966 139.324  0.00  0.00     0.076 H 
ATOM     33  H   SGN d 503      29.117  21.697 141.350  0.00  0.00     0.091 H 
ATOM     34  C4  SGN d 501      29.071  23.076 150.376  0.00  0.00     0.089 C 
ATOM     35  C6  SGN d 501      29.356  25.349 149.321  0.00  0.00     0.067 C 
ATOM     36  O6S SGN d 501      30.363  28.436 150.185  0.00  0.00    -0.572 OA
ATOM     37  S1  SGN d 501      31.204  18.598 150.335  0.00  0.00     0.156 S 
ATOM     38  O6  SGN d 501      30.626  25.983 149.182  0.00  0.00    -0.254 OA
ATOM     39  O5S SGN d 501      30.906  26.663 151.738  0.00  0.00    -0.572 OA
ATOM     40  O3S SGN d 501      31.364  19.190 151.683  0.00  0.00    -0.296 OA
ATOM     41  N   SGN d 501      30.579  19.816 149.212  0.00  0.00    -0.210 NA
ATOM     42  O1  SGN d 501      30.292  21.794 147.251  0.00  0.00    -0.348 OA
ATOM     43  C1  SGN d 501      30.995  22.106 148.452  0.00  0.00     0.150 C 
ATOM     44  C5  SGN d 501      29.493  23.843 149.130  0.00  0.00     0.090 C 
ATOM     45  C3  SGN d 501      29.143  21.581 150.091  0.00  0.00     0.083 C 
ATOM     46  O4S SGN d 501      32.583  27.475 150.195  0.00  0.00    -0.572 OA
ATOM     47  O3  SGN d 501      28.821  20.851 151.258  0.00  0.00    -0.391 OA
ATOM     48  S2  SGN d 501      31.141  27.188 150.373  0.00  0.00     0.251 S 
ATOM     49  C2  SGN d 501      30.543  21.212 149.608  0.00  0.00     0.081 C 
ATOM     50  O2S SGN d 501      30.255  17.462 150.409  0.00  0.00    -0.296 OA
ATOM     51  O4  SGN d 501      27.736  23.437 150.738  0.00  0.00    -0.390 OA
ATOM     52  O5  SGN d 501      30.838  23.486 148.797  0.00  0.00    -0.349 OA
ATOM     53  O1S SGN d 501      32.519  18.119 149.853  0.00  0.00    -0.296 OA
ATOM     54  H   SGN d 501      29.726  23.318 151.187  0.00  0.00     0.091 H 
ATOM     55  H   SGN d 501      28.967  25.547 150.298  0.00  0.00     0.080 H 
ATOM     56  H   SGN d 501      28.690  25.736 148.578  0.00  0.00     0.080 H 
ATOM     57  H   SGN d 501      31.985  19.933 151.638  0.00  0.00     0.231 HD
ATOM     58  H   SGN d 501      29.620  19.547 148.988  0.00  0.00     0.140 HD
ATOM     59  H   SGN d 501      32.034  21.919 148.274  0.00  0.00     0.131 H 
ATOM     60  H   SGN d 501      28.843  23.576 148.323  0.00  0.00     0.090 H 
ATOM     61  H   SGN d 501      28.436  21.337 149.325  0.00  0.00     0.089 H 
ATOM     62  H   SGN d 501      29.457  21.066 151.959  0.00  0.00     0.210 HD
ATOM     63  H   SGN d 501      31.223  21.366 150.420  0.00  0.00     0.076 H 
ATOM     64  H   SGN d 501      30.148  17.072 149.527  0.00  0.00     0.231 HD
ATOM     65  H   SGN d 501      27.135  23.221 150.008  0.00  0.00     0.210 HD
ATOM     66  H   SGN d 501      32.417  17.730 148.969  0.00  0.00     0.231 HD
ATOM     67  O2  IDS d 502      31.915  19.431 143.397  0.00  0.00    -0.244 OA
ATOM     68  C3  IDS d 502      31.180  20.499 145.416  0.00  0.00     0.094 C 
ATOM     69  O2S IDS d 502      33.952  20.580 142.134  0.00  0.00    -0.572 OA
ATOM     70  O1S IDS d 502      34.310  18.352 143.017  0.00  0.00    -0.572 OA
ATOM     71  O5  IDS d 502      30.210  22.643 143.863  0.00  0.00    -0.340 OA
ATOM     72  S   IDS d 502      33.334  19.252 142.359  0.00  0.00     0.252 S 
ATOM     73  C1  IDS d 502      30.622  21.431 143.221  0.00  0.00     0.161 C 
ATOM     74  O61 IDS d 502      29.751  24.992 146.063  0.00  0.00    -0.646 OA
ATOM     75  O62 IDS d 502      28.494  23.201 145.905  0.00  0.00    -0.646 OA
ATOM     76  C5  IDS d 502      30.746  23.019 145.147  0.00  0.00     0.152 C 
ATOM     77  O3  IDS d 502      32.068  19.660 146.124  0.00  0.00    -0.390 OA
ATOM     78  C6  IDS d 502      29.595  23.787 145.782  0.00  0.00     0.206 C 
ATOM     79  O3S IDS d 502      32.926  18.679 141.059  0.00  0.00    -0.572 OA
ATOM     80  C4  IDS d 502      31.119  21.856 146.088  0.00  0.00     0.103 C 
ATOM     81  C2  IDS d 502      31.682  20.696 144.008  0.00  0.00     0.134 C 
ATOM     82  H   IDS d 502      30.210  20.045 145.405  0.00  0.00     0.091 H 
ATOM     83  H   IDS d 502      29.747  20.816 143.169  0.00  0.00     0.133 H 
ATOM     84  H   IDS d 502      31.666  23.548 145.006  0.00  0.00     0.104 H 
ATOM     85  H   IDS d 502      32.951  20.062 146.140  0.00  0.00     0.210 HD
ATOM     86  H   IDS d 502      32.116  22.092 146.395  0.00  0.00     0.092 H 
ATOM     87  H   IDS d 502      32.595  21.254 144.026  0.00  0.00     0.097 H 
ENDROOT
TORSDOF 28
ENDMDL
MODEL 55
REMARK VINA RESULT:      -5.4      3.681     11.156
REMARK  0 active torsions:
REMARK  status: ('A' for Active; 'I' for Inactive)
REMARK       I    between atoms: O3_1  and  C3_18 
REMARK       I    between atoms: O6_2  and  C6_6 
REMARK       I    between atoms: O6_2  and  S2_52 
REMARK       I    between atoms: C4_3  and  O4_50 
REMARK       I    between atoms: C6_4  and  C5_31 
REMARK       I    between atoms: C6_4  and  O6_12 
REMARK       I    between atoms: C6_6  and  C5_15 
REMARK       I    between atoms: O2_7  and  C2_53 
REMARK       I    between atoms: O2_7  and  S_26 
REMARK       I    between atoms: C3_8  and  O3_38 
REMARK       I    between atoms: S1_9  and  N_19 
REMARK       I    between atoms: S1_9  and  O1S_55 
REMARK       I    between atoms: S1_9  and  O2S_49 
REMARK       I    between atoms: S1_9  and  O3S_17 
REMARK       I    between atoms: O6_12  and  S2_45 
REMARK       I    between atoms: O1S_14  and  S1_48 
REMARK       I    between atoms: O3S_16  and  S1_48 
REMARK       I    between atoms: N_19  and  C2_46 
REMARK       I    between atoms: O1_22  and  C1_24 
REMARK       I    between atoms: O1_22  and  C4_41 
REMARK       I    between atoms: N_23  and  C2_47 
REMARK       I    between atoms: N_23  and  S1_48 
REMARK       I    between atoms: O2S_25  and  S1_48 
REMARK       I    between atoms: C1_27  and  O4_44 
REMARK       I    between atoms: C3_34  and  O3_43 
REMARK       I    between atoms: C1_35  and  O1_36 
REMARK       I    between atoms: C5_37  and  C6_39 
REMARK       I    between atoms: O4_44  and  C4_54 
ROOT
ATOM      1  O3  SGN d 503      28.735  26.177 146.356  0.00  0.00    -0.391 OA
ATOM      2  O6  SGN d 503      33.225  27.422 146.077  0.00  0.00    -0.254 OA
ATOM      3  C6  SGN d 503      33.122  27.873 147.422  0.00  0.00     0.067 C 
ATOM      4  O1S SGN d 503      27.113  29.993 144.161  0.00  0.00    -0.296 OA
ATOM      5  C5  SGN d 503      31.645  28.100 147.686  0.00  0.00     0.091 C 
ATOM      6  O3S SGN d 503      27.072  27.578 144.217  0.00  0.00    -0.296 OA
ATOM      7  C3  SGN d 503      29.394  27.211 147.054  0.00  0.00     0.083 C 
ATOM      8  O4S SGN d 503      35.334  25.914 145.579  0.00  0.00    -0.572 OA
ATOM      9  N   SGN d 503      27.700  28.836 146.463  0.00  0.00    -0.210 NA
ATOM     10  O2S SGN d 503      25.312  28.842 145.302  0.00  0.00    -0.296 OA
ATOM     11  O5  SGN d 503      31.288  29.327 147.046  0.00  0.00    -0.350 OA
ATOM     12  O6S SGN d 503      34.656  27.494 143.866  0.00  0.00    -0.572 OA
ATOM     13  O5S SGN d 503      35.716  28.266 145.901  0.00  0.00    -0.572 OA
ATOM     14  C1  SGN d 503      29.901  29.653 147.087  0.00  0.00     0.147 C 
ATOM     15  O1  SGN d 503      29.463  29.795 148.435  0.00  0.00    -0.369 OA
ATOM     16  O4  SGN d 503      31.134  25.756 147.788  0.00  0.00    -0.348 OA
ATOM     17  C2  SGN d 503      29.117  28.549 146.395  0.00  0.00     0.081 C 
ATOM     18  S1  SGN d 503      26.756  28.811 144.973  0.00  0.00     0.156 S 
ATOM     19  S2  SGN d 503      34.803  27.268 145.319  0.00  0.00     0.251 S 
ATOM     20  C4  SGN d 503      30.885  26.948 147.046  0.00  0.00     0.095 C 
ATOM     21  H   SGN d 503      27.779  26.343 146.359  0.00  0.00     0.210 HD
ATOM     22  H   SGN d 503      33.665  28.787 147.549  0.00  0.00     0.080 H 
ATOM     23  H   SGN d 503      33.533  27.158 148.104  0.00  0.00     0.080 H 
ATOM     24  H   SGN d 503      28.059  29.967 143.948  0.00  0.00     0.231 HD
ATOM     25  H   SGN d 503      31.421  28.149 148.731  0.00  0.00     0.090 H 
ATOM     26  H   SGN d 503      28.018  27.561 144.005  0.00  0.00     0.231 HD
ATOM     27  H   SGN d 503      29.032  27.238 148.061  0.00  0.00     0.089 H 
ATOM     28  H   SGN d 503      27.602  29.769 146.864  0.00  0.00     0.140 HD
ATOM     29  H   SGN d 503      24.793  28.828 144.482  0.00  0.00     0.231 HD
ATOM     30  H   SGN d 503      29.739  30.583 146.585  0.00  0.00     0.131 H 
ATOM     31  H   SGN d 503      29.602  28.960 148.910  0.00  0.00     0.212 HD
ATOM     32  H   SGN d 503      29.423  28.504 145.370  0.00  0.00     0.076 H 
ATOM     33  H   SGN d 503      31.218  26.846 146.034  0.00  0.00     0.091 H 
ATOM     34  C4  SGN d 501      33.422  18.319 143.624  0.00  0.00     0.089 C 
ATOM     35  C6  SGN d 501      30.904  18.443 143.539  0.00  0.00     0.067 C 
ATOM     36  O6S SGN d 501      28.264  16.365 143.495  0.00  0.00    -0.572 OA
ATOM     37  S1  SGN d 501      37.141  19.162 146.797  0.00  0.00     0.156 S 
ATOM     38  O6  SGN d 501      30.071  17.980 144.600  0.00  0.00    -0.254 OA
ATOM     39  O5S SGN d 501      30.385  15.383 144.118  0.00  0.00    -0.572 OA
ATOM     40  O3S SGN d 501      37.092  17.714 146.494  0.00  0.00    -0.296 OA
ATOM     41  N   SGN d 501      35.703  19.964 146.144  0.00  0.00    -0.210 NA
ATOM     42  O1  SGN d 501      33.199  21.168 145.800  0.00  0.00    -0.348 OA
ATOM     43  C1  SGN d 501      33.262  19.778 146.112  0.00  0.00     0.150 C 
ATOM     44  C5  SGN d 501      32.180  19.061 144.100  0.00  0.00     0.090 C 
ATOM     45  C3  SGN d 501      34.662  19.037 144.142  0.00  0.00     0.083 C 
ATOM     46  O4S SGN d 501      28.787  15.998 145.828  0.00  0.00    -0.572 OA
ATOM     47  O3  SGN d 501      35.824  18.323 143.769  0.00  0.00    -0.391 OA
ATOM     48  S2  SGN d 501      29.347  16.366 144.506  0.00  0.00     0.251 S 
ATOM     49  C2  SGN d 501      34.589  19.167 145.661  0.00  0.00     0.081 C 
ATOM     50  O2S SGN d 501      38.354  19.750 146.183  0.00  0.00    -0.296 OA
ATOM     51  O4  SGN d 501      33.445  18.280 142.196  0.00  0.00    -0.390 OA
ATOM     52  O5  SGN d 501      32.162  19.070 145.531  0.00  0.00    -0.349 OA
ATOM     53  O1S SGN d 501      37.182  19.353 148.264  0.00  0.00    -0.296 OA
ATOM     54  H   SGN d 501      33.407  17.316 143.997  0.00  0.00     0.091 H 
ATOM     55  H   SGN d 501      31.160  17.620 142.904  0.00  0.00     0.080 H 
ATOM     56  H   SGN d 501      30.375  19.185 142.979  0.00  0.00     0.080 H 
ATOM     57  H   SGN d 501      36.298  17.326 146.895  0.00  0.00     0.231 HD
ATOM     58  H   SGN d 501      36.015  20.541 145.363  0.00  0.00     0.140 HD
ATOM     59  H   SGN d 501      33.198  19.685 147.176  0.00  0.00     0.131 H 
ATOM     60  H   SGN d 501      32.219  20.067 143.738  0.00  0.00     0.090 H 
ATOM     61  H   SGN d 501      34.705  20.016 143.711  0.00  0.00     0.089 H 
ATOM     62  H   SGN d 501      35.795  17.434 144.155  0.00  0.00     0.210 HD
ATOM     63  H   SGN d 501      34.651  18.184 146.080  0.00  0.00     0.076 H 
ATOM     64  H   SGN d 501      38.389  20.699 146.379  0.00  0.00     0.231 HD
ATOM     65  H   SGN d 501      33.458  19.186 141.849  0.00  0.00     0.210 HD
ATOM     66  H   SGN d 501      37.214  20.302 148.466  0.00  0.00     0.231 HD
ATOM     67  O2  IDS d 502      33.615  24.901 148.794  0.00  0.00    -0.244 OA
ATOM     68  C3  IDS d 502      33.534  22.965 147.378  0.00  0.00     0.094 C 
ATOM     69  O2S IDS d 502      31.762  25.047 150.693  0.00  0.00    -0.572 OA
ATOM     70  O1S IDS d 502      34.069  24.868 151.409  0.00  0.00    -0.572 OA
ATOM     71  O5  IDS d 502      31.143  23.956 146.257  0.00  0.00    -0.340 OA
ATOM     72  S   IDS d 502      33.155  25.461 150.406  0.00  0.00     0.252 S 
ATOM     73  C1  IDS d 502      31.936  24.801 147.101  0.00  0.00     0.161 C 
ATOM     74  O61 IDS d 502      29.920  21.361 144.728  0.00  0.00    -0.646 OA
ATOM     75  O62 IDS d 502      31.691  22.462 144.045  0.00  0.00    -0.646 OA
ATOM     76  C5  IDS d 502      31.207  22.521 146.378  0.00  0.00     0.152 C 
ATOM     77  O3  IDS d 502      34.426  22.334 148.272  0.00  0.00    -0.390 OA
ATOM     78  C6  IDS d 502      30.935  22.050 144.956  0.00  0.00     0.206 C 
ATOM     79  O3S IDS d 502      33.245  26.936 150.460  0.00  0.00    -0.572 OA
ATOM     80  C4  IDS d 502      32.566  21.942 146.820  0.00  0.00     0.103 C 
ATOM     81  C2  IDS d 502      32.736  24.012 148.113  0.00  0.00     0.134 C 
ATOM     82  H   IDS d 502      34.097  23.415 146.587  0.00  0.00     0.091 H 
ATOM     83  H   IDS d 502      32.615  25.310 146.450  0.00  0.00     0.133 H 
ATOM     84  H   IDS d 502      30.524  22.200 147.137  0.00  0.00     0.104 H 
ATOM     85  H   IDS d 502      33.925  21.923 148.994  0.00  0.00     0.210 HD
ATOM     86  H   IDS d 502      32.309  21.289 147.628  0.00  0.00     0.092 H 
ATOM     87  H   IDS d 502      32.089  23.540 148.822  0.00  0.00     0.097 H 
ENDROOT
TORSDOF 28
ENDMDL
MODEL 56
REMARK VINA RESULT:      -5.4      4.091      9.525
REMARK  0 active torsions:
REMARK  status: ('A' for Active; 'I' for Inactive)
REMARK       I    between atoms: O3_1  and  C3_18 
REMARK       I    between atoms: O6_2  and  C6_6 
REMARK       I    between atoms: O6_2  and  S2_52 
REMARK       I    between atoms: C4_3  and  O4_50 
REMARK       I    between atoms: C6_4  and  C5_31 
REMARK       I    between atoms: C6_4  and  O6_12 
REMARK       I    between atoms: C6_6  and  C5_15 
REMARK       I    between atoms: O2_7  and  C2_53 
REMARK       I    between atoms: O2_7  and  S_26 
REMARK       I    between atoms: C3_8  and  O3_38 
REMARK       I    between atoms: S1_9  and  N_19 
REMARK       I    between atoms: S1_9  and  O1S_55 
REMARK       I    between atoms: S1_9  and  O2S_49 
REMARK       I    between atoms: S1_9  and  O3S_17 
REMARK       I    between atoms: O6_12  and  S2_45 
REMARK       I    between atoms: O1S_14  and  S1_48 
REMARK       I    between atoms: O3S_16  and  S1_48 
REMARK       I    between atoms: N_19  and  C2_46 
REMARK       I    between atoms: O1_22  and  C1_24 
REMARK       I    between atoms: O1_22  and  C4_41 
REMARK       I    between atoms: N_23  and  C2_47 
REMARK       I    between atoms: N_23  and  S1_48 
REMARK       I    between atoms: O2S_25  and  S1_48 
REMARK       I    between atoms: C1_27  and  O4_44 
REMARK       I    between atoms: C3_34  and  O3_43 
REMARK       I    between atoms: C1_35  and  O1_36 
REMARK       I    between atoms: C5_37  and  C6_39 
REMARK       I    between atoms: O4_44  and  C4_54 
ROOT
ATOM      1  O3  SGN d 503      25.312  25.853 143.754  0.00  0.00    -0.391 OA
ATOM      2  O6  SGN d 503      27.754  23.622 140.461  0.00  0.00    -0.254 OA
ATOM      3  C6  SGN d 503      28.833  24.506 140.745  0.00  0.00     0.067 C 
ATOM      4  O1S SGN d 503      22.917  28.538 140.744  0.00  0.00    -0.296 OA
ATOM      5  C5  SGN d 503      28.224  25.720 141.421  0.00  0.00     0.091 C 
ATOM      6  O3S SGN d 503      22.735  27.017 142.612  0.00  0.00    -0.296 OA
ATOM      7  C3  SGN d 503      26.347  26.367 142.943  0.00  0.00     0.083 C 
ATOM      8  O4S SGN d 503      28.425  21.071 140.338  0.00  0.00    -0.572 OA
ATOM      9  N   SGN d 503      25.035  28.298 142.307  0.00  0.00    -0.210 NA
ATOM     10  O2S SGN d 503      22.723  29.409 142.995  0.00  0.00    -0.296 OA
ATOM     11  O5  SGN d 503      27.601  26.501 140.399  0.00  0.00    -0.350 OA
ATOM     12  O6S SGN d 503      26.773  21.874 138.752  0.00  0.00    -0.572 OA
ATOM     13  O5S SGN d 503      29.105  22.476 138.509  0.00  0.00    -0.572 OA
ATOM     14  C1  SGN d 503      26.871  27.635 140.861  0.00  0.00     0.147 C 
ATOM     15  O1  SGN d 503      27.733  28.537 141.546  0.00  0.00    -0.369 OA
ATOM     16  O4  SGN d 503      27.816  24.570 143.489  0.00  0.00    -0.348 OA
ATOM     17  C2  SGN d 503      25.763  27.161 141.789  0.00  0.00     0.081 C 
ATOM     18  S1  SGN d 503      23.277  28.318 142.160  0.00  0.00     0.156 S 
ATOM     19  S2  SGN d 503      28.023  22.197 139.469  0.00  0.00     0.251 S 
ATOM     20  C4  SGN d 503      27.170  25.218 142.397  0.00  0.00     0.095 C 
ATOM     21  H   SGN d 503      24.783  26.585 144.106  0.00  0.00     0.210 HD
ATOM     22  H   SGN d 503      29.324  24.794 139.839  0.00  0.00     0.080 H 
ATOM     23  H   SGN d 503      29.563  24.038 141.372  0.00  0.00     0.080 H 
ATOM     24  H   SGN d 503      23.282  27.820 140.202  0.00  0.00     0.231 HD
ATOM     25  H   SGN d 503      28.953  26.305 141.942  0.00  0.00     0.090 H 
ATOM     26  H   SGN d 503      23.101  26.306 142.063  0.00  0.00     0.231 HD
ATOM     27  H   SGN d 503      26.964  27.011 143.532  0.00  0.00     0.089 H 
ATOM     28  H   SGN d 503      25.385  29.124 141.823  0.00  0.00     0.140 HD
ATOM     29  H   SGN d 503      21.756  29.420 142.915  0.00  0.00     0.231 HD
ATOM     30  H   SGN d 503      26.446  28.150 140.025  0.00  0.00     0.131 H 
ATOM     31  H   SGN d 503      28.129  28.089 142.310  0.00  0.00     0.212 HD
ATOM     32  H   SGN d 503      25.098  26.532 141.235  0.00  0.00     0.076 H 
ATOM     33  H   SGN d 503      26.525  24.541 141.876  0.00  0.00     0.091 H 
ATOM     34  C4  SGN d 501      25.092  16.623 146.192  0.00  0.00     0.089 C 
ATOM     35  C6  SGN d 501      23.595  18.314 147.315  0.00  0.00     0.067 C 
ATOM     36  O6S SGN d 501      21.875  18.670 150.179  0.00  0.00    -0.572 OA
ATOM     37  S1  SGN d 501      29.878  15.977 145.058  0.00  0.00     0.156 S 
ATOM     38  O6  SGN d 501      23.947  18.970 148.532  0.00  0.00    -0.254 OA
ATOM     39  O5S SGN d 501      23.513  16.890 150.131  0.00  0.00    -0.572 OA
ATOM     40  O3S SGN d 501      29.480  14.950 146.047  0.00  0.00    -0.296 OA
ATOM     41  N   SGN d 501      28.592  17.184 144.890  0.00  0.00    -0.210 NA
ATOM     42  O1  SGN d 501      26.983  19.467 145.079  0.00  0.00    -0.348 OA
ATOM     43  C1  SGN d 501      27.156  18.644 146.231  0.00  0.00     0.150 C 
ATOM     44  C5  SGN d 501      24.835  18.101 146.452  0.00  0.00     0.090 C 
ATOM     45  C3  SGN d 501      26.284  16.482 145.254  0.00  0.00     0.083 C 
ATOM     46  O4S SGN d 501      24.048  18.997 151.191  0.00  0.00    -0.572 OA
ATOM     47  O3  SGN d 501      26.583  15.114 145.055  0.00  0.00    -0.391 OA
ATOM     48  S2  SGN d 501      23.320  18.357 150.071  0.00  0.00     0.251 S 
ATOM     49  C2  SGN d 501      27.494  17.204 145.839  0.00  0.00     0.081 C 
ATOM     50  O2S SGN d 501      30.120  15.328 143.748  0.00  0.00    -0.296 OA
ATOM     51  O4  SGN d 501      23.936  16.027 145.601  0.00  0.00    -0.390 OA
ATOM     52  O5  SGN d 501      25.994  18.675 147.065  0.00  0.00    -0.349 OA
ATOM     53  O1S SGN d 501      31.116  16.646 145.519  0.00  0.00    -0.296 OA
ATOM     54  H   SGN d 501      25.303  16.126 147.116  0.00  0.00     0.091 H 
ATOM     55  H   SGN d 501      23.154  17.365 147.539  0.00  0.00     0.080 H 
ATOM     56  H   SGN d 501      22.899  18.924 146.779  0.00  0.00     0.080 H 
ATOM     57  H   SGN d 501      29.322  15.372 146.906  0.00  0.00     0.231 HD
ATOM     58  H   SGN d 501      28.181  17.051 143.966  0.00  0.00     0.140 HD
ATOM     59  H   SGN d 501      27.981  19.039 146.787  0.00  0.00     0.131 H 
ATOM     60  H   SGN d 501      24.646  18.589 145.519  0.00  0.00     0.090 H 
ATOM     61  H   SGN d 501      26.040  16.922 144.309  0.00  0.00     0.089 H 
ATOM     62  H   SGN d 501      26.806  14.705 145.906  0.00  0.00     0.210 HD
ATOM     63  H   SGN d 501      27.788  16.688 146.730  0.00  0.00     0.076 H 
ATOM     64  H   SGN d 501      30.380  15.999 143.098  0.00  0.00     0.231 HD
ATOM     65  H   SGN d 501      23.737  16.472 144.762  0.00  0.00     0.210 HD
ATOM     66  H   SGN d 501      31.380  17.320 144.872  0.00  0.00     0.231 HD
ATOM     67  O2  IDS d 502      29.982  22.786 143.330  0.00  0.00    -0.244 OA
ATOM     68  C3  IDS d 502      28.615  21.030 144.228  0.00  0.00     0.094 C 
ATOM     69  O2S IDS d 502      30.486  24.830 144.952  0.00  0.00    -0.572 OA
ATOM     70  O1S IDS d 502      32.374  23.486 144.244  0.00  0.00    -0.572 OA
ATOM     71  O5  IDS d 502      26.419  22.799 144.191  0.00  0.00    -0.340 OA
ATOM     72  S   IDS d 502      31.083  24.077 143.823  0.00  0.00     0.252 S 
ATOM     73  C1  IDS d 502      27.632  23.159 143.519  0.00  0.00     0.161 C 
ATOM     74  O61 IDS d 502      24.252  21.315 146.107  0.00  0.00    -0.646 OA
ATOM     75  O62 IDS d 502      24.799  20.609 144.104  0.00  0.00    -0.646 OA
ATOM     76  C5  IDS d 502      26.432  21.871 145.295  0.00  0.00     0.152 C 
ATOM     77  O3  IDS d 502      29.801  20.385 144.642  0.00  0.00    -0.390 OA
ATOM     78  C6  IDS d 502      25.076  21.190 145.180  0.00  0.00     0.206 C 
ATOM     79  O3S IDS d 502      31.304  24.999 142.688  0.00  0.00    -0.572 OA
ATOM     80  C4  IDS d 502      27.520  20.780 145.245  0.00  0.00     0.103 C 
ATOM     81  C2  IDS d 502      28.848  22.518 144.148  0.00  0.00     0.134 C 
ATOM     82  H   IDS d 502      28.329  20.646 143.271  0.00  0.00     0.091 H 
ATOM     83  H   IDS d 502      27.531  22.792 142.519  0.00  0.00     0.133 H 
ATOM     84  H   IDS d 502      26.635  22.404 146.201  0.00  0.00     0.104 H 
ATOM     85  H   IDS d 502      30.070  20.726 145.510  0.00  0.00     0.210 HD
ATOM     86  H   IDS d 502      27.978  20.838 146.210  0.00  0.00     0.092 H 
ATOM     87  H   IDS d 502      29.018  22.909 145.129  0.00  0.00     0.097 H 
ENDROOT
TORSDOF 28
ENDMDL
MODEL 57
REMARK VINA RESULT:      -5.4      3.865     10.599
REMARK  0 active torsions:
REMARK  status: ('A' for Active; 'I' for Inactive)
REMARK       I    between atoms: O3_1  and  C3_18 
REMARK       I    between atoms: O6_2  and  C6_6 
REMARK       I    between atoms: O6_2  and  S2_52 
REMARK       I    between atoms: C4_3  and  O4_50 
REMARK       I    between atoms: C6_4  and  C5_31 
REMARK       I    between atoms: C6_4  and  O6_12 
REMARK       I    between atoms: C6_6  and  C5_15 
REMARK       I    between atoms: O2_7  and  C2_53 
REMARK       I    between atoms: O2_7  and  S_26 
REMARK       I    between atoms: C3_8  and  O3_38 
REMARK       I    between atoms: S1_9  and  N_19 
REMARK       I    between atoms: S1_9  and  O1S_55 
REMARK       I    between atoms: S1_9  and  O2S_49 
REMARK       I    between atoms: S1_9  and  O3S_17 
REMARK       I    between atoms: O6_12  and  S2_45 
REMARK       I    between atoms: O1S_14  and  S1_48 
REMARK       I    between atoms: O3S_16  and  S1_48 
REMARK       I    between atoms: N_19  and  C2_46 
REMARK       I    between atoms: O1_22  and  C1_24 
REMARK       I    between atoms: O1_22  and  C4_41 
REMARK       I    between atoms: N_23  and  C2_47 
REMARK       I    between atoms: N_23  and  S1_48 
REMARK       I    between atoms: O2S_25  and  S1_48 
REMARK       I    between atoms: C1_27  and  O4_44 
REMARK       I    between atoms: C3_34  and  O3_43 
REMARK       I    between atoms: C1_35  and  O1_36 
REMARK       I    between atoms: C5_37  and  C6_39 
REMARK       I    between atoms: O4_44  and  C4_54 
ROOT
ATOM      1  O3  SGN d 503      29.032  23.327 145.781  0.00  0.00    -0.391 OA
ATOM      2  O6  SGN d 503      28.863  18.682 146.211  0.00  0.00    -0.254 OA
ATOM      3  C6  SGN d 503      28.011  18.666 145.072  0.00  0.00     0.067 C 
ATOM      4  O1S SGN d 503      25.826  24.164 149.102  0.00  0.00    -0.296 OA
ATOM      5  C5  SGN d 503      27.422  20.060 144.959  0.00  0.00     0.091 C 
ATOM      6  O3S SGN d 503      28.048  24.702 148.319  0.00  0.00    -0.296 OA
ATOM      7  C3  SGN d 503      27.989  22.457 145.398  0.00  0.00     0.083 C 
ATOM      8  O4S SGN d 503      30.844  16.938 146.129  0.00  0.00    -0.572 OA
ATOM      9  N   SGN d 503      26.316  23.788 146.532  0.00  0.00    -0.210 NA
ATOM     10  O2S SGN d 503      26.185  26.144 147.753  0.00  0.00    -0.296 OA
ATOM     11  O5  SGN d 503      26.405  20.167 145.957  0.00  0.00    -0.350 OA
ATOM     12  O6S SGN d 503      29.762  17.304 148.269  0.00  0.00    -0.572 OA
ATOM     13  O5S SGN d 503      28.634  16.074 146.517  0.00  0.00    -0.572 OA
ATOM     14  C1  SGN d 503      25.809  21.456 146.082  0.00  0.00     0.147 C 
ATOM     15  O1  SGN d 503      25.177  21.832 144.862  0.00  0.00    -0.369 OA
ATOM     16  O4  SGN d 503      29.469  21.042 144.177  0.00  0.00    -0.348 OA
ATOM     17  C2  SGN d 503      26.889  22.463 146.444  0.00  0.00     0.081 C 
ATOM     18  S1  SGN d 503      26.606  24.743 147.988  0.00  0.00     0.156 S 
ATOM     19  S2  SGN d 503      29.557  17.183 146.812  0.00  0.00     0.251 S 
ATOM     20  C4  SGN d 503      28.537  21.052 145.255  0.00  0.00     0.095 C 
ATOM     21  H   SGN d 503      28.684  24.227 145.873  0.00  0.00     0.210 HD
ATOM     22  H   SGN d 503      27.232  17.945 145.202  0.00  0.00     0.080 H 
ATOM     23  H   SGN d 503      28.552  18.401 144.187  0.00  0.00     0.080 H 
ATOM     24  H   SGN d 503      26.106  23.247 149.251  0.00  0.00     0.231 HD
ATOM     25  H   SGN d 503      27.012  20.252 143.989  0.00  0.00     0.090 H 
ATOM     26  H   SGN d 503      28.318  23.783 148.472  0.00  0.00     0.231 HD
ATOM     27  H   SGN d 503      27.583  22.788 144.465  0.00  0.00     0.089 H 
ATOM     28  H   SGN d 503      25.306  23.686 146.437  0.00  0.00     0.140 HD
ATOM     29  H   SGN d 503      26.344  26.668 148.553  0.00  0.00     0.231 HD
ATOM     30  H   SGN d 503      25.065  21.432 146.849  0.00  0.00     0.131 H 
ATOM     31  H   SGN d 503      25.836  21.861 144.151  0.00  0.00     0.212 HD
ATOM     32  H   SGN d 503      27.307  22.191 147.391  0.00  0.00     0.076 H 
ATOM     33  H   SGN d 503      29.008  20.765 146.172  0.00  0.00     0.091 H 
ATOM     34  C4  SGN d 501      38.124  20.409 145.782  0.00  0.00     0.089 C 
ATOM     35  C6  SGN d 501      37.527  22.848 146.020  0.00  0.00     0.067 C 
ATOM     36  O6S SGN d 501      38.942  25.860 145.557  0.00  0.00    -0.572 OA
ATOM     37  S1  SGN d 501      37.119  16.542 142.841  0.00  0.00     0.156 S 
ATOM     38  O6  SGN d 501      37.466  23.740 144.909  0.00  0.00    -0.254 OA
ATOM     39  O5S SGN d 501      40.093  23.977 144.566  0.00  0.00    -0.572 OA
ATOM     40  O3S SGN d 501      38.549  16.894 142.693  0.00  0.00    -0.296 OA
ATOM     41  N   SGN d 501      36.282  17.795 143.773  0.00  0.00    -0.210 NA
ATOM     42  O1  SGN d 501      34.762  20.002 144.583  0.00  0.00    -0.348 OA
ATOM     43  C1  SGN d 501      35.973  20.222 143.862  0.00  0.00     0.150 C 
ATOM     44  C5  SGN d 501      37.038  21.462 145.612  0.00  0.00     0.090 C 
ATOM     45  C3  SGN d 501      37.547  19.039 145.448  0.00  0.00     0.083 C 
ATOM     46  O4S SGN d 501      38.676  25.384 143.200  0.00  0.00    -0.572 OA
ATOM     47  O3  SGN d 501      38.560  18.055 145.531  0.00  0.00    -0.391 OA
ATOM     48  S2  SGN d 501      38.850  24.783 144.543  0.00  0.00     0.251 S 
ATOM     49  C2  SGN d 501      36.947  19.057 144.044  0.00  0.00     0.081 C 
ATOM     50  O2S SGN d 501      37.004  15.244 143.546  0.00  0.00    -0.296 OA
ATOM     51  O4  SGN d 501      38.601  20.419 147.128  0.00  0.00    -0.390 OA
ATOM     52  O5  SGN d 501      36.588  21.454 144.253  0.00  0.00    -0.349 OA
ATOM     53  O1S SGN d 501      36.500  16.437 141.500  0.00  0.00    -0.296 OA
ATOM     54  H   SGN d 501      38.940  20.624 145.124  0.00  0.00     0.091 H 
ATOM     55  H   SGN d 501      38.539  22.778 146.362  0.00  0.00     0.080 H 
ATOM     56  H   SGN d 501      36.901  23.222 146.802  0.00  0.00     0.080 H 
ATOM     57  H   SGN d 501      38.627  17.744 142.231  0.00  0.00     0.231 HD
ATOM     58  H   SGN d 501      36.048  17.384 144.676  0.00  0.00     0.140 HD
ATOM     59  H   SGN d 501      35.721  20.286 142.824  0.00  0.00     0.131 H 
ATOM     60  H   SGN d 501      36.220  21.223 146.259  0.00  0.00     0.090 H 
ATOM     61  H   SGN d 501      36.777  18.802 146.152  0.00  0.00     0.089 H 
ATOM     62  H   SGN d 501      39.264  18.261 144.896  0.00  0.00     0.210 HD
ATOM     63  H   SGN d 501      37.746  19.192 143.345  0.00  0.00     0.076 H 
ATOM     64  H   SGN d 501      36.067  15.011 143.645  0.00  0.00     0.231 HD
ATOM     65  H   SGN d 501      37.868  20.224 147.732  0.00  0.00     0.210 HD
ATOM     66  H   SGN d 501      35.562  16.207 141.594  0.00  0.00     0.231 HD
ATOM     67  O2  IDS d 502      30.458  18.774 142.843  0.00  0.00    -0.244 OA
ATOM     68  C3  IDS d 502      32.675  19.277 143.609  0.00  0.00     0.094 C 
ATOM     69  O2S IDS d 502      29.367  20.525 141.167  0.00  0.00    -0.572 OA
ATOM     70  O1S IDS d 502      29.779  18.292 140.322  0.00  0.00    -0.572 OA
ATOM     71  O5  IDS d 502      31.614  21.430 145.089  0.00  0.00    -0.340 OA
ATOM     72  S   IDS d 502      29.351  19.081 141.500  0.00  0.00     0.252 S 
ATOM     73  C1  IDS d 502      30.730  20.466 144.504  0.00  0.00     0.161 C 
ATOM     74  O61 IDS d 502      34.250  23.188 145.817  0.00  0.00    -0.646 OA
ATOM     75  O62 IDS d 502      33.791  21.240 146.717  0.00  0.00    -0.646 OA
ATOM     76  C5  IDS d 502      32.925  21.662 144.537  0.00  0.00     0.152 C 
ATOM     77  O3  IDS d 502      33.169  18.519 142.525  0.00  0.00    -0.390 OA
ATOM     78  C6  IDS d 502      33.743  22.049 145.760  0.00  0.00     0.206 C 
ATOM     79  O3S IDS d 502      27.979  18.688 141.890  0.00  0.00    -0.572 OA
ATOM     80  C4  IDS d 502      33.603  20.445 143.876  0.00  0.00     0.103 C 
ATOM     81  C2  IDS d 502      31.315  19.829 143.265  0.00  0.00     0.134 C 
ATOM     82  H   IDS d 502      32.612  18.646 144.472  0.00  0.00     0.091 H 
ATOM     83  H   IDS d 502      30.592  19.708 145.246  0.00  0.00     0.133 H 
ATOM     84  H   IDS d 502      32.855  22.383 143.749  0.00  0.00     0.104 H 
ATOM     85  H   IDS d 502      33.229  19.082 141.737  0.00  0.00     0.210 HD
ATOM     86  H   IDS d 502      33.911  20.817 142.922  0.00  0.00     0.092 H 
ATOM     87  H   IDS d 502      31.407  20.547 142.477  0.00  0.00     0.097 H 
ENDROOT
TORSDOF 28
ENDMDL
MODEL 58
REMARK VINA RESULT:      -5.4      4.124      9.208
REMARK  0 active torsions:
REMARK  status: ('A' for Active; 'I' for Inactive)
REMARK       I    between atoms: O3_1  and  C3_18 
REMARK       I    between atoms: O6_2  and  C6_6 
REMARK       I    between atoms: O6_2  and  S2_52 
REMARK       I    between atoms: C4_3  and  O4_50 
REMARK       I    between atoms: C6_4  and  C5_31 
REMARK       I    between atoms: C6_4  and  O6_12 
REMARK       I    between atoms: C6_6  and  C5_15 
REMARK       I    between atoms: O2_7  and  C2_53 
REMARK       I    between atoms: O2_7  and  S_26 
REMARK       I    between atoms: C3_8  and  O3_38 
REMARK       I    between atoms: S1_9  and  N_19 
REMARK       I    between atoms: S1_9  and  O1S_55 
REMARK       I    between atoms: S1_9  and  O2S_49 
REMARK       I    between atoms: S1_9  and  O3S_17 
REMARK       I    between atoms: O6_12  and  S2_45 
REMARK       I    between atoms: O1S_14  and  S1_48 
REMARK       I    between atoms: O3S_16  and  S1_48 
REMARK       I    between atoms: N_19  and  C2_46 
REMARK       I    between atoms: O1_22  and  C1_24 
REMARK       I    between atoms: O1_22  and  C4_41 
REMARK       I    between atoms: N_23  and  C2_47 
REMARK       I    between atoms: N_23  and  S1_48 
REMARK       I    between atoms: O2S_25  and  S1_48 
REMARK       I    between atoms: C1_27  and  O4_44 
REMARK       I    between atoms: C3_34  and  O3_43 
REMARK       I    between atoms: C1_35  and  O1_36 
REMARK       I    between atoms: C5_37  and  C6_39 
REMARK       I    between atoms: O4_44  and  C4_54 
ROOT
ATOM      1  O3  SGN d 503      27.139  27.014 141.074  0.00  0.00    -0.391 OA
ATOM      2  O6  SGN d 503      24.284  26.185 144.672  0.00  0.00    -0.254 OA
ATOM      3  C6  SGN d 503      23.921  24.969 144.028  0.00  0.00     0.067 C 
ATOM      4  O1S SGN d 503      24.197  29.933 138.878  0.00  0.00    -0.296 OA
ATOM      5  C5  SGN d 503      24.273  25.140 142.562  0.00  0.00     0.091 C 
ATOM      6  O3S SGN d 503      26.448  29.651 139.708  0.00  0.00    -0.296 OA
ATOM      7  C3  SGN d 503      25.941  26.269 141.077  0.00  0.00     0.083 C 
ATOM      8  O4S SGN d 503      24.875  25.939 147.234  0.00  0.00    -0.572 OA
ATOM      9  N   SGN d 503      25.071  27.455 139.156  0.00  0.00    -0.210 NA
ATOM     10  O2S SGN d 503      25.957  29.216 137.375  0.00  0.00    -0.296 OA
ATOM     11  O5  SGN d 503      23.266  25.971 141.983  0.00  0.00    -0.350 OA
ATOM     12  O6S SGN d 503      23.650  27.919 146.551  0.00  0.00    -0.572 OA
ATOM     13  O5S SGN d 503      22.558  25.760 146.619  0.00  0.00    -0.572 OA
ATOM     14  C1  SGN d 503      23.490  26.341 140.624  0.00  0.00     0.147 C 
ATOM     15  O1  SGN d 503      23.540  25.184 139.795  0.00  0.00    -0.369 OA
ATOM     16  O4  SGN d 503      26.637  24.949 142.937  0.00  0.00    -0.348 OA
ATOM     17  C2  SGN d 503      24.800  27.107 140.533  0.00  0.00     0.081 C 
ATOM     18  S1  SGN d 503      25.435  29.135 138.760  0.00  0.00     0.156 S 
ATOM     19  S2  SGN d 503      23.820  26.466 146.344  0.00  0.00     0.251 S 
ATOM     20  C4  SGN d 503      25.620  25.845 142.496  0.00  0.00     0.095 C 
ATOM     21  H   SGN d 503      27.348  27.286 140.167  0.00  0.00     0.210 HD
ATOM     22  H   SGN d 503      22.871  24.791 144.138  0.00  0.00     0.080 H 
ATOM     23  H   SGN d 503      24.435  24.134 144.456  0.00  0.00     0.080 H 
ATOM     24  H   SGN d 503      23.860  29.877 139.786  0.00  0.00     0.231 HD
ATOM     25  H   SGN d 503      24.326  24.205 142.044  0.00  0.00     0.090 H 
ATOM     26  H   SGN d 503      26.102  29.596 140.613  0.00  0.00     0.231 HD
ATOM     27  H   SGN d 503      26.065  25.406 140.457  0.00  0.00     0.089 H 
ATOM     28  H   SGN d 503      24.251  27.190 138.612  0.00  0.00     0.140 HD
ATOM     29  H   SGN d 503      26.157  30.140 137.158  0.00  0.00     0.231 HD
ATOM     30  H   SGN d 503      22.685  26.958 140.285  0.00  0.00     0.131 H 
ATOM     31  H   SGN d 503      24.265  24.609 140.086  0.00  0.00     0.212 HD
ATOM     32  H   SGN d 503      24.714  28.000 141.117  0.00  0.00     0.076 H 
ATOM     33  H   SGN d 503      25.577  26.713 143.120  0.00  0.00     0.091 H 
ATOM     34  C4  SGN d 501      32.606  27.578 148.884  0.00  0.00     0.089 C 
ATOM     35  C6  SGN d 501      33.443  28.355 146.635  0.00  0.00     0.067 C 
ATOM     36  O6S SGN d 501      36.365  28.909 145.072  0.00  0.00    -0.572 OA
ATOM     37  S1  SGN d 501      30.454  23.614 150.950  0.00  0.00     0.156 S 
ATOM     38  O6  SGN d 501      34.199  27.520 145.761  0.00  0.00    -0.254 OA
ATOM     39  O5S SGN d 501      36.478  27.638 147.127  0.00  0.00    -0.572 OA
ATOM     40  O3S SGN d 501      31.809  23.774 151.523  0.00  0.00    -0.296 OA
ATOM     41  N   SGN d 501      30.249  24.708 149.572  0.00  0.00    -0.210 NA
ATOM     42  O1  SGN d 501      30.078  25.837 147.016  0.00  0.00    -0.348 OA
ATOM     43  C1  SGN d 501      31.345  25.383 147.490  0.00  0.00     0.150 C 
ATOM     44  C5  SGN d 501      32.394  27.533 147.376  0.00  0.00     0.090 C 
ATOM     45  C3  SGN d 501      31.477  26.816 149.569  0.00  0.00     0.083 C 
ATOM     46  O4S SGN d 501      36.534  26.497 144.995  0.00  0.00    -0.572 OA
ATOM     47  O3  SGN d 501      31.693  26.787 150.966  0.00  0.00    -0.391 OA
ATOM     48  S2  SGN d 501      35.965  27.646 145.738  0.00  0.00     0.251 S 
ATOM     49  C2  SGN d 501      31.402  25.394 149.018  0.00  0.00     0.081 C 
ATOM     50  O2S SGN d 501      29.443  23.930 151.986  0.00  0.00    -0.296 OA
ATOM     51  O4  SGN d 501      32.616  28.935 149.331  0.00  0.00    -0.390 OA
ATOM     52  O5  SGN d 501      32.410  26.168 146.944  0.00  0.00    -0.349 OA
ATOM     53  O1S SGN d 501      30.278  22.217 150.492  0.00  0.00    -0.296 OA
ATOM     54  H   SGN d 501      33.543  27.125 149.130  0.00  0.00     0.091 H 
ATOM     55  H   SGN d 501      34.100  28.812 147.346  0.00  0.00     0.080 H 
ATOM     56  H   SGN d 501      32.950  29.109 146.057  0.00  0.00     0.080 H 
ATOM     57  H   SGN d 501      32.473  23.567 150.847  0.00  0.00     0.231 HD
ATOM     58  H   SGN d 501      29.588  25.429 149.863  0.00  0.00     0.140 HD
ATOM     59  H   SGN d 501      31.467  24.373 147.160  0.00  0.00     0.131 H 
ATOM     60  H   SGN d 501      31.444  27.968 147.147  0.00  0.00     0.090 H 
ATOM     61  H   SGN d 501      30.550  27.314 149.373  0.00  0.00     0.089 H 
ATOM     62  H   SGN d 501      32.532  26.337 151.154  0.00  0.00     0.210 HD
ATOM     63  H   SGN d 501      32.293  24.880 149.311  0.00  0.00     0.076 H 
ATOM     64  H   SGN d 501      28.554  23.827 151.612  0.00  0.00     0.231 HD
ATOM     65  H   SGN d 501      31.768  29.353 149.112  0.00  0.00     0.210 HD
ATOM     66  H   SGN d 501      29.390  22.109 150.116  0.00  0.00     0.231 HD
ATOM     67  O2  IDS d 502      26.501  23.227 145.155  0.00  0.00    -0.244 OA
ATOM     68  C3  IDS d 502      28.307  24.414 146.199  0.00  0.00     0.094 C 
ATOM     69  O2S IDS d 502      27.090  21.927 142.913  0.00  0.00    -0.572 OA
ATOM     70  O1S IDS d 502      26.390  20.597 144.813  0.00  0.00    -0.572 OA
ATOM     71  O5  IDS d 502      28.282  26.234 144.046  0.00  0.00    -0.340 OA
ATOM     72  S   IDS d 502      26.176  21.865 144.078  0.00  0.00     0.252 S 
ATOM     73  C1  IDS d 502      27.210  25.294 144.194  0.00  0.00     0.161 C 
ATOM     74  O61 IDS d 502      31.129  27.773 144.354  0.00  0.00    -0.646 OA
ATOM     75  O62 IDS d 502      29.431  28.055 145.716  0.00  0.00    -0.646 OA
ATOM     76  C5  IDS d 502      29.587  25.959 144.592  0.00  0.00     0.152 C 
ATOM     77  O3  IDS d 502      28.563  23.253 146.962  0.00  0.00    -0.390 OA
ATOM     78  C6  IDS d 502      30.109  27.347 144.934  0.00  0.00     0.206 C 
ATOM     79  O3S IDS d 502      24.778  21.934 143.602  0.00  0.00    -0.572 OA
ATOM     80  C4  IDS d 502      29.614  25.110 145.878  0.00  0.00     0.103 C 
ATOM     81  C2  IDS d 502      27.648  24.031 144.898  0.00  0.00     0.134 C 
ATOM     82  H   IDS d 502      27.668  25.063 146.762  0.00  0.00     0.091 H 
ATOM     83  H   IDS d 502      26.474  25.784 144.797  0.00  0.00     0.133 H 
ATOM     84  H   IDS d 502      30.152  25.386 143.886  0.00  0.00     0.104 H 
ATOM     85  H   IDS d 502      29.142  22.657 146.460  0.00  0.00     0.210 HD
ATOM     86  H   IDS d 502      30.325  24.341 145.656  0.00  0.00     0.092 H 
ATOM     87  H   IDS d 502      28.339  23.480 144.294  0.00  0.00     0.097 H 
ENDROOT
TORSDOF 28
ENDMDL
MODEL 59
REMARK VINA RESULT:      -5.3      3.922      8.999
REMARK  0 active torsions:
REMARK  status: ('A' for Active; 'I' for Inactive)
REMARK       I    between atoms: O3_1  and  C3_18 
REMARK       I    between atoms: O6_2  and  C6_6 
REMARK       I    between atoms: O6_2  and  S2_52 
REMARK       I    between atoms: C4_3  and  O4_50 
REMARK       I    between atoms: C6_4  and  C5_31 
REMARK       I    between atoms: C6_4  and  O6_12 
REMARK       I    between atoms: C6_6  and  C5_15 
REMARK       I    between atoms: O2_7  and  C2_53 
REMARK       I    between atoms: O2_7  and  S_26 
REMARK       I    between atoms: C3_8  and  O3_38 
REMARK       I    between atoms: S1_9  and  N_19 
REMARK       I    between atoms: S1_9  and  O1S_55 
REMARK       I    between atoms: S1_9  and  O2S_49 
REMARK       I    between atoms: S1_9  and  O3S_17 
REMARK       I    between atoms: O6_12  and  S2_45 
REMARK       I    between atoms: O1S_14  and  S1_48 
REMARK       I    between atoms: O3S_16  and  S1_48 
REMARK       I    between atoms: N_19  and  C2_46 
REMARK       I    between atoms: O1_22  and  C1_24 
REMARK       I    between atoms: O1_22  and  C4_41 
REMARK       I    between atoms: N_23  and  C2_47 
REMARK       I    between atoms: N_23  and  S1_48 
REMARK       I    between atoms: O2S_25  and  S1_48 
REMARK       I    between atoms: C1_27  and  O4_44 
REMARK       I    between atoms: C3_34  and  O3_43 
REMARK       I    between atoms: C1_35  and  O1_36 
REMARK       I    between atoms: C5_37  and  C6_39 
REMARK       I    between atoms: O4_44  and  C4_54 
ROOT
ATOM      1  O3  SGN d 503      30.871  24.003 149.972  0.00  0.00    -0.391 OA
ATOM      2  O6  SGN d 503      28.945  27.382 147.392  0.00  0.00    -0.254 OA
ATOM      3  C6  SGN d 503      30.227  27.998 147.348  0.00  0.00     0.067 C 
ATOM      4  O1S SGN d 503      29.362  25.707 154.075  0.00  0.00    -0.296 OA
ATOM      5  C5  SGN d 503      31.010  27.441 148.522  0.00  0.00     0.091 C 
ATOM      6  O3S SGN d 503      29.469  23.745 152.668  0.00  0.00    -0.296 OA
ATOM      7  C3  SGN d 503      31.262  25.356 149.882  0.00  0.00     0.083 C 
ATOM      8  O4S SGN d 503      27.733  27.193 145.054  0.00  0.00    -0.572 OA
ATOM      9  N   SGN d 503      31.307  25.616 152.288  0.00  0.00    -0.210 NA
ATOM     10  O2S SGN d 503      31.103  24.060 154.430  0.00  0.00    -0.296 OA
ATOM     11  O5  SGN d 503      30.525  28.092 149.697  0.00  0.00    -0.350 OA
ATOM     12  O6S SGN d 503      26.362  27.712 146.988  0.00  0.00    -0.572 OA
ATOM     13  O5S SGN d 503      27.853  29.375 146.057  0.00  0.00    -0.572 OA
ATOM     14  C1  SGN d 503      31.067  27.613 150.925  0.00  0.00     0.147 C 
ATOM     15  O1  SGN d 503      32.479  27.797 150.952  0.00  0.00    -0.369 OA
ATOM     16  O4  SGN d 503      31.331  25.291 147.500  0.00  0.00    -0.348 OA
ATOM     17  C2  SGN d 503      30.729  26.137 151.068  0.00  0.00     0.081 C 
ATOM     18  S1  SGN d 503      30.268  24.743 153.415  0.00  0.00     0.156 S 
ATOM     19  S2  SGN d 503      27.663  27.940 146.327  0.00  0.00     0.251 S 
ATOM     20  C4  SGN d 503      30.712  25.951 148.602  0.00  0.00     0.095 C 
ATOM     21  H   SGN d 503      31.222  23.619 150.791  0.00  0.00     0.210 HD
ATOM     22  H   SGN d 503      30.130  29.060 147.439  0.00  0.00     0.080 H 
ATOM     23  H   SGN d 503      30.721  27.798 146.421  0.00  0.00     0.080 H 
ATOM     24  H   SGN d 503      28.818  26.151 153.405  0.00  0.00     0.231 HD
ATOM     25  H   SGN d 503      32.064  27.596 148.419  0.00  0.00     0.090 H 
ATOM     26  H   SGN d 503      28.925  24.197 152.005  0.00  0.00     0.231 HD
ATOM     27  H   SGN d 503      32.331  25.411 149.881  0.00  0.00     0.089 H 
ATOM     28  H   SGN d 503      31.701  26.408 152.795  0.00  0.00     0.140 HD
ATOM     29  H   SGN d 503      30.532  23.580 155.050  0.00  0.00     0.231 HD
ATOM     30  H   SGN d 503      30.644  28.162 151.740  0.00  0.00     0.131 H 
ATOM     31  H   SGN d 503      32.884  27.306 150.220  0.00  0.00     0.212 HD
ATOM     32  H   SGN d 503      29.665  26.033 151.105  0.00  0.00     0.076 H 
ATOM     33  H   SGN d 503      29.651  25.818 148.582  0.00  0.00     0.091 H 
ATOM     34  C4  SGN d 501      26.740  19.570 142.593  0.00  0.00     0.089 C 
ATOM     35  C6  SGN d 501      27.582  18.285 144.593  0.00  0.00     0.067 C 
ATOM     36  O6S SGN d 501      28.544  15.163 145.379  0.00  0.00    -0.572 OA
ATOM     37  S1  SGN d 501      28.313  22.993 139.366  0.00  0.00     0.156 S 
ATOM     38  O6  SGN d 501      28.882  17.701 144.645  0.00  0.00    -0.254 OA
ATOM     39  O5S SGN d 501      28.362  15.662 143.018  0.00  0.00    -0.572 OA
ATOM     40  O3S SGN d 501      28.073  21.727 138.638  0.00  0.00    -0.296 OA
ATOM     41  N   SGN d 501      28.221  22.712 141.112  0.00  0.00    -0.210 NA
ATOM     42  O1  SGN d 501      28.799  22.249 143.812  0.00  0.00    -0.348 OA
ATOM     43  C1  SGN d 501      29.089  21.230 142.856  0.00  0.00     0.150 C 
ATOM     44  C5  SGN d 501      27.626  19.605 143.831  0.00  0.00     0.090 C 
ATOM     45  C3  SGN d 501      26.755  20.941 141.929  0.00  0.00     0.083 C 
ATOM     46  O4S SGN d 501      30.527  15.682 144.096  0.00  0.00    -0.572 OA
ATOM     47  O3  SGN d 501      25.994  20.910 140.738  0.00  0.00    -0.391 OA
ATOM     48  S2  SGN d 501      29.087  15.982 144.269  0.00  0.00     0.251 S 
ATOM     49  C2  SGN d 501      28.193  21.354 141.623  0.00  0.00     0.081 C 
ATOM     50  O2S SGN d 501      27.287  23.987 138.971  0.00  0.00    -0.296 OA
ATOM     51  O4  SGN d 501      25.404  19.225 142.964  0.00  0.00    -0.390 OA
ATOM     52  O5  SGN d 501      28.964  19.929 143.438  0.00  0.00    -0.349 OA
ATOM     53  O1S SGN d 501      29.660  23.505 139.025  0.00  0.00    -0.296 OA
ATOM     54  H   SGN d 501      27.109  18.836 141.907  0.00  0.00     0.091 H 
ATOM     55  H   SGN d 501      26.912  17.613 144.098  0.00  0.00     0.080 H 
ATOM     56  H   SGN d 501      27.243  18.470 145.591  0.00  0.00     0.080 H 
ATOM     57  H   SGN d 501      28.744  21.074 138.894  0.00  0.00     0.231 HD
ATOM     58  H   SGN d 501      27.370  23.169 141.440  0.00  0.00     0.140 HD
ATOM     59  H   SGN d 501      30.104  21.363 142.544  0.00  0.00     0.131 H 
ATOM     60  H   SGN d 501      27.259  20.356 144.498  0.00  0.00     0.090 H 
ATOM     61  H   SGN d 501      26.323  21.658 142.597  0.00  0.00     0.089 H 
ATOM     62  H   SGN d 501      26.378  20.263 140.126  0.00  0.00     0.210 HD
ATOM     63  H   SGN d 501      28.575  20.688 140.878  0.00  0.00     0.076 H 
ATOM     64  H   SGN d 501      27.442  24.818 139.447  0.00  0.00     0.231 HD
ATOM     65  H   SGN d 501      25.061  19.885 143.586  0.00  0.00     0.210 HD
ATOM     66  H   SGN d 501      29.820  24.336 139.501  0.00  0.00     0.231 HD
ATOM     67  O2  IDS d 502      31.370  26.175 144.831  0.00  0.00    -0.244 OA
ATOM     68  C3  IDS d 502      30.114  24.243 144.162  0.00  0.00     0.094 C 
ATOM     69  O2S IDS d 502      33.814  25.721 145.772  0.00  0.00    -0.572 OA
ATOM     70  O1S IDS d 502      33.637  26.992 143.717  0.00  0.00    -0.572 OA
ATOM     71  O5  IDS d 502      29.933  23.492 146.874  0.00  0.00    -0.340 OA
ATOM     72  S   IDS d 502      33.029  26.746 145.045  0.00  0.00     0.252 S 
ATOM     73  C1  IDS d 502      30.413  24.797 146.529  0.00  0.00     0.161 C 
ATOM     74  O61 IDS d 502      29.001  20.382 146.711  0.00  0.00    -0.646 OA
ATOM     75  O62 IDS d 502      27.698  22.076 146.218  0.00  0.00    -0.646 OA
ATOM     76  C5  IDS d 502      30.045  22.394 145.947  0.00  0.00     0.152 C 
ATOM     77  O3  IDS d 502      30.629  24.421 142.859  0.00  0.00    -0.390 OA
ATOM     78  C6  IDS d 502      28.830  21.541 146.284  0.00  0.00     0.206 C 
ATOM     79  O3S IDS d 502      33.023  28.000 145.830  0.00  0.00    -0.572 OA
ATOM     80  C4  IDS d 502      29.967  22.763 144.452  0.00  0.00     0.103 C 
ATOM     81  C2  IDS d 502      31.073  24.825 145.170  0.00  0.00     0.134 C 
ATOM     82  H   IDS d 502      29.164  24.732 144.228  0.00  0.00     0.091 H 
ATOM     83  H   IDS d 502      29.550  25.428 146.503  0.00  0.00     0.133 H 
ATOM     84  H   IDS d 502      31.007  21.937 146.055  0.00  0.00     0.104 H 
ATOM     85  H   IDS d 502      31.491  23.982 142.788  0.00  0.00     0.210 HD
ATOM     86  H   IDS d 502      30.824  22.281 144.030  0.00  0.00     0.092 H 
ATOM     87  H   IDS d 502      31.979  24.254 145.177  0.00  0.00     0.097 H 
ENDROOT
TORSDOF 28
ENDMDL
MODEL 60
REMARK VINA RESULT:      -5.3      2.937     10.808
REMARK  0 active torsions:
REMARK  status: ('A' for Active; 'I' for Inactive)
REMARK       I    between atoms: O3_1  and  C3_18 
REMARK       I    between atoms: O6_2  and  C6_6 
REMARK       I    between atoms: O6_2  and  S2_52 
REMARK       I    between atoms: C4_3  and  O4_50 
REMARK       I    between atoms: C6_4  and  C5_31 
REMARK       I    between atoms: C6_4  and  O6_12 
REMARK       I    between atoms: C6_6  and  C5_15 
REMARK       I    between atoms: O2_7  and  C2_53 
REMARK       I    between atoms: O2_7  and  S_26 
REMARK       I    between atoms: C3_8  and  O3_38 
REMARK       I    between atoms: S1_9  and  N_19 
REMARK       I    between atoms: S1_9  and  O1S_55 
REMARK       I    between atoms: S1_9  and  O2S_49 
REMARK       I    between atoms: S1_9  and  O3S_17 
REMARK       I    between atoms: O6_12  and  S2_45 
REMARK       I    between atoms: O1S_14  and  S1_48 
REMARK       I    between atoms: O3S_16  and  S1_48 
REMARK       I    between atoms: N_19  and  C2_46 
REMARK       I    between atoms: O1_22  and  C1_24 
REMARK       I    between atoms: O1_22  and  C4_41 
REMARK       I    between atoms: N_23  and  C2_47 
REMARK       I    between atoms: N_23  and  S1_48 
REMARK       I    between atoms: O2S_25  and  S1_48 
REMARK       I    between atoms: C1_27  and  O4_44 
REMARK       I    between atoms: C3_34  and  O3_43 
REMARK       I    between atoms: C1_35  and  O1_36 
REMARK       I    between atoms: C5_37  and  C6_39 
REMARK       I    between atoms: O4_44  and  C4_54 
ROOT
ATOM      1  O3  SGN d 503      26.356  25.910 144.207  0.00  0.00    -0.391 OA
ATOM      2  O6  SGN d 503      30.045  27.809 146.345  0.00  0.00    -0.254 OA
ATOM      3  C6  SGN d 503      29.158  28.229 147.375  0.00  0.00     0.067 C 
ATOM      4  O1S SGN d 503      25.750  29.461 141.202  0.00  0.00    -0.296 OA
ATOM      5  C5  SGN d 503      27.768  28.233 146.767  0.00  0.00     0.091 C 
ATOM      6  O3S SGN d 503      25.993  27.066 141.408  0.00  0.00    -0.296 OA
ATOM      7  C3  SGN d 503      26.379  27.025 145.072  0.00  0.00     0.083 C 
ATOM      8  O4S SGN d 503      32.249  26.634 147.202  0.00  0.00    -0.572 OA
ATOM      9  N   SGN d 503      25.106  28.386 143.529  0.00  0.00    -0.210 NA
ATOM     10  O2S SGN d 503      23.783  28.047 141.250  0.00  0.00    -0.296 OA
ATOM     11  O5  SGN d 503      27.672  29.398 145.946  0.00  0.00    -0.350 OA
ATOM     12  O6S SGN d 503      32.438  28.110 145.286  0.00  0.00    -0.572 OA
ATOM     13  O5S SGN d 503      32.084  29.014 147.502  0.00  0.00    -0.572 OA
ATOM     14  C1  SGN d 503      26.467  29.514 145.195  0.00  0.00     0.147 C 
ATOM     15  O1  SGN d 503      25.341  29.579 146.065  0.00  0.00    -0.369 OA
ATOM     16  O4  SGN d 503      27.590  25.838 146.748  0.00  0.00    -0.348 OA
ATOM     17  C2  SGN d 503      26.345  28.313 144.270  0.00  0.00     0.081 C 
ATOM     18  S1  SGN d 503      25.158  28.233 141.772  0.00  0.00     0.156 S 
ATOM     19  S2  SGN d 503      31.783  27.896 146.592  0.00  0.00     0.251 S 
ATOM     20  C4  SGN d 503      27.644  26.985 145.904  0.00  0.00     0.095 C 
ATOM     21  H   SGN d 503      25.547  25.932 143.673  0.00  0.00     0.210 HD
ATOM     22  H   SGN d 503      29.418  29.212 147.710  0.00  0.00     0.080 H 
ATOM     23  H   SGN d 503      29.210  27.577 148.222  0.00  0.00     0.080 H 
ATOM     24  H   SGN d 503      26.649  29.578 141.547  0.00  0.00     0.231 HD
ATOM     25  H   SGN d 503      26.998  28.239 147.511  0.00  0.00     0.090 H 
ATOM     26  H   SGN d 503      26.892  27.192 141.752  0.00  0.00     0.231 HD
ATOM     27  H   SGN d 503      25.521  26.990 145.710  0.00  0.00     0.089 H 
ATOM     28  H   SGN d 503      24.683  29.290 143.738  0.00  0.00     0.140 HD
ATOM     29  H   SGN d 503      23.812  27.963 140.284  0.00  0.00     0.231 HD
ATOM     30  H   SGN d 503      26.492  30.414 144.617  0.00  0.00     0.131 H 
ATOM     31  H   SGN d 503      25.299  28.770 146.600  0.00  0.00     0.212 HD
ATOM     32  H   SGN d 503      27.170  28.321 143.589  0.00  0.00     0.076 H 
ATOM     33  H   SGN d 503      28.492  26.942 145.252  0.00  0.00     0.091 H 
ATOM     34  C4  SGN d 501      32.730  18.856 145.097  0.00  0.00     0.089 C 
ATOM     35  C6  SGN d 501      30.690  18.607 143.635  0.00  0.00     0.067 C 
ATOM     36  O6S SGN d 501      28.808  16.161 142.306  0.00  0.00    -0.572 OA
ATOM     37  S1  SGN d 501      33.924  20.215 149.716  0.00  0.00     0.156 S 
ATOM     38  O6  SGN d 501      29.476  18.016 144.096  0.00  0.00    -0.254 OA
ATOM     39  O5S SGN d 501      30.333  15.499 144.063  0.00  0.00    -0.572 OA
ATOM     40  O3S SGN d 501      34.237  18.778 149.546  0.00  0.00    -0.296 OA
ATOM     41  N   SGN d 501      33.000  20.800 148.323  0.00  0.00    -0.210 NA
ATOM     42  O1  SGN d 501      30.977  21.623 146.572  0.00  0.00    -0.348 OA
ATOM     43  C1  SGN d 501      31.033  20.255 146.971  0.00  0.00     0.150 C 
ATOM     44  C5  SGN d 501      31.350  19.402 144.756  0.00  0.00     0.090 C 
ATOM     45  C3  SGN d 501      33.371  19.745 146.155  0.00  0.00     0.083 C 
ATOM     46  O4S SGN d 501      27.993  15.856 144.563  0.00  0.00    -0.572 OA
ATOM     47  O3  SGN d 501      34.625  19.215 146.536  0.00  0.00    -0.391 OA
ATOM     48  S2  SGN d 501      29.139  16.314 143.743  0.00  0.00     0.251 S 
ATOM     49  C2  SGN d 501      32.454  19.851 147.370  0.00  0.00     0.081 C 
ATOM     50  O2S SGN d 501      35.188  20.981 149.827  0.00  0.00    -0.296 OA
ATOM     51  O4  SGN d 501      33.545  18.833 143.924  0.00  0.00    -0.390 OA
ATOM     52  O5  SGN d 501      30.541  19.396 145.937  0.00  0.00    -0.349 OA
ATOM     53  O1S SGN d 501      33.121  20.398 150.946  0.00  0.00    -0.296 OA
ATOM     54  H   SGN d 501      32.639  17.859 145.475  0.00  0.00     0.091 H 
ATOM     55  H   SGN d 501      31.357  17.835 143.310  0.00  0.00     0.080 H 
ATOM     56  H   SGN d 501      30.470  19.267 142.822  0.00  0.00     0.080 H 
ATOM     57  H   SGN d 501      33.411  18.273 149.474  0.00  0.00     0.231 HD
ATOM     58  H   SGN d 501      33.616  21.423 147.801  0.00  0.00     0.140 HD
ATOM     59  H   SGN d 501      30.403  20.145 147.829  0.00  0.00     0.131 H 
ATOM     60  H   SGN d 501      31.453  20.405 144.400  0.00  0.00     0.090 H 
ATOM     61  H   SGN d 501      33.520  20.724 145.746  0.00  0.00     0.089 H 
ATOM     62  H   SGN d 501      34.501  18.328 146.908  0.00  0.00     0.210 HD
ATOM     63  H   SGN d 501      32.398  18.885 147.826  0.00  0.00     0.076 H 
ATOM     64  H   SGN d 501      34.986  21.923 149.938  0.00  0.00     0.231 HD
ATOM     65  H   SGN d 501      33.632  19.733 143.574  0.00  0.00     0.210 HD
ATOM     66  H   SGN d 501      32.914  21.339 151.061  0.00  0.00     0.231 HD
ATOM     67  O2  IDS d 502      29.184  25.351 149.012  0.00  0.00    -0.244 OA
ATOM     68  C3  IDS d 502      30.149  23.437 147.934  0.00  0.00     0.094 C 
ATOM     69  O2S IDS d 502      26.588  25.205 149.564  0.00  0.00    -0.572 OA
ATOM     70  O1S IDS d 502      28.113  25.365 151.441  0.00  0.00    -0.572 OA
ATOM     71  O5  IDS d 502      28.676  24.072 145.614  0.00  0.00    -0.340 OA
ATOM     72  S   IDS d 502      27.841  25.824 150.059  0.00  0.00     0.252 S 
ATOM     73  C1  IDS d 502      28.753  25.017 146.688  0.00  0.00     0.161 C 
ATOM     74  O61 IDS d 502      28.849  21.337 143.865  0.00  0.00    -0.646 OA
ATOM     75  O62 IDS d 502      30.543  22.693 144.186  0.00  0.00    -0.646 OA
ATOM     76  C5  IDS d 502      28.845  22.661 145.858  0.00  0.00     0.152 C 
ATOM     77  O3  IDS d 502      30.468  22.937 149.216  0.00  0.00    -0.390 OA
ATOM     78  C6  IDS d 502      29.469  22.167 144.561  0.00  0.00     0.206 C 
ATOM     79  O3S IDS d 502      27.696  27.295 150.043  0.00  0.00    -0.572 OA
ATOM     80  C4  IDS d 502      29.792  22.285 147.015  0.00  0.00     0.103 C 
ATOM     81  C2  IDS d 502      28.951  24.348 148.029  0.00  0.00     0.134 C 
ATOM     82  H   IDS d 502      30.993  23.971 147.551  0.00  0.00     0.091 H 
ATOM     83  H   IDS d 502      29.607  25.626 146.480  0.00  0.00     0.133 H 
ATOM     84  H   IDS d 502      27.904  22.236 146.139  0.00  0.00     0.104 H 
ATOM     85  H   IDS d 502      29.708  22.451 149.573  0.00  0.00     0.210 HD
ATOM     86  H   IDS d 502      29.216  21.596 147.596  0.00  0.00     0.092 H 
ATOM     87  H   IDS d 502      28.086  23.779 148.300  0.00  0.00     0.097 H 
ENDROOT
TORSDOF 28
ENDMDL
MODEL 61
REMARK VINA RESULT:      -5.3      4.418      7.555
REMARK  0 active torsions:
REMARK  status: ('A' for Active; 'I' for Inactive)
REMARK       I    between atoms: O3_1  and  C3_18 
REMARK       I    between atoms: O6_2  and  C6_6 
REMARK       I    between atoms: O6_2  and  S2_52 
REMARK       I    between atoms: C4_3  and  O4_50 
REMARK       I    between atoms: C6_4  and  C5_31 
REMARK       I    between atoms: C6_4  and  O6_12 
REMARK       I    between atoms: C6_6  and  C5_15 
REMARK       I    between atoms: O2_7  and  C2_53 
REMARK       I    between atoms: O2_7  and  S_26 
REMARK       I    between atoms: C3_8  and  O3_38 
REMARK       I    between atoms: S1_9  and  N_19 
REMARK       I    between atoms: S1_9  and  O1S_55 
REMARK       I    between atoms: S1_9  and  O2S_49 
REMARK       I    between atoms: S1_9  and  O3S_17 
REMARK       I    between atoms: O6_12  and  S2_45 
REMARK       I    between atoms: O1S_14  and  S1_48 
REMARK       I    between atoms: O3S_16  and  S1_48 
REMARK       I    between atoms: N_19  and  C2_46 
REMARK       I    between atoms: O1_22  and  C1_24 
REMARK       I    between atoms: O1_22  and  C4_41 
REMARK       I    between atoms: N_23  and  C2_47 
REMARK       I    between atoms: N_23  and  S1_48 
REMARK       I    between atoms: O2S_25  and  S1_48 
REMARK       I    between atoms: C1_27  and  O4_44 
REMARK       I    between atoms: C3_34  and  O3_43 
REMARK       I    between atoms: C1_35  and  O1_36 
REMARK       I    between atoms: C5_37  and  C6_39 
REMARK       I    between atoms: O4_44  and  C4_54 
ROOT
ATOM      1  O3  SGN d 503      30.952  23.411 141.373  0.00  0.00    -0.391 OA
ATOM      2  O6  SGN d 503      27.046  21.296 142.805  0.00  0.00    -0.254 OA
ATOM      3  C6  SGN d 503      27.567  20.091 142.257  0.00  0.00     0.067 C 
ATOM      4  O1S SGN d 503      29.037  25.230 137.496  0.00  0.00    -0.296 OA
ATOM      5  C5  SGN d 503      28.615  20.502 141.240  0.00  0.00     0.091 C 
ATOM      6  O3S SGN d 503      30.322  25.720 139.483  0.00  0.00    -0.296 OA
ATOM      7  C3  SGN d 503      30.320  22.283 140.809  0.00  0.00     0.083 C 
ATOM      8  O4S SGN d 503      26.089  21.067 145.256  0.00  0.00    -0.572 OA
ATOM      9  N   SGN d 503      30.377  23.228 138.582  0.00  0.00    -0.210 NA
ATOM     10  O2S SGN d 503      31.455  25.334 137.375  0.00  0.00    -0.296 OA
ATOM     11  O5  SGN d 503      27.918  20.955 140.078  0.00  0.00    -0.350 OA
ATOM     12  O6S SGN d 503      24.895  22.514 143.717  0.00  0.00    -0.572 OA
ATOM     13  O5S SGN d 503      24.790  20.108 143.474  0.00  0.00    -0.572 OA
ATOM     14  C1  SGN d 503      28.741  21.493 139.047  0.00  0.00     0.147 C 
ATOM     15  O1  SGN d 503      29.655  20.509 138.573  0.00  0.00    -0.369 OA
ATOM     16  O4  SGN d 503      30.215  21.156 142.908  0.00  0.00    -0.348 OA
ATOM     17  C2  SGN d 503      29.500  22.690 139.599  0.00  0.00     0.081 C 
ATOM     18  S1  SGN d 503      30.297  24.952 138.217  0.00  0.00     0.156 S 
ATOM     19  S2  SGN d 503      25.640  21.247 143.859  0.00  0.00     0.251 S 
ATOM     20  C4  SGN d 503      29.409  21.653 141.842  0.00  0.00     0.095 C 
ATOM     21  H   SGN d 503      31.537  23.817 140.714  0.00  0.00     0.210 HD
ATOM     22  H   SGN d 503      26.788  19.534 141.780  0.00  0.00     0.080 H 
ATOM     23  H   SGN d 503      27.988  19.469 143.019  0.00  0.00     0.080 H 
ATOM     24  H   SGN d 503      28.283  24.978 138.052  0.00  0.00     0.231 HD
ATOM     25  H   SGN d 503      29.275  19.698 140.987  0.00  0.00     0.090 H 
ATOM     26  H   SGN d 503      29.563  25.466 140.030  0.00  0.00     0.231 HD
ATOM     27  H   SGN d 503      31.066  21.580 140.503  0.00  0.00     0.089 H 
ATOM     28  H   SGN d 503      30.174  22.729 137.716  0.00  0.00     0.140 HD
ATOM     29  H   SGN d 503      31.410  26.282 137.175  0.00  0.00     0.231 HD
ATOM     30  H   SGN d 503      28.129  21.801 138.226  0.00  0.00     0.131 H 
ATOM     31  H   SGN d 503      30.222  20.216 139.304  0.00  0.00     0.212 HD
ATOM     32  H   SGN d 503      28.793  23.437 139.892  0.00  0.00     0.076 H 
ATOM     33  H   SGN d 503      28.717  22.389 142.196  0.00  0.00     0.091 H 
ATOM     34  C4  SGN d 501      30.296  25.268 150.717  0.00  0.00     0.089 C 
ATOM     35  C6  SGN d 501      31.947  26.484 149.248  0.00  0.00     0.067 C 
ATOM     36  O6S SGN d 501      34.823  28.196 149.546  0.00  0.00    -0.572 OA
ATOM     37  S1  SGN d 501      28.874  20.633 151.766  0.00  0.00     0.156 S 
ATOM     38  O6  SGN d 501      33.299  26.060 149.089  0.00  0.00    -0.254 OA
ATOM     39  O5S SGN d 501      34.157  26.885 151.467  0.00  0.00    -0.572 OA
ATOM     40  O3S SGN d 501      29.491  21.227 152.974  0.00  0.00    -0.296 OA
ATOM     41  N   SGN d 501      29.141  21.689 150.370  0.00  0.00    -0.210 NA
ATOM     42  O1  SGN d 501      30.102  22.890 148.031  0.00  0.00    -0.348 OA
ATOM     43  C1  SGN d 501      30.923  22.891 149.198  0.00  0.00     0.150 C 
ATOM     44  C5  SGN d 501      31.026  25.276 149.380  0.00  0.00     0.090 C 
ATOM     45  C3  SGN d 501      29.328  24.092 150.749  0.00  0.00     0.083 C 
ATOM     46  O4S SGN d 501      35.822  26.027 149.937  0.00  0.00    -0.572 OA
ATOM     47  O3  SGN d 501      28.691  24.025 152.009  0.00  0.00    -0.391 OA
ATOM     48  S2  SGN d 501      34.577  26.823 150.048  0.00  0.00     0.251 S 
ATOM     49  C2  SGN d 501      30.079  22.793 150.470  0.00  0.00     0.081 C 
ATOM     50  O2S SGN d 501      27.419  20.470 151.991  0.00  0.00    -0.296 OA
ATOM     51  O4  SGN d 501      29.579  26.492 150.884  0.00  0.00    -0.390 OA
ATOM     52  O5  SGN d 501      31.756  24.053 149.239  0.00  0.00    -0.349 OA
ATOM     53  O1S SGN d 501      29.489  19.312 151.503  0.00  0.00    -0.296 OA
ATOM     54  H   SGN d 501      31.005  25.169 151.513  0.00  0.00     0.091 H 
ATOM     55  H   SGN d 501      31.867  27.087 150.129  0.00  0.00     0.080 H 
ATOM     56  H   SGN d 501      31.657  27.052 148.389  0.00  0.00     0.080 H 
ATOM     57  H   SGN d 501      30.445  21.334 152.830  0.00  0.00     0.231 HD
ATOM     58  H   SGN d 501      28.236  22.091 150.127  0.00  0.00     0.140 HD
ATOM     59  H   SGN d 501      31.552  22.027 149.148  0.00  0.00     0.131 H 
ATOM     60  H   SGN d 501      30.305  25.353 148.593  0.00  0.00     0.090 H 
ATOM     61  H   SGN d 501      28.583  24.231 149.993  0.00  0.00     0.089 H 
ATOM     62  H   SGN d 501      29.358  23.899 152.702  0.00  0.00     0.210 HD
ATOM     63  H   SGN d 501      30.747  22.616 151.287  0.00  0.00     0.076 H 
ATOM     64  H   SGN d 501      27.011  20.081 151.201  0.00  0.00     0.231 HD
ATOM     65  H   SGN d 501      28.934  26.589 150.166  0.00  0.00     0.210 HD
ATOM     66  H   SGN d 501      29.086  18.919 150.712  0.00  0.00     0.231 HD
ATOM     67  O2  IDS d 502      29.426  19.322 144.887  0.00  0.00    -0.244 OA
ATOM     68  C3  IDS d 502      29.752  20.993 146.579  0.00  0.00     0.094 C 
ATOM     69  O2S IDS d 502      31.604  18.521 143.591  0.00  0.00    -0.572 OA
ATOM     70  O1S IDS d 502      30.446  16.872 144.936  0.00  0.00    -0.572 OA
ATOM     71  O5  IDS d 502      30.351  22.853 144.546  0.00  0.00    -0.340 OA
ATOM     72  S   IDS d 502      30.276  18.031 144.030  0.00  0.00     0.252 S 
ATOM     73  C1  IDS d 502      29.795  21.579 144.201  0.00  0.00     0.161 C 
ATOM     74  O61 IDS d 502      31.751  25.293 146.176  0.00  0.00    -0.646 OA
ATOM     75  O62 IDS d 502      29.611  24.820 146.281  0.00  0.00    -0.646 OA
ATOM     76  C5  IDS d 502      31.096  23.028 145.767  0.00  0.00     0.152 C 
ATOM     77  O3  IDS d 502      29.901  19.945 147.514  0.00  0.00    -0.390 OA
ATOM     78  C6  IDS d 502      30.808  24.477 146.134  0.00  0.00     0.206 C 
ATOM     79  O3S IDS d 502      29.491  17.626 142.844  0.00  0.00    -0.572 OA
ATOM     80  C4  IDS d 502      30.666  22.142 146.953  0.00  0.00     0.103 C 
ATOM     81  C2  IDS d 502      30.147  20.507 145.207  0.00  0.00     0.134 C 
ATOM     82  H   IDS d 502      28.731  21.314 146.579  0.00  0.00     0.091 H 
ATOM     83  H   IDS d 502      28.733  21.713 144.203  0.00  0.00     0.133 H 
ATOM     84  H   IDS d 502      32.119  22.763 145.598  0.00  0.00     0.104 H 
ATOM     85  H   IDS d 502      30.824  19.647 147.522  0.00  0.00     0.210 HD
ATOM     86  H   IDS d 502      31.585  21.707 147.287  0.00  0.00     0.092 H 
ATOM     87  H   IDS d 502      31.197  20.300 145.187  0.00  0.00     0.097 H 
ENDROOT
TORSDOF 28
ENDMDL
MODEL 62
REMARK VINA RESULT:      -5.3      2.561      3.152
REMARK  0 active torsions:
REMARK  status: ('A' for Active; 'I' for Inactive)
REMARK       I    between atoms: O3_1  and  C3_18 
REMARK       I    between atoms: O6_2  and  C6_6 
REMARK       I    between atoms: O6_2  and  S2_52 
REMARK       I    between atoms: C4_3  and  O4_50 
REMARK       I    between atoms: C6_4  and  C5_31 
REMARK       I    between atoms: C6_4  and  O6_12 
REMARK       I    between atoms: C6_6  and  C5_15 
REMARK       I    between atoms: O2_7  and  C2_53 
REMARK       I    between atoms: O2_7  and  S_26 
REMARK       I    between atoms: C3_8  and  O3_38 
REMARK       I    between atoms: S1_9  and  N_19 
REMARK       I    between atoms: S1_9  and  O1S_55 
REMARK       I    between atoms: S1_9  and  O2S_49 
REMARK       I    between atoms: S1_9  and  O3S_17 
REMARK       I    between atoms: O6_12  and  S2_45 
REMARK       I    between atoms: O1S_14  and  S1_48 
REMARK       I    between atoms: O3S_16  and  S1_48 
REMARK       I    between atoms: N_19  and  C2_46 
REMARK       I    between atoms: O1_22  and  C1_24 
REMARK       I    between atoms: O1_22  and  C4_41 
REMARK       I    between atoms: N_23  and  C2_47 
REMARK       I    between atoms: N_23  and  S1_48 
REMARK       I    between atoms: O2S_25  and  S1_48 
REMARK       I    between atoms: C1_27  and  O4_44 
REMARK       I    between atoms: C3_34  and  O3_43 
REMARK       I    between atoms: C1_35  and  O1_36 
REMARK       I    between atoms: C5_37  and  C6_39 
REMARK       I    between atoms: O4_44  and  C4_54 
ROOT
ATOM      1  O3  SGN d 503      32.842  20.351 146.564  0.00  0.00    -0.391 OA
ATOM      2  O6  SGN d 503      30.250  18.705 143.048  0.00  0.00    -0.254 OA
ATOM      3  C6  SGN d 503      29.796  17.690 143.936  0.00  0.00     0.067 C 
ATOM      4  O1S SGN d 503      36.827  18.346 145.111  0.00  0.00    -0.296 OA
ATOM      5  C5  SGN d 503      30.828  17.599 145.045  0.00  0.00     0.091 C 
ATOM      6  O3S SGN d 503      35.797  20.416 145.814  0.00  0.00    -0.296 OA
ATOM      7  C3  SGN d 503      32.428  19.021 146.340  0.00  0.00     0.083 C 
ATOM      8  O4S SGN d 503      28.337  19.919 141.692  0.00  0.00    -0.572 OA
ATOM      9  N   SGN d 503      34.672  18.160 146.629  0.00  0.00    -0.210 NA
ATOM     10  O2S SGN d 503      37.037  19.080 147.410  0.00  0.00    -0.296 OA
ATOM     11  O5  SGN d 503      31.954  16.898 144.514  0.00  0.00    -0.350 OA
ATOM     12  O6S SGN d 503      30.422  19.472 140.534  0.00  0.00    -0.572 OA
ATOM     13  O5S SGN d 503      28.889  17.670 141.043  0.00  0.00    -0.572 OA
ATOM     14  C1  SGN d 503      33.081  16.813 145.382  0.00  0.00     0.147 C 
ATOM     15  O1  SGN d 503      32.738  16.117 146.576  0.00  0.00    -0.369 OA
ATOM     16  O4  SGN d 503      30.147  19.659 146.074  0.00  0.00    -0.348 OA
ATOM     17  C2  SGN d 503      33.554  18.220 145.713  0.00  0.00     0.081 C 
ATOM     18  S1  SGN d 503      36.147  19.039 146.226  0.00  0.00     0.156 S 
ATOM     19  S2  SGN d 503      29.441  18.953 141.508  0.00  0.00     0.251 S 
ATOM     20  C4  SGN d 503      31.233  19.020 145.409  0.00  0.00     0.095 C 
ATOM     21  H   SGN d 503      33.607  20.355 147.160  0.00  0.00     0.210 HD
ATOM     22  H   SGN d 503      29.722  16.755 143.422  0.00  0.00     0.080 H 
ATOM     23  H   SGN d 503      28.827  17.921 144.326  0.00  0.00     0.080 H 
ATOM     24  H   SGN d 503      36.240  18.322 144.339  0.00  0.00     0.231 HD
ATOM     25  H   SGN d 503      30.452  17.095 145.911  0.00  0.00     0.090 H 
ATOM     26  H   SGN d 503      35.215  20.384 145.039  0.00  0.00     0.231 HD
ATOM     27  H   SGN d 503      32.163  18.575 147.276  0.00  0.00     0.089 H 
ATOM     28  H   SGN d 503      34.926  17.177 146.729  0.00  0.00     0.140 HD
ATOM     29  H   SGN d 503      37.849  19.563 147.189  0.00  0.00     0.231 HD
ATOM     30  H   SGN d 503      33.865  16.272 144.895  0.00  0.00     0.131 H 
ATOM     31  H   SGN d 503      32.027  16.591 147.035  0.00  0.00     0.212 HD
ATOM     32  H   SGN d 503      33.861  18.699 144.806  0.00  0.00     0.076 H 
ATOM     33  H   SGN d 503      31.490  19.538 144.508  0.00  0.00     0.091 H 
ATOM     34  C4  SGN d 501      27.542  27.721 143.602  0.00  0.00     0.089 C 
ATOM     35  C6  SGN d 501      29.476  28.047 145.189  0.00  0.00     0.067 C 
ATOM     36  O6S SGN d 501      30.538  30.279 147.465  0.00  0.00    -0.572 OA
ATOM     37  S1  SGN d 501      23.491  24.901 143.113  0.00  0.00     0.156 S 
ATOM     38  O6  SGN d 501      29.316  28.073 146.606  0.00  0.00    -0.254 OA
ATOM     39  O5S SGN d 501      28.239  30.501 146.744  0.00  0.00    -0.572 OA
ATOM     40  O3S SGN d 501      23.071  26.306 143.315  0.00  0.00    -0.296 OA
ATOM     41  N   SGN d 501      25.230  24.742 143.406  0.00  0.00    -0.210 NA
ATOM     42  O1  SGN d 501      27.752  24.254 144.518  0.00  0.00    -0.348 OA
ATOM     43  C1  SGN d 501      26.947  25.299 145.060  0.00  0.00     0.150 C 
ATOM     44  C5  SGN d 501      28.508  27.046 144.567  0.00  0.00     0.090 C 
ATOM     45  C3  SGN d 501      26.667  26.660 142.948  0.00  0.00     0.083 C 
ATOM     46  O4S SGN d 501      28.749  29.405 148.839  0.00  0.00    -0.572 OA
ATOM     47  O3  SGN d 501      25.716  27.273 142.100  0.00  0.00    -0.391 OA
ATOM     48  S2  SGN d 501      29.206  29.627 147.448  0.00  0.00     0.251 S 
ATOM     49  C2  SGN d 501      25.961  25.835 144.021  0.00  0.00     0.081 C 
ATOM     50  O2S SGN d 501      23.186  24.495 141.721  0.00  0.00    -0.296 OA
ATOM     51  O4  SGN d 501      28.274  28.431 142.601  0.00  0.00    -0.390 OA
ATOM     52  O5  SGN d 501      27.758  26.360 145.574  0.00  0.00    -0.349 OA
ATOM     53  O1S SGN d 501      22.755  24.030 144.058  0.00  0.00    -0.296 OA
ATOM     54  H   SGN d 501      26.926  28.414 144.136  0.00  0.00     0.091 H 
ATOM     55  H   SGN d 501      29.278  29.022 144.792  0.00  0.00     0.080 H 
ATOM     56  H   SGN d 501      30.478  27.754 144.956  0.00  0.00     0.080 H 
ATOM     57  H   SGN d 501      23.269  26.575 144.226  0.00  0.00     0.231 HD
ATOM     58  H   SGN d 501      25.667  24.566 142.501  0.00  0.00     0.140 HD
ATOM     59  H   SGN d 501      26.384  24.883 145.869  0.00  0.00     0.131 H 
ATOM     60  H   SGN d 501      29.103  26.342 144.024  0.00  0.00     0.090 H 
ATOM     61  H   SGN d 501      27.284  26.010 142.361  0.00  0.00     0.089 H 
ATOM     62  H   SGN d 501      25.151  27.864 142.623  0.00  0.00     0.210 HD
ATOM     63  H   SGN d 501      25.273  26.477 144.530  0.00  0.00     0.076 H 
ATOM     64  H   SGN d 501      23.460  23.574 141.585  0.00  0.00     0.231 HD
ATOM     65  H   SGN d 501      28.836  27.810 142.112  0.00  0.00     0.210 HD
ATOM     66  H   SGN d 501      23.028  23.108 143.928  0.00  0.00     0.231 HD
ATOM     67  O2  IDS d 502      27.434  19.534 145.346  0.00  0.00    -0.244 OA
ATOM     68  C3  IDS d 502      27.429  21.896 144.922  0.00  0.00     0.094 C 
ATOM     69  O2S IDS d 502      27.830  18.793 147.868  0.00  0.00    -0.572 OA
ATOM     70  O1S IDS d 502      25.688  18.246 146.876  0.00  0.00    -0.572 OA
ATOM     71  O5  IDS d 502      30.193  21.944 145.474  0.00  0.00    -0.340 OA
ATOM     72  S   IDS d 502      27.145  18.354 146.629  0.00  0.00     0.252 S 
ATOM     73  C1  IDS d 502      29.523  20.688 145.312  0.00  0.00     0.161 C 
ATOM     74  O61 IDS d 502      30.799  25.109 145.906  0.00  0.00    -0.646 OA
ATOM     75  O62 IDS d 502      30.344  24.205 143.959  0.00  0.00    -0.646 OA
ATOM     76  C5  IDS d 502      29.471  23.119 145.893  0.00  0.00     0.152 C 
ATOM     77  O3  IDS d 502      26.030  21.877 145.117  0.00  0.00    -0.390 OA
ATOM     78  C6  IDS d 502      30.230  24.245 145.207  0.00  0.00     0.206 C 
ATOM     79  O3S IDS d 502      27.678  17.037 146.219  0.00  0.00    -0.572 OA
ATOM     80  C4  IDS d 502      27.997  23.198 145.448  0.00  0.00     0.103 C 
ATOM     81  C2  IDS d 502      28.062  20.764 145.691  0.00  0.00     0.134 C 
ATOM     82  H   IDS d 502      27.633  21.795 143.877  0.00  0.00     0.091 H 
ATOM     83  H   IDS d 502      29.595  20.452 144.271  0.00  0.00     0.133 H 
ATOM     84  H   IDS d 502      29.424  23.142 146.962  0.00  0.00     0.104 H 
ATOM     85  H   IDS d 502      25.833  21.968 146.063  0.00  0.00     0.210 HD
ATOM     86  H   IDS d 502      27.473  23.418 146.355  0.00  0.00     0.092 H 
ATOM     87  H   IDS d 502      27.952  20.936 146.742  0.00  0.00     0.097 H 
ENDROOT
TORSDOF 28
ENDMDL
MODEL 63
REMARK VINA RESULT:      -5.3      4.374      8.578
REMARK  0 active torsions:
REMARK  status: ('A' for Active; 'I' for Inactive)
REMARK       I    between atoms: O3_1  and  C3_18 
REMARK       I    between atoms: O6_2  and  C6_6 
REMARK       I    between atoms: O6_2  and  S2_52 
REMARK       I    between atoms: C4_3  and  O4_50 
REMARK       I    between atoms: C6_4  and  C5_31 
REMARK       I    between atoms: C6_4  and  O6_12 
REMARK       I    between atoms: C6_6  and  C5_15 
REMARK       I    between atoms: O2_7  and  C2_53 
REMARK       I    between atoms: O2_7  and  S_26 
REMARK       I    between atoms: C3_8  and  O3_38 
REMARK       I    between atoms: S1_9  and  N_19 
REMARK       I    between atoms: S1_9  and  O1S_55 
REMARK       I    between atoms: S1_9  and  O2S_49 
REMARK       I    between atoms: S1_9  and  O3S_17 
REMARK       I    between atoms: O6_12  and  S2_45 
REMARK       I    between atoms: O1S_14  and  S1_48 
REMARK       I    between atoms: O3S_16  and  S1_48 
REMARK       I    between atoms: N_19  and  C2_46 
REMARK       I    between atoms: O1_22  and  C1_24 
REMARK       I    between atoms: O1_22  and  C4_41 
REMARK       I    between atoms: N_23  and  C2_47 
REMARK       I    between atoms: N_23  and  S1_48 
REMARK       I    between atoms: O2S_25  and  S1_48 
REMARK       I    between atoms: C1_27  and  O4_44 
REMARK       I    between atoms: C3_34  and  O3_43 
REMARK       I    between atoms: C1_35  and  O1_36 
REMARK       I    between atoms: C5_37  and  C6_39 
REMARK       I    between atoms: O4_44  and  C4_54 
ROOT
ATOM      1  O3  SGN d 503      30.001  23.841 142.113  0.00  0.00    -0.391 OA
ATOM      2  O6  SGN d 503      28.889  19.318 141.808  0.00  0.00    -0.254 OA
ATOM      3  C6  SGN d 503      30.054  19.146 141.010  0.00  0.00     0.067 C 
ATOM      4  O1S SGN d 503      27.006  25.227 138.780  0.00  0.00    -0.296 OA
ATOM      5  C5  SGN d 503      30.403  20.517 140.461  0.00  0.00     0.091 C 
ATOM      6  O3S SGN d 503      27.749  25.600 141.048  0.00  0.00    -0.296 OA
ATOM      7  C3  SGN d 503      30.301  22.942 141.067  0.00  0.00     0.083 C 
ATOM      8  O4S SGN d 503      28.611  17.546 143.747  0.00  0.00    -0.572 OA
ATOM      9  N   SGN d 503      29.463  24.459 139.378  0.00  0.00    -0.210 NA
ATOM     10  O2S SGN d 503      28.617  26.974 139.250  0.00  0.00    -0.296 OA
ATOM     11  O5  SGN d 503      29.484  20.791 139.402  0.00  0.00    -0.350 OA
ATOM     12  O6S SGN d 503      26.606  18.250 142.576  0.00  0.00    -0.572 OA
ATOM     13  O5S SGN d 503      28.208  16.790 141.500  0.00  0.00    -0.572 OA
ATOM     14  C1  SGN d 503      29.583  22.095 138.834  0.00  0.00     0.147 C 
ATOM     15  O1  SGN d 503      30.875  22.294 138.268  0.00  0.00    -0.369 OA
ATOM     16  O4  SGN d 503      31.222  21.333 142.566  0.00  0.00    -0.348 OA
ATOM     17  C2  SGN d 503      29.323  23.126 139.922  0.00  0.00     0.081 C 
ATOM     18  S1  SGN d 503      28.154  25.617 139.624  0.00  0.00     0.156 S 
ATOM     19  S2  SGN d 503      28.037  17.914 142.436  0.00  0.00     0.251 S 
ATOM     20  C4  SGN d 503      30.204  21.522 141.586  0.00  0.00     0.095 C 
ATOM     21  H   SGN d 503      30.062  24.751 141.785  0.00  0.00     0.210 HD
ATOM     22  H   SGN d 503      29.856  18.466 140.207  0.00  0.00     0.080 H 
ATOM     23  H   SGN d 503      30.861  18.740 141.583  0.00  0.00     0.080 H 
ATOM     24  H   SGN d 503      26.707  24.338 139.029  0.00  0.00     0.231 HD
ATOM     25  H   SGN d 503      31.410  20.567 140.102  0.00  0.00     0.090 H 
ATOM     26  H   SGN d 503      27.448  24.710 141.288  0.00  0.00     0.231 HD
ATOM     27  H   SGN d 503      31.292  23.135 140.714  0.00  0.00     0.089 H 
ATOM     28  H   SGN d 503      29.591  24.361 138.372  0.00  0.00     0.140 HD
ATOM     29  H   SGN d 503      27.897  27.610 139.385  0.00  0.00     0.231 HD
ATOM     30  H   SGN d 503      28.859  22.200 138.055  0.00  0.00     0.131 H 
ATOM     31  H   SGN d 503      31.549  22.203 138.960  0.00  0.00     0.212 HD
ATOM     32  H   SGN d 503      28.327  22.991 140.288  0.00  0.00     0.076 H 
ATOM     33  H   SGN d 503      29.233  21.368 142.008  0.00  0.00     0.091 H 
ATOM     34  C4  SGN d 501      29.115  20.794 151.120  0.00  0.00     0.089 C 
ATOM     35  C6  SGN d 501      29.275  23.251 150.574  0.00  0.00     0.067 C 
ATOM     36  O6S SGN d 501      30.113  26.133 152.084  0.00  0.00    -0.572 OA
ATOM     37  S1  SGN d 501      31.489  16.546 150.154  0.00  0.00     0.156 S 
ATOM     38  O6  SGN d 501      30.509  23.966 150.586  0.00  0.00    -0.254 OA
ATOM     39  O5S SGN d 501      30.753  24.102 153.231  0.00  0.00    -0.572 OA
ATOM     40  O3S SGN d 501      31.617  16.846 151.598  0.00  0.00    -0.296 OA
ATOM     41  N   SGN d 501      30.798  17.940 149.307  0.00  0.00    -0.210 NA
ATOM     42  O1  SGN d 501      30.403  20.271 147.807  0.00  0.00    -0.348 OA
ATOM     43  C1  SGN d 501      31.089  20.358 149.055  0.00  0.00     0.150 C 
ATOM     44  C5  SGN d 501      29.494  21.829 150.069  0.00  0.00     0.090 C 
ATOM     45  C3  SGN d 501      29.268  19.399 150.525  0.00  0.00     0.083 C 
ATOM     46  O4S SGN d 501      32.382  25.312 151.915  0.00  0.00    -0.572 OA
ATOM     47  O3  SGN d 501      28.988  18.422 151.507  0.00  0.00    -0.391 OA
ATOM     48  S2  SGN d 501      30.957  24.917 152.012  0.00  0.00     0.251 S 
ATOM     49  C2  SGN d 501      30.687  19.216 149.990  0.00  0.00     0.081 C 
ATOM     50  O2S SGN d 501      30.604  15.372 149.974  0.00  0.00    -0.296 OA
ATOM     51  O4  SGN d 501      27.763  20.998 151.534  0.00  0.00    -0.390 OA
ATOM     52  O5  SGN d 501      30.857  21.623 149.683  0.00  0.00    -0.349 OA
ATOM     53  O1S SGN d 501      32.828  16.252 149.595  0.00  0.00    -0.296 OA
ATOM     54  H   SGN d 501      29.757  20.892 151.970  0.00  0.00     0.091 H 
ATOM     55  H   SGN d 501      28.876  23.215 151.566  0.00  0.00     0.080 H 
ATOM     56  H   SGN d 501      28.589  23.750 149.922  0.00  0.00     0.080 H 
ATOM     57  H   SGN d 501      32.197  17.615 151.719  0.00  0.00     0.231 HD
ATOM     58  H   SGN d 501      29.856  17.675 149.021  0.00  0.00     0.140 HD
ATOM     59  H   SGN d 501      32.136  20.269 148.853  0.00  0.00     0.131 H 
ATOM     60  H   SGN d 501      28.859  21.705 149.217  0.00  0.00     0.090 H 
ATOM     61  H   SGN d 501      28.576  19.285 149.717  0.00  0.00     0.089 H 
ATOM     62  H   SGN d 501      29.611  18.516 152.244  0.00  0.00     0.210 HD
ATOM     63  H   SGN d 501      31.357  19.231 150.824  0.00  0.00     0.076 H 
ATOM     64  H   SGN d 501      30.518  15.173 149.028  0.00  0.00     0.231 HD
ATOM     65  H   SGN d 501      27.174  20.910 150.769  0.00  0.00     0.210 HD
ATOM     66  H   SGN d 501      32.748  16.054 148.648  0.00  0.00     0.231 HD
ATOM     67  O2  IDS d 502      32.151  18.872 143.558  0.00  0.00    -0.244 OA
ATOM     68  C3  IDS d 502      31.359  19.445 145.750  0.00  0.00     0.094 C 
ATOM     69  O2S IDS d 502      34.121  20.369 142.590  0.00  0.00    -0.572 OA
ATOM     70  O1S IDS d 502      34.601  18.027 142.985  0.00  0.00    -0.572 OA
ATOM     71  O5  IDS d 502      30.273  21.815 144.676  0.00  0.00    -0.340 OA
ATOM     72  S   IDS d 502      33.577  18.993 142.522  0.00  0.00     0.252 S 
ATOM     73  C1  IDS d 502      30.751  20.790 143.796  0.00  0.00     0.161 C 
ATOM     74  O61 IDS d 502      29.688  23.615 147.319  0.00  0.00    -0.646 OA
ATOM     75  O62 IDS d 502      28.530  21.834 146.771  0.00  0.00    -0.646 OA
ATOM     76  C5  IDS d 502      30.789  21.937 146.017  0.00  0.00     0.152 C 
ATOM     77  O3  IDS d 502      32.292  18.523 146.274  0.00  0.00    -0.390 OA
ATOM     78  C6  IDS d 502      29.598  22.491 146.787  0.00  0.00     0.206 C 
ATOM     79  O3S IDS d 502      33.201  18.687 141.125  0.00  0.00    -0.572 OA
ATOM     80  C4  IDS d 502      31.225  20.623 146.694  0.00  0.00     0.103 C 
ATOM     81  C2  IDS d 502      31.850  19.963 144.421  0.00  0.00     0.134 C 
ATOM     82  H   IDS d 502      30.416  18.953 145.632  0.00  0.00     0.091 H 
ATOM     83  H   IDS d 502      29.911  20.155 143.605  0.00  0.00     0.133 H 
ATOM     84  H   IDS d 502      31.678  22.533 146.001  0.00  0.00     0.104 H 
ATOM     85  H   IDS d 502      33.152  18.960 146.385  0.00  0.00     0.210 HD
ATOM     86  H   IDS d 502      32.208  20.841 147.055  0.00  0.00     0.092 H 
ATOM     87  H   IDS d 502      32.731  20.552 144.568  0.00  0.00     0.097 H 
ENDROOT
TORSDOF 28
ENDMDL
MODEL 64
REMARK VINA RESULT:      -5.3      2.944      4.302
REMARK  0 active torsions:
REMARK  status: ('A' for Active; 'I' for Inactive)
REMARK       I    between atoms: O3_1  and  C3_18 
REMARK       I    between atoms: O6_2  and  C6_6 
REMARK       I    between atoms: O6_2  and  S2_52 
REMARK       I    between atoms: C4_3  and  O4_50 
REMARK       I    between atoms: C6_4  and  C5_31 
REMARK       I    between atoms: C6_4  and  O6_12 
REMARK       I    between atoms: C6_6  and  C5_15 
REMARK       I    between atoms: O2_7  and  C2_53 
REMARK       I    between atoms: O2_7  and  S_26 
REMARK       I    between atoms: C3_8  and  O3_38 
REMARK       I    between atoms: S1_9  and  N_19 
REMARK       I    between atoms: S1_9  and  O1S_55 
REMARK       I    between atoms: S1_9  and  O2S_49 
REMARK       I    between atoms: S1_9  and  O3S_17 
REMARK       I    between atoms: O6_12  and  S2_45 
REMARK       I    between atoms: O1S_14  and  S1_48 
REMARK       I    between atoms: O3S_16  and  S1_48 
REMARK       I    between atoms: N_19  and  C2_46 
REMARK       I    between atoms: O1_22  and  C1_24 
REMARK       I    between atoms: O1_22  and  C4_41 
REMARK       I    between atoms: N_23  and  C2_47 
REMARK       I    between atoms: N_23  and  S1_48 
REMARK       I    between atoms: O2S_25  and  S1_48 
REMARK       I    between atoms: C1_27  and  O4_44 
REMARK       I    between atoms: C3_34  and  O3_43 
REMARK       I    between atoms: C1_35  and  O1_36 
REMARK       I    between atoms: C5_37  and  C6_39 
REMARK       I    between atoms: O4_44  and  C4_54 
ROOT
ATOM      1  O3  SGN d 503      32.481  22.389 147.784  0.00  0.00    -0.391 OA
ATOM      2  O6  SGN d 503      33.271  19.785 143.992  0.00  0.00    -0.254 OA
ATOM      3  C6  SGN d 503      32.839  18.659 144.747  0.00  0.00     0.067 C 
ATOM      4  O1S SGN d 503      36.972  22.523 149.134  0.00  0.00    -0.296 OA
ATOM      5  C5  SGN d 503      32.986  19.042 146.208  0.00  0.00     0.091 C 
ATOM      6  O3S SGN d 503      35.010  23.852 148.659  0.00  0.00    -0.296 OA
ATOM      7  C3  SGN d 503      32.838  21.025 147.727  0.00  0.00     0.083 C 
ATOM      8  O4S SGN d 503      32.186  19.981 141.592  0.00  0.00    -0.572 OA
ATOM      9  N   SGN d 503      34.629  21.315 149.328  0.00  0.00    -0.210 NA
ATOM     10  O2S SGN d 503      35.522  23.226 150.943  0.00  0.00    -0.296 OA
ATOM     11  O5  SGN d 503      34.377  18.964 146.525  0.00  0.00    -0.350 OA
ATOM     12  O6S SGN d 503      34.524  20.590 141.819  0.00  0.00    -0.572 OA
ATOM     13  O5S SGN d 503      33.844  18.269 141.913  0.00  0.00    -0.572 OA
ATOM     14  C1  SGN d 503      34.728  19.402 147.835  0.00  0.00     0.147 C 
ATOM     15  O1  SGN d 503      34.076  18.605 148.818  0.00  0.00    -0.369 OA
ATOM     16  O4  SGN d 503      31.093  20.520 146.181  0.00  0.00    -0.348 OA
ATOM     17  C2  SGN d 503      34.323  20.860 147.990  0.00  0.00     0.081 C 
ATOM     18  S1  SGN d 503      35.572  22.793 149.527  0.00  0.00     0.156 S 
ATOM     19  S2  SGN d 503      33.467  19.652 142.250  0.00  0.00     0.251 S 
ATOM     20  C4  SGN d 503      32.508  20.480 146.352  0.00  0.00     0.095 C 
ATOM     21  H   SGN d 503      32.690  22.742 148.662  0.00  0.00     0.210 HD
ATOM     22  H   SGN d 503      33.450  17.808 144.525  0.00  0.00     0.080 H 
ATOM     23  H   SGN d 503      31.828  18.399 144.514  0.00  0.00     0.080 H 
ATOM     24  H   SGN d 503      36.998  22.240 148.206  0.00  0.00     0.231 HD
ATOM     25  H   SGN d 503      32.422  18.404 146.856  0.00  0.00     0.090 H 
ATOM     26  H   SGN d 503      35.045  23.563 147.733  0.00  0.00     0.231 HD
ATOM     27  H   SGN d 503      32.290  20.490 148.474  0.00  0.00     0.089 H 
ATOM     28  H   SGN d 503      35.144  20.566 149.790  0.00  0.00     0.140 HD
ATOM     29  H   SGN d 503      36.041  24.038 151.052  0.00  0.00     0.231 HD
ATOM     30  H   SGN d 503      35.784  19.304 147.973  0.00  0.00     0.131 H 
ATOM     31  H   SGN d 503      33.115  18.680 148.711  0.00  0.00     0.212 HD
ATOM     32  H   SGN d 503      34.870  21.444 147.280  0.00  0.00     0.076 H 
ATOM     33  H   SGN d 503      33.001  21.074 145.612  0.00  0.00     0.091 H 
ATOM     34  C4  SGN d 501      27.433  26.454 140.770  0.00  0.00     0.089 C 
ATOM     35  C6  SGN d 501      27.792  27.621 142.977  0.00  0.00     0.067 C 
ATOM     36  O6S SGN d 501      26.375  30.046 144.822  0.00  0.00    -0.572 OA
ATOM     37  S1  SGN d 501      25.913  22.069 139.018  0.00  0.00     0.156 S 
ATOM     38  O6  SGN d 501      26.859  27.542 144.054  0.00  0.00    -0.254 OA
ATOM     39  O5S SGN d 501      25.043  29.175 143.000  0.00  0.00    -0.572 OA
ATOM     40  O3S SGN d 501      24.939  23.108 138.613  0.00  0.00    -0.296 OA
ATOM     41  N   SGN d 501      27.061  22.742 140.187  0.00  0.00    -0.210 NA
ATOM     42  O1  SGN d 501      28.436  23.477 142.512  0.00  0.00    -0.348 OA
ATOM     43  C1  SGN d 501      27.134  24.009 142.280  0.00  0.00     0.150 C 
ATOM     44  C5  SGN d 501      27.847  26.295 142.227  0.00  0.00     0.090 C 
ATOM     45  C3  SGN d 501      27.597  25.118 140.056  0.00  0.00     0.083 C 
ATOM     46  O4S SGN d 501      24.651  28.408 145.260  0.00  0.00    -0.572 OA
ATOM     47  O3  SGN d 501      27.152  25.228 138.718  0.00  0.00    -0.391 OA
ATOM     48  S2  SGN d 501      25.685  28.845 144.294  0.00  0.00     0.251 S 
ATOM     49  C2  SGN d 501      26.803  24.038 140.787  0.00  0.00     0.081 C 
ATOM     50  O2S SGN d 501      26.648  21.594 137.823  0.00  0.00    -0.296 OA
ATOM     51  O4  SGN d 501      28.250  27.443 140.141  0.00  0.00    -0.390 OA
ATOM     52  O5  SGN d 501      27.004  25.317 142.847  0.00  0.00    -0.349 OA
ATOM     53  O1S SGN d 501      25.190  20.937 139.641  0.00  0.00    -0.296 OA
ATOM     54  H   SGN d 501      26.411  26.765 140.718  0.00  0.00     0.091 H 
ATOM     55  H   SGN d 501      27.490  28.396 142.303  0.00  0.00     0.080 H 
ATOM     56  H   SGN d 501      28.762  27.838 143.372  0.00  0.00     0.080 H 
ATOM     57  H   SGN d 501      24.456  23.421 139.394  0.00  0.00     0.231 HD
ATOM     58  H   SGN d 501      27.961  22.809 139.712  0.00  0.00     0.140 HD
ATOM     59  H   SGN d 501      26.432  23.362 142.764  0.00  0.00     0.131 H 
ATOM     60  H   SGN d 501      28.863  25.963 142.264  0.00  0.00     0.090 H 
ATOM     61  H   SGN d 501      28.632  24.847 140.054  0.00  0.00     0.089 H 
ATOM     62  H   SGN d 501      26.213  25.474 138.709  0.00  0.00     0.210 HD
ATOM     63  H   SGN d 501      25.764  24.271 140.691  0.00  0.00     0.076 H 
ATOM     64  H   SGN d 501      27.287  20.913 138.085  0.00  0.00     0.231 HD
ATOM     65  H   SGN d 501      29.179  27.169 140.184  0.00  0.00     0.210 HD
ATOM     66  H   SGN d 501      25.826  20.254 139.908  0.00  0.00     0.231 HD
ATOM     67  O2  IDS d 502      29.605  19.147 144.231  0.00  0.00    -0.244 OA
ATOM     68  C3  IDS d 502      28.907  21.236 143.279  0.00  0.00     0.094 C 
ATOM     69  O2S IDS d 502      28.747  18.632 146.693  0.00  0.00    -0.572 OA
ATOM     70  O1S IDS d 502      27.987  17.161 144.924  0.00  0.00    -0.572 OA
ATOM     71  O5  IDS d 502      30.564  22.569 145.131  0.00  0.00    -0.340 OA
ATOM     72  S   IDS d 502      29.133  17.945 145.438  0.00  0.00     0.252 S 
ATOM     73  C1  IDS d 502      30.672  21.149 144.976  0.00  0.00     0.161 C 
ATOM     74  O61 IDS d 502      29.500  25.638 144.989  0.00  0.00    -0.646 OA
ATOM     75  O62 IDS d 502      30.640  24.663 143.388  0.00  0.00    -0.646 OA
ATOM     76  C5  IDS d 502      29.339  23.258 144.808  0.00  0.00     0.152 C 
ATOM     77  O3  IDS d 502      27.797  20.558 142.730  0.00  0.00    -0.390 OA
ATOM     78  C6  IDS d 502      29.831  24.622 144.345  0.00  0.00     0.206 C 
ATOM     79  O3S IDS d 502      30.273  17.043 145.708  0.00  0.00    -0.572 OA
ATOM     80  C4  IDS d 502      28.501  22.643 143.670  0.00  0.00     0.103 C 
ATOM     81  C2  IDS d 502      29.374  20.522 144.522  0.00  0.00     0.134 C 
ATOM     82  H   IDS d 502      29.691  21.264 142.550  0.00  0.00     0.091 H 
ATOM     83  H   IDS d 502      31.410  20.994 144.217  0.00  0.00     0.133 H 
ATOM     84  H   IDS d 502      28.687  23.236 145.656  0.00  0.00     0.104 H 
ATOM     85  H   IDS d 502      27.080  20.527 143.383  0.00  0.00     0.210 HD
ATOM     86  H   IDS d 502      27.520  22.573 144.091  0.00  0.00     0.092 H 
ATOM     87  H   IDS d 502      28.627  20.601 145.285  0.00  0.00     0.097 H 
ENDROOT
TORSDOF 28
ENDMDL
MODEL 65
REMARK VINA RESULT:      -5.3      4.178      5.861
REMARK  0 active torsions:
REMARK  status: ('A' for Active; 'I' for Inactive)
REMARK       I    between atoms: O3_1  and  C3_18 
REMARK       I    between atoms: O6_2  and  C6_6 
REMARK       I    between atoms: O6_2  and  S2_52 
REMARK       I    between atoms: C4_3  and  O4_50 
REMARK       I    between atoms: C6_4  and  C5_31 
REMARK       I    between atoms: C6_4  and  O6_12 
REMARK       I    between atoms: C6_6  and  C5_15 
REMARK       I    between atoms: O2_7  and  C2_53 
REMARK       I    between atoms: O2_7  and  S_26 
REMARK       I    between atoms: C3_8  and  O3_38 
REMARK       I    between atoms: S1_9  and  N_19 
REMARK       I    between atoms: S1_9  and  O1S_55 
REMARK       I    between atoms: S1_9  and  O2S_49 
REMARK       I    between atoms: S1_9  and  O3S_17 
REMARK       I    between atoms: O6_12  and  S2_45 
REMARK       I    between atoms: O1S_14  and  S1_48 
REMARK       I    between atoms: O3S_16  and  S1_48 
REMARK       I    between atoms: N_19  and  C2_46 
REMARK       I    between atoms: O1_22  and  C1_24 
REMARK       I    between atoms: O1_22  and  C4_41 
REMARK       I    between atoms: N_23  and  C2_47 
REMARK       I    between atoms: N_23  and  S1_48 
REMARK       I    between atoms: O2S_25  and  S1_48 
REMARK       I    between atoms: C1_27  and  O4_44 
REMARK       I    between atoms: C3_34  and  O3_43 
REMARK       I    between atoms: C1_35  and  O1_36 
REMARK       I    between atoms: C5_37  and  C6_39 
REMARK       I    between atoms: O4_44  and  C4_54 
ROOT
ATOM      1  O3  SGN d 503      32.701  24.122 150.595  0.00  0.00    -0.391 OA
ATOM      2  O6  SGN d 503      34.633  25.962 146.766  0.00  0.00    -0.254 OA
ATOM      3  C6  SGN d 503      35.010  24.641 146.393  0.00  0.00     0.067 C 
ATOM      4  O1S SGN d 503      36.304  25.160 153.414  0.00  0.00    -0.296 OA
ATOM      5  C5  SGN d 503      34.996  23.817 147.666  0.00  0.00     0.091 C 
ATOM      6  O3S SGN d 503      33.911  25.324 153.123  0.00  0.00    -0.296 OA
ATOM      7  C3  SGN d 503      33.796  23.630 149.854  0.00  0.00     0.083 C 
ATOM      8  O4S SGN d 503      33.489  27.365 144.843  0.00  0.00    -0.572 OA
ATOM      9  N   SGN d 503      35.162  23.375 151.835  0.00  0.00    -0.210 NA
ATOM     10  O2S SGN d 503      34.845  23.538 154.467  0.00  0.00    -0.296 OA
ATOM     11  O5  SGN d 503      36.177  24.153 148.397  0.00  0.00    -0.350 OA
ATOM     12  O6S SGN d 503      35.012  28.532 146.329  0.00  0.00    -0.572 OA
ATOM     13  O5S SGN d 503      35.857  26.988 144.669  0.00  0.00    -0.572 OA
ATOM     14  C1  SGN d 503      36.283  23.557 149.688  0.00  0.00     0.147 C 
ATOM     15  O1  SGN d 503      36.303  22.137 149.581  0.00  0.00    -0.369 OA
ATOM     16  O4  SGN d 503      32.599  23.754 147.795  0.00  0.00    -0.348 OA
ATOM     17  C2  SGN d 503      35.100  24.003 150.533  0.00  0.00     0.081 C 
ATOM     18  S1  SGN d 503      35.050  24.391 153.273  0.00  0.00     0.156 S 
ATOM     19  S2  SGN d 503      34.754  27.273 145.601  0.00  0.00     0.251 S 
ATOM     20  C4  SGN d 503      33.766  24.228 148.462  0.00  0.00     0.095 C 
ATOM     21  H   SGN d 503      32.717  23.740 151.487  0.00  0.00     0.210 HD
ATOM     22  H   SGN d 503      35.991  24.643 145.964  0.00  0.00     0.080 H 
ATOM     23  H   SGN d 503      34.340  24.239 145.662  0.00  0.00     0.080 H 
ATOM     24  H   SGN d 503      36.432  25.717 152.630  0.00  0.00     0.231 HD
ATOM     25  H   SGN d 503      34.968  22.765 147.470  0.00  0.00     0.090 H 
ATOM     26  H   SGN d 503      34.049  25.880 152.340  0.00  0.00     0.231 HD
ATOM     27  H   SGN d 503      33.727  22.564 149.795  0.00  0.00     0.089 H 
ATOM     28  H   SGN d 503      36.052  22.879 151.887  0.00  0.00     0.140 HD
ATOM     29  H   SGN d 503      34.784  24.096 155.257  0.00  0.00     0.231 HD
ATOM     30  H   SGN d 503      37.196  23.869 150.150  0.00  0.00     0.131 H 
ATOM     31  H   SGN d 503      35.482  21.833 149.163  0.00  0.00     0.212 HD
ATOM     32  H   SGN d 503      35.143  25.066 150.647  0.00  0.00     0.076 H 
ATOM     33  H   SGN d 503      33.757  25.295 148.539  0.00  0.00     0.091 H 
ATOM     34  C4  SGN d 501      25.773  29.168 146.384  0.00  0.00     0.089 C 
ATOM     35  C6  SGN d 501      25.511  28.279 148.730  0.00  0.00     0.067 C 
ATOM     36  O6S SGN d 501      23.054  27.517 150.892  0.00  0.00    -0.572 OA
ATOM     37  S1  SGN d 501      27.054  27.577 141.864  0.00  0.00     0.156 S 
ATOM     38  O6  SGN d 501      24.883  27.031 149.018  0.00  0.00    -0.254 OA
ATOM     39  O5S SGN d 501      22.387  27.842 148.590  0.00  0.00    -0.572 OA
ATOM     40  O3S SGN d 501      25.629  27.977 141.842  0.00  0.00    -0.296 OA
ATOM     41  N   SGN d 501      27.650  27.555 143.531  0.00  0.00    -0.210 NA
ATOM     42  O1  SGN d 501      28.466  26.807 146.103  0.00  0.00    -0.348 OA
ATOM     43  C1  SGN d 501      27.091  26.677 145.747  0.00  0.00     0.150 C 
ATOM     44  C5  SGN d 501      26.296  28.187 147.426  0.00  0.00     0.090 C 
ATOM     45  C3  SGN d 501      26.653  29.092 145.143  0.00  0.00     0.083 C 
ATOM     46  O4S SGN d 501      22.680  25.604 149.460  0.00  0.00    -0.572 OA
ATOM     47  O3  SGN d 501      26.142  29.945 144.137  0.00  0.00    -0.391 OA
ATOM     48  S2  SGN d 501      23.182  26.997 149.510  0.00  0.00     0.251 S 
ATOM     49  C2  SGN d 501      26.710  27.654 144.634  0.00  0.00     0.081 C 
ATOM     50  O2S SGN d 501      27.846  28.546 141.070  0.00  0.00    -0.296 OA
ATOM     51  O4  SGN d 501      25.795  30.494 146.914  0.00  0.00    -0.390 OA
ATOM     52  O5  SGN d 501      26.245  26.863 146.887  0.00  0.00    -0.349 OA
ATOM     53  O1S SGN d 501      27.192  26.224 141.279  0.00  0.00    -0.296 OA
ATOM     54  H   SGN d 501      24.766  28.915 146.125  0.00  0.00     0.091 H 
ATOM     55  H   SGN d 501      24.763  29.039 148.639  0.00  0.00     0.080 H 
ATOM     56  H   SGN d 501      26.184  28.523 149.526  0.00  0.00     0.080 H 
ATOM     57  H   SGN d 501      25.108  27.343 142.361  0.00  0.00     0.231 HD
ATOM     58  H   SGN d 501      28.298  28.337 143.624  0.00  0.00     0.140 HD
ATOM     59  H   SGN d 501      26.947  25.682 145.380  0.00  0.00     0.131 H 
ATOM     60  H   SGN d 501      27.309  28.438 147.660  0.00  0.00     0.090 H 
ATOM     61  H   SGN d 501      27.643  29.411 145.396  0.00  0.00     0.089 H 
ATOM     62  H   SGN d 501      25.244  29.664 143.900  0.00  0.00     0.210 HD
ATOM     63  H   SGN d 501      25.733  27.387 144.290  0.00  0.00     0.076 H 
ATOM     64  H   SGN d 501      28.781  28.287 141.083  0.00  0.00     0.231 HD
ATOM     65  H   SGN d 501      26.704  30.732 147.152  0.00  0.00     0.210 HD
ATOM     66  H   SGN d 501      28.125  25.960 141.291  0.00  0.00     0.231 HD
ATOM     67  O2  IDS d 502      32.097  23.851 145.031  0.00  0.00    -0.244 OA
ATOM     68  C3  IDS d 502      30.230  25.310 145.411  0.00  0.00     0.094 C 
ATOM     69  O2S IDS d 502      31.881  21.387 146.002  0.00  0.00    -0.572 OA
ATOM     70  O1S IDS d 502      32.032  21.620 143.595  0.00  0.00    -0.572 OA
ATOM     71  O5  IDS d 502      30.883  25.339 148.154  0.00  0.00    -0.340 OA
ATOM     72  S   IDS d 502      32.516  22.140 144.895  0.00  0.00     0.252 S 
ATOM     73  C1  IDS d 502      31.806  24.782 147.210  0.00  0.00     0.161 C 
ATOM     74  O61 IDS d 502      28.193  26.532 149.536  0.00  0.00    -0.646 OA
ATOM     75  O62 IDS d 502      29.580  27.726 148.326  0.00  0.00    -0.646 OA
ATOM     76  C5  IDS d 502      29.472  25.390 147.867  0.00  0.00     0.152 C 
ATOM     77  O3  IDS d 502      29.709  24.886 144.169  0.00  0.00    -0.390 OA
ATOM     78  C6  IDS d 502      29.021  26.640 148.609  0.00  0.00     0.206 C 
ATOM     79  O3S IDS d 502      33.984  21.982 144.979  0.00  0.00    -0.572 OA
ATOM     80  C4  IDS d 502      29.092  25.554 146.382  0.00  0.00     0.103 C 
ATOM     81  C2  IDS d 502      31.111  24.230 145.986  0.00  0.00     0.134 C 
ATOM     82  H   IDS d 502      30.792  26.208 145.262  0.00  0.00     0.091 H 
ATOM     83  H   IDS d 502      32.439  25.590 146.909  0.00  0.00     0.133 H 
ATOM     84  H   IDS d 502      29.019  24.463 148.153  0.00  0.00     0.104 H 
ATOM     85  H   IDS d 502      29.197  24.070 144.293  0.00  0.00     0.210 HD
ATOM     86  H   IDS d 502      28.376  24.775 146.219  0.00  0.00     0.092 H 
ATOM     87  H   IDS d 502      30.518  23.377 146.240  0.00  0.00     0.097 H 
ENDROOT
TORSDOF 28
ENDMDL
MODEL 66
REMARK VINA RESULT:      -5.3      3.652      8.022
REMARK  0 active torsions:
REMARK  status: ('A' for Active; 'I' for Inactive)
REMARK       I    between atoms: O3_1  and  C3_18 
REMARK       I    between atoms: O6_2  and  C6_6 
REMARK       I    between atoms: O6_2  and  S2_52 
REMARK       I    between atoms: C4_3  and  O4_50 
REMARK       I    between atoms: C6_4  and  C5_31 
REMARK       I    between atoms: C6_4  and  O6_12 
REMARK       I    between atoms: C6_6  and  C5_15 
REMARK       I    between atoms: O2_7  and  C2_53 
REMARK       I    between atoms: O2_7  and  S_26 
REMARK       I    between atoms: C3_8  and  O3_38 
REMARK       I    between atoms: S1_9  and  N_19 
REMARK       I    between atoms: S1_9  and  O1S_55 
REMARK       I    between atoms: S1_9  and  O2S_49 
REMARK       I    between atoms: S1_9  and  O3S_17 
REMARK       I    between atoms: O6_12  and  S2_45 
REMARK       I    between atoms: O1S_14  and  S1_48 
REMARK       I    between atoms: O3S_16  and  S1_48 
REMARK       I    between atoms: N_19  and  C2_46 
REMARK       I    between atoms: O1_22  and  C1_24 
REMARK       I    between atoms: O1_22  and  C4_41 
REMARK       I    between atoms: N_23  and  C2_47 
REMARK       I    between atoms: N_23  and  S1_48 
REMARK       I    between atoms: O2S_25  and  S1_48 
REMARK       I    between atoms: C1_27  and  O4_44 
REMARK       I    between atoms: C3_34  and  O3_43 
REMARK       I    between atoms: C1_35  and  O1_36 
REMARK       I    between atoms: C5_37  and  C6_39 
REMARK       I    between atoms: O4_44  and  C4_54 
ROOT
ATOM      1  O3  SGN d 503      34.787  19.331 145.921  0.00  0.00    -0.391 OA
ATOM      2  O6  SGN d 503      32.213  20.911 149.480  0.00  0.00    -0.254 OA
ATOM      3  C6  SGN d 503      33.412  21.437 150.036  0.00  0.00     0.067 C 
ATOM      4  O1S SGN d 503      35.077  14.938 147.541  0.00  0.00    -0.296 OA
ATOM      5  C5  SGN d 503      34.553  20.667 149.399  0.00  0.00     0.091 C 
ATOM      6  O3S SGN d 503      34.520  16.307 145.629  0.00  0.00    -0.296 OA
ATOM      7  C3  SGN d 503      35.190  19.544 147.256  0.00  0.00     0.083 C 
ATOM      8  O4S SGN d 503      30.184  22.601 149.435  0.00  0.00    -0.572 OA
ATOM      9  N   SGN d 503      36.174  17.339 147.425  0.00  0.00    -0.210 NA
ATOM     10  O2S SGN d 503      36.722  15.309 145.802  0.00  0.00    -0.296 OA
ATOM     11  O5  SGN d 503      34.598  19.385 150.029  0.00  0.00    -0.350 OA
ATOM     12  O6S SGN d 503      29.698  20.279 149.945  0.00  0.00    -0.572 OA
ATOM     13  O5S SGN d 503      30.808  21.688 151.570  0.00  0.00    -0.572 OA
ATOM     14  C1  SGN d 503      35.542  18.471 149.479  0.00  0.00     0.147 C 
ATOM     15  O1  SGN d 503      36.864  18.989 149.596  0.00  0.00    -0.369 OA
ATOM     16  O4  SGN d 503      34.331  21.768 147.276  0.00  0.00    -0.348 OA
ATOM     17  C2  SGN d 503      35.201  18.231 148.017  0.00  0.00     0.081 C 
ATOM     18  S1  SGN d 503      35.600  15.912 146.560  0.00  0.00     0.156 S 
ATOM     19  S2  SGN d 503      30.654  21.388 150.137  0.00  0.00     0.251 S 
ATOM     20  C4  SGN d 503      34.224  20.502 147.923  0.00  0.00     0.095 C 
ATOM     21  H   SGN d 503      35.403  18.718 145.491  0.00  0.00     0.210 HD
ATOM     22  H   SGN d 503      33.419  21.299 151.097  0.00  0.00     0.080 H 
ATOM     23  H   SGN d 503      33.498  22.487 149.847  0.00  0.00     0.080 H 
ATOM     24  H   SGN d 503      34.343  15.337 148.034  0.00  0.00     0.231 HD
ATOM     25  H   SGN d 503      35.493  21.167 149.509  0.00  0.00     0.090 H 
ATOM     26  H   SGN d 503      33.789  16.701 146.130  0.00  0.00     0.231 HD
ATOM     27  H   SGN d 503      36.177  19.957 147.261  0.00  0.00     0.089 H 
ATOM     28  H   SGN d 503      36.778  17.011 148.178  0.00  0.00     0.140 HD
ATOM     29  H   SGN d 503      36.406  14.525 145.326  0.00  0.00     0.231 HD
ATOM     30  H   SGN d 503      35.498  17.547 150.017  0.00  0.00     0.131 H 
ATOM     31  H   SGN d 503      36.926  19.828 149.114  0.00  0.00     0.212 HD
ATOM     32  H   SGN d 503      34.229  17.787 147.961  0.00  0.00     0.076 H 
ATOM     33  H   SGN d 503      33.231  20.112 147.841  0.00  0.00     0.091 H 
ATOM     34  C4  SGN d 501      27.882  24.607 141.962  0.00  0.00     0.089 C 
ATOM     35  C6  SGN d 501      29.354  23.109 140.566  0.00  0.00     0.067 C 
ATOM     36  O6S SGN d 501      30.362  22.807 137.375  0.00  0.00    -0.572 OA
ATOM     37  S1  SGN d 501      28.284  28.136 145.425  0.00  0.00     0.156 S 
ATOM     38  O6  SGN d 501      30.538  23.574 139.920  0.00  0.00    -0.254 OA
ATOM     39  O5S SGN d 501      29.314  24.904 137.969  0.00  0.00    -0.572 OA
ATOM     40  O3S SGN d 501      27.709  28.735 144.199  0.00  0.00    -0.296 OA
ATOM     41  N   SGN d 501      28.856  26.495 145.084  0.00  0.00    -0.210 NA
ATOM     42  O1  SGN d 501      30.403  24.237 144.495  0.00  0.00    -0.348 OA
ATOM     43  C1  SGN d 501      30.243  25.246 143.500  0.00  0.00     0.150 C 
ATOM     44  C5  SGN d 501      29.177  23.808 141.910  0.00  0.00     0.090 C 
ATOM     45  C3  SGN d 501      27.719  25.203 143.355  0.00  0.00     0.083 C 
ATOM     46  O4S SGN d 501      31.725  24.749 137.848  0.00  0.00    -0.572 OA
ATOM     47  O3  SGN d 501      26.557  26.007 143.404  0.00  0.00    -0.391 OA
ATOM     48  S2  SGN d 501      30.483  24.027 138.209  0.00  0.00     0.251 S 
ATOM     49  C2  SGN d 501      28.949  26.034 143.711  0.00  0.00     0.081 C 
ATOM     50  O2S SGN d 501      27.245  28.088 146.480  0.00  0.00    -0.296 OA
ATOM     51  O4  SGN d 501      26.774  23.754 141.668  0.00  0.00    -0.390 OA
ATOM     52  O5  SGN d 501      30.276  24.683 142.185  0.00  0.00    -0.349 OA
ATOM     53  O1S SGN d 501      29.423  28.963 145.885  0.00  0.00    -0.296 OA
ATOM     54  H   SGN d 501      27.915  25.394 141.238  0.00  0.00     0.091 H 
ATOM     55  H   SGN d 501      28.507  23.317 139.946  0.00  0.00     0.080 H 
ATOM     56  H   SGN d 501      29.437  22.055 140.730  0.00  0.00     0.080 H 
ATOM     57  H   SGN d 501      28.388  28.769 143.507  0.00  0.00     0.231 HD
ATOM     58  H   SGN d 501      28.225  25.856 145.569  0.00  0.00     0.140 HD
ATOM     59  H   SGN d 501      31.065  25.925 143.596  0.00  0.00     0.131 H 
ATOM     60  H   SGN d 501      29.139  23.039 142.653  0.00  0.00     0.090 H 
ATOM     61  H   SGN d 501      27.620  24.409 144.066  0.00  0.00     0.089 H 
ATOM     62  H   SGN d 501      26.637  26.730 142.763  0.00  0.00     0.210 HD
ATOM     63  H   SGN d 501      28.976  26.880 143.056  0.00  0.00     0.076 H 
ATOM     64  H   SGN d 501      27.618  27.695 147.285  0.00  0.00     0.231 HD
ATOM     65  H   SGN d 501      26.737  23.037 142.320  0.00  0.00     0.210 HD
ATOM     66  H   SGN d 501      29.802  28.574 146.690  0.00  0.00     0.231 HD
ATOM     67  O2  IDS d 502      33.390  24.229 148.256  0.00  0.00    -0.244 OA
ATOM     68  C3  IDS d 502      31.864  24.391 146.411  0.00  0.00     0.094 C 
ATOM     69  O2S IDS d 502      35.977  24.314 147.653  0.00  0.00    -0.572 OA
ATOM     70  O1S IDS d 502      35.095  26.120 149.006  0.00  0.00    -0.572 OA
ATOM     71  O5  IDS d 502      32.699  21.833 145.569  0.00  0.00    -0.340 OA
ATOM     72  S   IDS d 502      35.033  24.665 148.740  0.00  0.00     0.252 S 
ATOM     73  C1  IDS d 502      33.083  22.316 146.862  0.00  0.00     0.161 C 
ATOM     74  O61 IDS d 502      31.599  21.672 142.514  0.00  0.00    -0.646 OA
ATOM     75  O62 IDS d 502      30.306  21.596 144.285  0.00  0.00    -0.646 OA
ATOM     76  C5  IDS d 502      32.381  22.748 144.502  0.00  0.00     0.152 C 
ATOM     77  O3  IDS d 502      31.846  25.789 146.613  0.00  0.00    -0.390 OA
ATOM     78  C6  IDS d 502      31.344  21.981 143.696  0.00  0.00     0.206 C 
ATOM     79  O3S IDS d 502      35.402  23.919 149.963  0.00  0.00    -0.572 OA
ATOM     80  C4  IDS d 502      31.755  24.091 144.930  0.00  0.00     0.103 C 
ATOM     81  C2  IDS d 502      33.169  23.824 146.909  0.00  0.00     0.134 C 
ATOM     82  H   IDS d 502      31.043  23.955 146.941  0.00  0.00     0.091 H 
ATOM     83  H   IDS d 502      32.314  21.996 147.534  0.00  0.00     0.133 H 
ATOM     84  H   IDS d 502      33.282  23.028 143.997  0.00  0.00     0.104 H 
ATOM     85  H   IDS d 502      32.587  26.195 146.136  0.00  0.00     0.210 HD
ATOM     86  H   IDS d 502      32.353  24.819 144.424  0.00  0.00     0.092 H 
ATOM     87  H   IDS d 502      33.972  24.177 146.296  0.00  0.00     0.097 H 
ENDROOT
TORSDOF 28
ENDMDL
MODEL 67
REMARK VINA RESULT:      -5.2      3.071     10.425
REMARK  0 active torsions:
REMARK  status: ('A' for Active; 'I' for Inactive)
REMARK       I    between atoms: O3_1  and  C3_18 
REMARK       I    between atoms: O6_2  and  C6_6 
REMARK       I    between atoms: O6_2  and  S2_52 
REMARK       I    between atoms: C4_3  and  O4_50 
REMARK       I    between atoms: C6_4  and  C5_31 
REMARK       I    between atoms: C6_4  and  O6_12 
REMARK       I    between atoms: C6_6  and  C5_15 
REMARK       I    between atoms: O2_7  and  C2_53 
REMARK       I    between atoms: O2_7  and  S_26 
REMARK       I    between atoms: C3_8  and  O3_38 
REMARK       I    between atoms: S1_9  and  N_19 
REMARK       I    between atoms: S1_9  and  O1S_55 
REMARK       I    between atoms: S1_9  and  O2S_49 
REMARK       I    between atoms: S1_9  and  O3S_17 
REMARK       I    between atoms: O6_12  and  S2_45 
REMARK       I    between atoms: O1S_14  and  S1_48 
REMARK       I    between atoms: O3S_16  and  S1_48 
REMARK       I    between atoms: N_19  and  C2_46 
REMARK       I    between atoms: O1_22  and  C1_24 
REMARK       I    between atoms: O1_22  and  C4_41 
REMARK       I    between atoms: N_23  and  C2_47 
REMARK       I    between atoms: N_23  and  S1_48 
REMARK       I    between atoms: O2S_25  and  S1_48 
REMARK       I    between atoms: C1_27  and  O4_44 
REMARK       I    between atoms: C3_34  and  O3_43 
REMARK       I    between atoms: C1_35  and  O1_36 
REMARK       I    between atoms: C5_37  and  C6_39 
REMARK       I    between atoms: O4_44  and  C4_54 
ROOT
ATOM      1  O3  SGN d 503      25.618  25.755 141.938  0.00  0.00    -0.391 OA
ATOM      2  O6  SGN d 503      28.054  27.841 145.329  0.00  0.00    -0.254 OA
ATOM      3  C6  SGN d 503      26.811  28.233 145.900  0.00  0.00     0.067 C 
ATOM      4  O1S SGN d 503      26.151  29.241 138.844  0.00  0.00    -0.296 OA
ATOM      5  C5  SGN d 503      25.787  28.167 144.782  0.00  0.00     0.091 C 
ATOM      6  O3S SGN d 503      26.378  26.861 139.199  0.00  0.00    -0.296 OA
ATOM      7  C3  SGN d 503      25.248  26.879 142.706  0.00  0.00     0.083 C 
ATOM      8  O4S SGN d 503      29.763  26.776 147.036  0.00  0.00    -0.572 OA
ATOM      9  N   SGN d 503      24.660  28.164 140.741  0.00  0.00    -0.210 NA
ATOM     10  O2S SGN d 503      24.387  27.741 138.134  0.00  0.00    -0.296 OA
ATOM     11  O5  SGN d 503      25.990  29.317 143.959  0.00  0.00    -0.350 OA
ATOM     12  O6S SGN d 503      30.658  28.237 145.318  0.00  0.00    -0.572 OA
ATOM     13  O5S SGN d 503      29.405  29.150 147.176  0.00  0.00    -0.572 OA
ATOM     14  C1  SGN d 503      25.188  29.371 142.782  0.00  0.00     0.147 C 
ATOM     15  O1  SGN d 503      23.805  29.395 143.122  0.00  0.00    -0.369 OA
ATOM     16  O4  SGN d 503      25.719  25.767 144.762  0.00  0.00    -0.348 OA
ATOM     17  C2  SGN d 503      25.495  28.155 141.923  0.00  0.00     0.081 C 
ATOM     18  S1  SGN d 503      25.425  27.993 139.161  0.00  0.00     0.156 S 
ATOM     19  S2  SGN d 503      29.539  28.009 146.254  0.00  0.00     0.251 S 
ATOM     20  C4  SGN d 503      26.069  26.906 143.979  0.00  0.00     0.095 C 
ATOM     21  H   SGN d 503      25.094  25.735 141.122  0.00  0.00     0.210 HD
ATOM     22  H   SGN d 503      26.877  29.230 146.283  0.00  0.00     0.080 H 
ATOM     23  H   SGN d 503      26.539  27.593 146.714  0.00  0.00     0.080 H 
ATOM     24  H   SGN d 503      26.830  29.401 139.519  0.00  0.00     0.231 HD
ATOM     25  H   SGN d 503      24.782  28.147 145.151  0.00  0.00     0.090 H 
ATOM     26  H   SGN d 503      27.055  27.032 139.873  0.00  0.00     0.231 HD
ATOM     27  H   SGN d 503      24.207  26.813 142.944  0.00  0.00     0.089 H 
ATOM     28  H   SGN d 503      24.157  29.051 140.737  0.00  0.00     0.140 HD
ATOM     29  H   SGN d 503      24.807  27.647 137.264  0.00  0.00     0.231 HD
ATOM     30  H   SGN d 503      25.412  30.264 142.239  0.00  0.00     0.131 H 
ATOM     31  H   SGN d 503      23.579  28.592 143.616  0.00  0.00     0.212 HD
ATOM     32  H   SGN d 503      26.524  28.193 141.633  0.00  0.00     0.076 H 
ATOM     33  H   SGN d 503      27.109  26.893 143.727  0.00  0.00     0.091 H 
ATOM     34  C4  SGN d 501      31.338  19.004 145.528  0.00  0.00     0.089 C 
ATOM     35  C6  SGN d 501      30.075  18.647 143.374  0.00  0.00     0.067 C 
ATOM     36  O6S SGN d 501      28.983  16.104 141.468  0.00  0.00    -0.572 OA
ATOM     37  S1  SGN d 501      30.509  20.467 150.195  0.00  0.00     0.156 S 
ATOM     38  O6  SGN d 501      28.801  18.008 143.322  0.00  0.00    -0.254 OA
ATOM     39  O5S SGN d 501      29.689  15.531 143.710  0.00  0.00    -0.572 OA
ATOM     40  O3S SGN d 501      30.916  19.044 150.207  0.00  0.00    -0.296 OA
ATOM     41  N   SGN d 501      30.207  20.995 148.531  0.00  0.00    -0.210 NA
ATOM     42  O1  SGN d 501      29.038  21.706 146.089  0.00  0.00    -0.348 OA
ATOM     43  C1  SGN d 501      28.978  20.347 146.516  0.00  0.00     0.150 C 
ATOM     44  C5  SGN d 501      30.195  19.484 144.643  0.00  0.00     0.090 C 
ATOM     45  C3  SGN d 501      31.463  19.933 146.729  0.00  0.00     0.083 C 
ATOM     46  O4S SGN d 501      27.336  15.789 143.212  0.00  0.00    -0.572 OA
ATOM     47  O3  SGN d 501      32.474  19.464 147.599  0.00  0.00    -0.391 OA
ATOM     48  S2  SGN d 501      28.698  16.288 142.911  0.00  0.00     0.251 S 
ATOM     49  C2  SGN d 501      30.129  20.011 147.466  0.00  0.00     0.081 C 
ATOM     50  O2S SGN d 501      31.591  21.290 150.785  0.00  0.00    -0.296 OA
ATOM     51  O4  SGN d 501      32.558  19.004 144.785  0.00  0.00    -0.390 OA
ATOM     52  O5  SGN d 501      28.978  19.455 145.396  0.00  0.00    -0.349 OA
ATOM     53  O1S SGN d 501      29.271  20.628 150.990  0.00  0.00    -0.296 OA
ATOM     54  H   SGN d 501      31.138  18.008 145.866  0.00  0.00     0.091 H 
ATOM     55  H   SGN d 501      30.844  17.903 143.368  0.00  0.00     0.080 H 
ATOM     56  H   SGN d 501      30.179  19.287 142.523  0.00  0.00     0.080 H 
ATOM     57  H   SGN d 501      30.209  18.502 149.822  0.00  0.00     0.231 HD
ATOM     58  H   SGN d 501      30.959  21.639 148.285  0.00  0.00     0.140 HD
ATOM     59  H   SGN d 501      28.059  20.218 147.049  0.00  0.00     0.131 H 
ATOM     60  H   SGN d 501      30.397  20.487 144.331  0.00  0.00     0.090 H 
ATOM     61  H   SGN d 501      31.729  20.912 146.387  0.00  0.00     0.089 H 
ATOM     62  H   SGN d 501      32.242  18.576 147.915  0.00  0.00     0.210 HD
ATOM     63  H   SGN d 501      29.928  19.049 147.888  0.00  0.00     0.076 H 
ATOM     64  H   SGN d 501      31.327  22.224 150.778  0.00  0.00     0.231 HD
ATOM     65  H   SGN d 501      32.747  19.903 144.475  0.00  0.00     0.210 HD
ATOM     66  H   SGN d 501      29.001  21.561 150.984  0.00  0.00     0.231 HD
ATOM     67  O2  IDS d 502      26.276  25.378 147.489  0.00  0.00    -0.244 OA
ATOM     68  C3  IDS d 502      27.664  23.496 146.948  0.00  0.00     0.094 C 
ATOM     69  O2S IDS d 502      23.687  25.122 146.950  0.00  0.00    -0.572 OA
ATOM     70  O1S IDS d 502      24.314  25.371 149.277  0.00  0.00    -0.572 OA
ATOM     71  O5  IDS d 502      27.235  24.038 144.214  0.00  0.00    -0.340 OA
ATOM     72  S   IDS d 502      24.609  25.801 147.890  0.00  0.00     0.252 S 
ATOM     73  C1  IDS d 502      26.835  24.998 145.200  0.00  0.00     0.161 C 
ATOM     74  O61 IDS d 502      28.200  21.294 142.763  0.00  0.00    -0.646 OA
ATOM     75  O62 IDS d 502      29.569  22.729 143.701  0.00  0.00    -0.646 OA
ATOM     76  C5  IDS d 502      27.342  22.640 144.546  0.00  0.00     0.152 C 
ATOM     77  O3  IDS d 502      27.455  23.027 148.263  0.00  0.00    -0.390 OA
ATOM     78  C6  IDS d 502      28.455  22.159 143.625  0.00  0.00     0.206 C 
ATOM     79  O3S IDS d 502      24.429  27.265 147.775  0.00  0.00    -0.572 OA
ATOM     80  C4  IDS d 502      27.752  22.320 145.997  0.00  0.00     0.103 C 
ATOM     81  C2  IDS d 502      26.499  24.354 146.525  0.00  0.00     0.134 C 
ATOM     82  H   IDS d 502      28.572  24.064 146.923  0.00  0.00     0.091 H 
ATOM     83  H   IDS d 502      27.678  25.643 145.337  0.00  0.00     0.133 H 
ATOM     84  H   IDS d 502      26.384  22.176 144.435  0.00  0.00     0.104 H 
ATOM     85  H   IDS d 502      26.634  22.510 148.296  0.00  0.00     0.210 HD
ATOM     86  H   IDS d 502      27.016  21.612 146.315  0.00  0.00     0.092 H 
ATOM     87  H   IDS d 502      25.619  23.750 146.440  0.00  0.00     0.097 H 
ENDROOT
TORSDOF 28
ENDMDL
MODEL 68
REMARK VINA RESULT:      -5.2      3.721      6.127
REMARK  0 active torsions:
REMARK  status: ('A' for Active; 'I' for Inactive)
REMARK       I    between atoms: O3_1  and  C3_18 
REMARK       I    between atoms: O6_2  and  C6_6 
REMARK       I    between atoms: O6_2  and  S2_52 
REMARK       I    between atoms: C4_3  and  O4_50 
REMARK       I    between atoms: C6_4  and  C5_31 
REMARK       I    between atoms: C6_4  and  O6_12 
REMARK       I    between atoms: C6_6  and  C5_15 
REMARK       I    between atoms: O2_7  and  C2_53 
REMARK       I    between atoms: O2_7  and  S_26 
REMARK       I    between atoms: C3_8  and  O3_38 
REMARK       I    between atoms: S1_9  and  N_19 
REMARK       I    between atoms: S1_9  and  O1S_55 
REMARK       I    between atoms: S1_9  and  O2S_49 
REMARK       I    between atoms: S1_9  and  O3S_17 
REMARK       I    between atoms: O6_12  and  S2_45 
REMARK       I    between atoms: O1S_14  and  S1_48 
REMARK       I    between atoms: O3S_16  and  S1_48 
REMARK       I    between atoms: N_19  and  C2_46 
REMARK       I    between atoms: O1_22  and  C1_24 
REMARK       I    between atoms: O1_22  and  C4_41 
REMARK       I    between atoms: N_23  and  C2_47 
REMARK       I    between atoms: N_23  and  S1_48 
REMARK       I    between atoms: O2S_25  and  S1_48 
REMARK       I    between atoms: C1_27  and  O4_44 
REMARK       I    between atoms: C3_34  and  O3_43 
REMARK       I    between atoms: C1_35  and  O1_36 
REMARK       I    between atoms: C5_37  and  C6_39 
REMARK       I    between atoms: O4_44  and  C4_54 
ROOT
ATOM      1  O3  SGN d 503      28.685  21.506 149.042  0.00  0.00    -0.391 OA
ATOM      2  O6  SGN d 503      32.640  20.995 146.617  0.00  0.00    -0.254 OA
ATOM      3  C6  SGN d 503      32.454  19.588 146.722  0.00  0.00     0.067 C 
ATOM      4  O1S SGN d 503      30.817  22.290 153.146  0.00  0.00    -0.296 OA
ATOM      5  C5  SGN d 503      31.524  19.367 147.901  0.00  0.00     0.091 C 
ATOM      6  O3S SGN d 503      29.159  23.110 151.592  0.00  0.00    -0.296 OA
ATOM      7  C3  SGN d 503      29.604  20.437 149.096  0.00  0.00     0.083 C 
ATOM      8  O4S SGN d 503      33.214  21.849 144.185  0.00  0.00    -0.572 OA
ATOM      9  N   SGN d 503      29.727  20.522 151.511  0.00  0.00    -0.210 NA
ATOM     10  O2S SGN d 503      28.476  21.772 153.493  0.00  0.00    -0.296 OA
ATOM     11  O5  SGN d 503      32.301  19.546 149.087  0.00  0.00    -0.350 OA
ATOM     12  O6S SGN d 503      34.343  22.922 146.046  0.00  0.00    -0.572 OA
ATOM     13  O5S SGN d 503      34.943  20.676 145.375  0.00  0.00    -0.572 OA
ATOM     14  C1  SGN d 503      31.567  19.490 150.308  0.00  0.00     0.147 C 
ATOM     15  O1  SGN d 503      30.947  18.217 150.458  0.00  0.00    -0.369 OA
ATOM     16  O4  SGN d 503      29.581  20.153 146.729  0.00  0.00    -0.348 OA
ATOM     17  C2  SGN d 503      30.515  20.588 150.300  0.00  0.00     0.081 C 
ATOM     18  S1  SGN d 503      29.534  21.986 152.478  0.00  0.00     0.156 S 
ATOM     19  S2  SGN d 503      33.840  21.642 145.508  0.00  0.00     0.251 S 
ATOM     20  C4  SGN d 503      30.439  20.432 147.832  0.00  0.00     0.095 C 
ATOM     21  H   SGN d 503      28.148  21.512 149.849  0.00  0.00     0.210 HD
ATOM     22  H   SGN d 503      33.392  19.102 146.895  0.00  0.00     0.080 H 
ATOM     23  H   SGN d 503      32.042  19.182 145.822  0.00  0.00     0.080 H 
ATOM     24  H   SGN d 503      31.506  22.429 152.477  0.00  0.00     0.231 HD
ATOM     25  H   SGN d 503      31.080  18.393 147.893  0.00  0.00     0.090 H 
ATOM     26  H   SGN d 503      29.855  23.246 150.929  0.00  0.00     0.231 HD
ATOM     27  H   SGN d 503      29.064  19.517 149.181  0.00  0.00     0.089 H 
ATOM     28  H   SGN d 503      30.158  19.821 152.112  0.00  0.00     0.140 HD
ATOM     29  H   SGN d 503      28.370  22.577 154.025  0.00  0.00     0.231 HD
ATOM     30  H   SGN d 503      32.234  19.634 151.131  0.00  0.00     0.131 H 
ATOM     31  H   SGN d 503      30.336  18.066 149.720  0.00  0.00     0.212 HD
ATOM     32  H   SGN d 503      31.010  21.535 150.246  0.00  0.00     0.076 H 
ATOM     33  H   SGN d 503      30.911  21.386 147.720  0.00  0.00     0.091 H 
ATOM     34  C4  SGN d 501      27.457  26.540 141.021  0.00  0.00     0.089 C 
ATOM     35  C6  SGN d 501      25.864  26.756 142.964  0.00  0.00     0.067 C 
ATOM     36  O6S SGN d 501      22.704  27.734 143.554  0.00  0.00    -0.572 OA
ATOM     37  S1  SGN d 501      29.550  23.019 138.224  0.00  0.00     0.156 S 
ATOM     38  O6  SGN d 501      24.661  25.995 143.065  0.00  0.00    -0.254 OA
ATOM     39  O5S SGN d 501      23.289  27.356 141.238  0.00  0.00    -0.572 OA
ATOM     40  O3S SGN d 501      28.644  23.826 137.375  0.00  0.00    -0.296 OA
ATOM     41  N   SGN d 501      29.315  23.440 139.928  0.00  0.00    -0.210 NA
ATOM     42  O1  SGN d 501      28.533  23.506 142.615  0.00  0.00    -0.348 OA
ATOM     43  C1  SGN d 501      27.550  23.712 141.602  0.00  0.00     0.150 C 
ATOM     44  C5  SGN d 501      26.965  25.919 142.322  0.00  0.00     0.090 C 
ATOM     45  C3  SGN d 501      28.615  25.711 140.479  0.00  0.00     0.083 C 
ATOM     46  O4S SGN d 501      22.088  25.659 142.474  0.00  0.00    -0.572 OA
ATOM     47  O3  SGN d 501      29.040  26.231 139.235  0.00  0.00    -0.391 OA
ATOM     48  S2  SGN d 501      23.123  26.715 142.563  0.00  0.00     0.251 S 
ATOM     49  C2  SGN d 501      28.180  24.256 140.319  0.00  0.00     0.081 C 
ATOM     50  O2S SGN d 501      30.954  23.291 137.837  0.00  0.00    -0.296 OA
ATOM     51  O4  SGN d 501      27.891  27.881 141.259  0.00  0.00    -0.390 OA
ATOM     52  O5  SGN d 501      26.514  24.586 142.060  0.00  0.00    -0.349 OA
ATOM     53  O1S SGN d 501      29.250  21.582 138.031  0.00  0.00    -0.296 OA
ATOM     54  H   SGN d 501      26.662  26.556 140.306  0.00  0.00     0.091 H 
ATOM     55  H   SGN d 501      25.684  27.624 142.364  0.00  0.00     0.080 H 
ATOM     56  H   SGN d 501      26.175  27.047 143.945  0.00  0.00     0.080 H 
ATOM     57  H   SGN d 501      27.724  23.649 137.626  0.00  0.00     0.231 HD
ATOM     58  H   SGN d 501      30.154  23.937 140.228  0.00  0.00     0.140 HD
ATOM     59  H   SGN d 501      27.114  22.760 141.380  0.00  0.00     0.131 H 
ATOM     60  H   SGN d 501      27.775  25.891 143.020  0.00  0.00     0.090 H 
ATOM     61  H   SGN d 501      29.431  25.756 141.169  0.00  0.00     0.089 H 
ATOM     62  H   SGN d 501      28.307  26.195 138.601  0.00  0.00     0.210 HD
ATOM     63  H   SGN d 501      27.436  24.217 139.552  0.00  0.00     0.076 H 
ATOM     64  H   SGN d 501      31.551  22.764 138.392  0.00  0.00     0.231 HD
ATOM     65  H   SGN d 501      28.612  27.876 141.906  0.00  0.00     0.210 HD
ATOM     66  H   SGN d 501      29.843  21.050 138.586  0.00  0.00     0.231 HD
ATOM     67  O2  IDS d 502      30.376  19.347 144.155  0.00  0.00    -0.244 OA
ATOM     68  C3  IDS d 502      29.469  21.367 143.232  0.00  0.00     0.094 C 
ATOM     69  O2S IDS d 502      28.630  17.661 145.238  0.00  0.00    -0.572 OA
ATOM     70  O1S IDS d 502      29.849  16.894 143.290  0.00  0.00    -0.572 OA
ATOM     71  O5  IDS d 502      28.862  22.224 145.849  0.00  0.00    -0.340 OA
ATOM     72  S   IDS d 502      29.938  17.679 144.542  0.00  0.00     0.252 S 
ATOM     73  C1  IDS d 502      29.699  21.078 145.653  0.00  0.00     0.161 C 
ATOM     74  O61 IDS d 502      26.777  24.669 145.354  0.00  0.00    -0.646 OA
ATOM     75  O62 IDS d 502      28.922  24.781 144.907  0.00  0.00    -0.646 OA
ATOM     76  C5  IDS d 502      27.909  22.624 144.843  0.00  0.00     0.152 C 
ATOM     77  O3  IDS d 502      29.373  20.699 141.991  0.00  0.00    -0.390 OA
ATOM     78  C6  IDS d 502      27.852  24.136 145.014  0.00  0.00     0.206 C 
ATOM     79  O3S IDS d 502      30.967  17.091 145.427  0.00  0.00    -0.572 OA
ATOM     80  C4  IDS d 502      28.304  22.325 143.383  0.00  0.00     0.103 C 
ATOM     81  C2  IDS d 502      29.400  20.364 144.355  0.00  0.00     0.134 C 
ATOM     82  H   IDS d 502      30.396  21.901 143.266  0.00  0.00     0.091 H 
ATOM     83  H   IDS d 502      30.701  21.452 145.614  0.00  0.00     0.133 H 
ATOM     84  H   IDS d 502      26.997  22.083 144.986  0.00  0.00     0.104 H 
ATOM     85  H   IDS d 502      28.535  20.211 141.950  0.00  0.00     0.210 HD
ATOM     86  H   IDS d 502      27.443  21.826 142.989  0.00  0.00     0.092 H 
ATOM     87  H   IDS d 502      28.426  19.920 144.383  0.00  0.00     0.097 H 
ENDROOT
TORSDOF 28
ENDMDL
MODEL 69
REMARK VINA RESULT:      -5.2      3.404      4.027
REMARK  0 active torsions:
REMARK  status: ('A' for Active; 'I' for Inactive)
REMARK       I    between atoms: O3_1  and  C3_18 
REMARK       I    between atoms: O6_2  and  C6_6 
REMARK       I    between atoms: O6_2  and  S2_52 
REMARK       I    between atoms: C4_3  and  O4_50 
REMARK       I    between atoms: C6_4  and  C5_31 
REMARK       I    between atoms: C6_4  and  O6_12 
REMARK       I    between atoms: C6_6  and  C5_15 
REMARK       I    between atoms: O2_7  and  C2_53 
REMARK       I    between atoms: O2_7  and  S_26 
REMARK       I    between atoms: C3_8  and  O3_38 
REMARK       I    between atoms: S1_9  and  N_19 
REMARK       I    between atoms: S1_9  and  O1S_55 
REMARK       I    between atoms: S1_9  and  O2S_49 
REMARK       I    between atoms: S1_9  and  O3S_17 
REMARK       I    between atoms: O6_12  and  S2_45 
REMARK       I    between atoms: O1S_14  and  S1_48 
REMARK       I    between atoms: O3S_16  and  S1_48 
REMARK       I    between atoms: N_19  and  C2_46 
REMARK       I    between atoms: O1_22  and  C1_24 
REMARK       I    between atoms: O1_22  and  C4_41 
REMARK       I    between atoms: N_23  and  C2_47 
REMARK       I    between atoms: N_23  and  S1_48 
REMARK       I    between atoms: O2S_25  and  S1_48 
REMARK       I    between atoms: C1_27  and  O4_44 
REMARK       I    between atoms: C3_34  and  O3_43 
REMARK       I    between atoms: C1_35  and  O1_36 
REMARK       I    between atoms: C5_37  and  C6_39 
REMARK       I    between atoms: O4_44  and  C4_54 
ROOT
ATOM      1  O3  SGN d 503      28.856  19.321 148.387  0.00  0.00    -0.391 OA
ATOM      2  O6  SGN d 503      30.807  19.314 144.146  0.00  0.00    -0.254 OA
ATOM      3  C6  SGN d 503      29.952  18.224 143.820  0.00  0.00     0.067 C 
ATOM      4  O1S SGN d 503      32.341  16.949 150.447  0.00  0.00    -0.296 OA
ATOM      5  C5  SGN d 503      29.523  17.607 145.138  0.00  0.00     0.091 C 
ATOM      6  O3S SGN d 503      30.956  18.926 150.563  0.00  0.00    -0.296 OA
ATOM      7  C3  SGN d 503      29.018  18.229 147.508  0.00  0.00     0.083 C 
ATOM      8  O4S SGN d 503      30.865  21.245 142.347  0.00  0.00    -0.572 OA
ATOM      9  N   SGN d 503      29.994  16.843 149.236  0.00  0.00    -0.210 NA
ATOM     10  O2S SGN d 503      30.375  16.965 151.862  0.00  0.00    -0.296 OA
ATOM     11  O5  SGN d 503      30.629  16.844 145.623  0.00  0.00    -0.350 OA
ATOM     12  O6S SGN d 503      32.951  20.677 143.448  0.00  0.00    -0.572 OA
ATOM     13  O5S SGN d 503      31.990  19.194 141.794  0.00  0.00    -0.572 OA
ATOM     14  C1  SGN d 503      30.454  16.276 146.919  0.00  0.00     0.147 C 
ATOM     15  O1  SGN d 503      29.350  15.377 146.923  0.00  0.00    -0.369 OA
ATOM     16  O4  SGN d 503      28.032  19.408 145.685  0.00  0.00    -0.348 OA
ATOM     17  C2  SGN d 503      30.219  17.398 147.919  0.00  0.00     0.081 C 
ATOM     18  S1  SGN d 503      30.956  17.446 150.586  0.00  0.00     0.156 S 
ATOM     19  S2  SGN d 503      31.696  20.145 142.879  0.00  0.00     0.251 S 
ATOM     20  C4  SGN d 503      29.226  18.747 146.100  0.00  0.00     0.095 C 
ATOM     21  H   SGN d 503      28.723  18.992 149.289  0.00  0.00     0.210 HD
ATOM     22  H   SGN d 503      30.480  17.505 143.229  0.00  0.00     0.080 H 
ATOM     23  H   SGN d 503      29.107  18.551 143.251  0.00  0.00     0.080 H 
ATOM     24  H   SGN d 503      32.716  17.268 149.610  0.00  0.00     0.231 HD
ATOM     25  H   SGN d 503      28.660  16.984 145.034  0.00  0.00     0.090 H 
ATOM     26  H   SGN d 503      31.337  19.236 149.726  0.00  0.00     0.231 HD
ATOM     27  H   SGN d 503      28.142  17.616 147.547  0.00  0.00     0.089 H 
ATOM     28  H   SGN d 503      30.163  15.840 149.172  0.00  0.00     0.140 HD
ATOM     29  H   SGN d 503      30.904  17.296 152.604  0.00  0.00     0.231 HD
ATOM     30  H   SGN d 503      31.331  15.728 147.190  0.00  0.00     0.131 H 
ATOM     31  H   SGN d 503      28.541  15.855 146.680  0.00  0.00     0.212 HD
ATOM     32  H   SGN d 503      31.087  18.024 147.939  0.00  0.00     0.076 H 
ATOM     33  H   SGN d 503      30.058  19.420 146.093  0.00  0.00     0.091 H 
ATOM     34  C4  SGN d 501      27.807  28.208 145.055  0.00  0.00     0.089 C 
ATOM     35  C6  SGN d 501      27.360  27.651 147.474  0.00  0.00     0.067 C 
ATOM     36  O6S SGN d 501      25.639  28.884 150.083  0.00  0.00    -0.572 OA
ATOM     37  S1  SGN d 501      26.590  26.605 140.521  0.00  0.00     0.156 S 
ATOM     38  O6  SGN d 501      26.061  27.325 147.965  0.00  0.00    -0.254 OA
ATOM     39  O5S SGN d 501      25.090  29.801 147.913  0.00  0.00    -0.572 OA
ATOM     40  O3S SGN d 501      26.024  27.960 140.716  0.00  0.00    -0.296 OA
ATOM     41  N   SGN d 501      27.221  25.988 142.057  0.00  0.00    -0.210 NA
ATOM     42  O1  SGN d 501      27.579  24.667 144.499  0.00  0.00    -0.348 OA
ATOM     43  C1  SGN d 501      26.578  25.677 144.399  0.00  0.00     0.150 C 
ATOM     44  C5  SGN d 501      27.547  27.098 146.065  0.00  0.00     0.090 C 
ATOM     45  C3  SGN d 501      28.075  27.587 143.690  0.00  0.00     0.083 C 
ATOM     46  O4S SGN d 501      23.688  28.092 148.894  0.00  0.00    -0.572 OA
ATOM     47  O3  SGN d 501      28.251  28.604 142.723  0.00  0.00    -0.391 OA
ATOM     48  S2  SGN d 501      25.080  28.576 148.745  0.00  0.00     0.251 S 
ATOM     49  C2  SGN d 501      26.911  26.682 143.294  0.00  0.00     0.081 C 
ATOM     50  O2S SGN d 501      27.687  26.671 139.528  0.00  0.00    -0.296 OA
ATOM     51  O4  SGN d 501      28.937  28.981 145.467  0.00  0.00    -0.390 OA
ATOM     52  O5  SGN d 501      26.399  26.350 145.649  0.00  0.00    -0.349 OA
ATOM     53  O1S SGN d 501      25.528  25.698 140.031  0.00  0.00    -0.296 OA
ATOM     54  H   SGN d 501      26.953  28.849 144.996  0.00  0.00     0.091 H 
ATOM     55  H   SGN d 501      27.475  28.714 147.454  0.00  0.00     0.080 H 
ATOM     56  H   SGN d 501      28.095  27.216 148.119  0.00  0.00     0.080 H 
ATOM     57  H   SGN d 501      25.305  27.919 141.366  0.00  0.00     0.231 HD
ATOM     58  H   SGN d 501      28.237  25.972 141.973  0.00  0.00     0.140 HD
ATOM     59  H   SGN d 501      25.659  25.194 144.142  0.00  0.00     0.131 H 
ATOM     60  H   SGN d 501      28.399  26.454 146.099  0.00  0.00     0.090 H 
ATOM     61  H   SGN d 501      28.969  27.001 143.741  0.00  0.00     0.089 H 
ATOM     62  H   SGN d 501      27.445  29.142 142.669  0.00  0.00     0.210 HD
ATOM     63  H   SGN d 501      26.049  27.298 143.148  0.00  0.00     0.076 H 
ATOM     64  H   SGN d 501      28.061  25.785 139.399  0.00  0.00     0.231 HD
ATOM     65  H   SGN d 501      29.717  28.407 145.523  0.00  0.00     0.210 HD
ATOM     66  H   SGN d 501      25.896  24.809 139.902  0.00  0.00     0.231 HD
ATOM     67  O2  IDS d 502      27.330  20.094 143.051  0.00  0.00    -0.244 OA
ATOM     68  C3  IDS d 502      27.381  22.421 143.633  0.00  0.00     0.094 C 
ATOM     69  O2S IDS d 502      25.458  18.627 144.237  0.00  0.00    -0.572 OA
ATOM     70  O1S IDS d 502      25.320  18.863 141.830  0.00  0.00    -0.572 OA
ATOM     71  O5  IDS d 502      28.271  21.700 146.209  0.00  0.00    -0.340 OA
ATOM     72  S   IDS d 502      26.239  18.705 142.981  0.00  0.00     0.252 S 
ATOM     73  C1  IDS d 502      28.243  20.717 145.167  0.00  0.00     0.161 C 
ATOM     74  O61 IDS d 502      27.785  24.410 147.938  0.00  0.00    -0.646 OA
ATOM     75  O62 IDS d 502      29.350  24.194 146.415  0.00  0.00    -0.646 OA
ATOM     76  C5  IDS d 502      27.399  22.847 146.168  0.00  0.00     0.152 C 
ATOM     77  O3  IDS d 502      26.524  22.663 142.537  0.00  0.00    -0.390 OA
ATOM     78  C6  IDS d 502      28.217  23.918 146.876  0.00  0.00     0.206 C 
ATOM     79  O3S IDS d 502      27.028  17.465 142.821  0.00  0.00    -0.572 OA
ATOM     80  C4  IDS d 502      27.041  23.371 144.763  0.00  0.00     0.103 C 
ATOM     81  C2  IDS d 502      27.183  21.012 144.130  0.00  0.00     0.134 C 
ATOM     82  H   IDS d 502      28.394  22.566 143.318  0.00  0.00     0.091 H 
ATOM     83  H   IDS d 502      29.203  20.763 144.697  0.00  0.00     0.133 H 
ATOM     84  H   IDS d 502      26.455  22.589 146.602  0.00  0.00     0.104 H 
ATOM     85  H   IDS d 502      25.602  22.535 142.812  0.00  0.00     0.210 HD
ATOM     86  H   IDS d 502      25.974  23.448 144.789  0.00  0.00     0.092 H 
ATOM     87  H   IDS d 502      26.204  20.912 144.550  0.00  0.00     0.097 H 
ENDROOT
TORSDOF 28
ENDMDL
MODEL 70
REMARK VINA RESULT:      -5.2      2.842      9.771
REMARK  0 active torsions:
REMARK  status: ('A' for Active; 'I' for Inactive)
REMARK       I    between atoms: O3_1  and  C3_18 
REMARK       I    between atoms: O6_2  and  C6_6 
REMARK       I    between atoms: O6_2  and  S2_52 
REMARK       I    between atoms: C4_3  and  O4_50 
REMARK       I    between atoms: C6_4  and  C5_31 
REMARK       I    between atoms: C6_4  and  O6_12 
REMARK       I    between atoms: C6_6  and  C5_15 
REMARK       I    between atoms: O2_7  and  C2_53 
REMARK       I    between atoms: O2_7  and  S_26 
REMARK       I    between atoms: C3_8  and  O3_38 
REMARK       I    between atoms: S1_9  and  N_19 
REMARK       I    between atoms: S1_9  and  O1S_55 
REMARK       I    between atoms: S1_9  and  O2S_49 
REMARK       I    between atoms: S1_9  and  O3S_17 
REMARK       I    between atoms: O6_12  and  S2_45 
REMARK       I    between atoms: O1S_14  and  S1_48 
REMARK       I    between atoms: O3S_16  and  S1_48 
REMARK       I    between atoms: N_19  and  C2_46 
REMARK       I    between atoms: O1_22  and  C1_24 
REMARK       I    between atoms: O1_22  and  C4_41 
REMARK       I    between atoms: N_23  and  C2_47 
REMARK       I    between atoms: N_23  and  S1_48 
REMARK       I    between atoms: O2S_25  and  S1_48 
REMARK       I    between atoms: C1_27  and  O4_44 
REMARK       I    between atoms: C3_34  and  O3_43 
REMARK       I    between atoms: C1_35  and  O1_36 
REMARK       I    between atoms: C5_37  and  C6_39 
REMARK       I    between atoms: O4_44  and  C4_54 
ROOT
ATOM      1  O3  SGN d 503      29.081  27.224 144.289  0.00  0.00    -0.391 OA
ATOM      2  O6  SGN d 503      27.057  23.020 144.171  0.00  0.00    -0.254 OA
ATOM      3  C6  SGN d 503      26.914  23.193 142.766  0.00  0.00     0.067 C 
ATOM      4  O1S SGN d 503      25.232  29.493 145.719  0.00  0.00    -0.296 OA
ATOM      5  C5  SGN d 503      27.002  24.686 142.508  0.00  0.00     0.091 C 
ATOM      6  O3S SGN d 503      27.579  29.115 146.152  0.00  0.00    -0.296 OA
ATOM      7  C3  SGN d 503      28.114  26.752 143.376  0.00  0.00     0.083 C 
ATOM      8  O4S SGN d 503      28.050  20.683 144.896  0.00  0.00    -0.572 OA
ATOM      9  N   SGN d 503      26.716  28.704 143.680  0.00  0.00    -0.210 NA
ATOM     10  O2S SGN d 503      26.881  31.062 144.890  0.00  0.00    -0.296 OA
ATOM     11  O5  SGN d 503      25.750  25.253 142.899  0.00  0.00    -0.350 OA
ATOM     12  O6S SGN d 503      26.293  21.632 146.275  0.00  0.00    -0.572 OA
ATOM     13  O5S SGN d 503      25.783  20.714 144.095  0.00  0.00    -0.572 OA
ATOM     14  C1  SGN d 503      25.681  26.675 142.835  0.00  0.00     0.147 C 
ATOM     15  O1  SGN d 503      25.894  27.125 141.501  0.00  0.00    -0.369 OA
ATOM     16  O4  SGN d 503      29.369  24.782 142.897  0.00  0.00    -0.348 OA
ATOM     17  C2  SGN d 503      26.737  27.260 143.760  0.00  0.00     0.081 C 
ATOM     18  S1  SGN d 503      26.598  29.636 145.173  0.00  0.00     0.156 S 
ATOM     19  S2  SGN d 503      26.782  21.442 144.895  0.00  0.00     0.251 S 
ATOM     20  C4  SGN d 503      28.112  25.237 143.390  0.00  0.00     0.095 C 
ATOM     21  H   SGN d 503      29.085  28.194 144.282  0.00  0.00     0.210 HD
ATOM     22  H   SGN d 503      25.967  22.816 142.441  0.00  0.00     0.080 H 
ATOM     23  H   SGN d 503      27.673  22.662 142.230  0.00  0.00     0.080 H 
ATOM     24  H   SGN d 503      25.052  28.558 145.902  0.00  0.00     0.231 HD
ATOM     25  H   SGN d 503      27.207  24.911 141.482  0.00  0.00     0.090 H 
ATOM     26  H   SGN d 503      27.389  28.181 146.334  0.00  0.00     0.231 HD
ATOM     27  H   SGN d 503      28.355  27.108 142.397  0.00  0.00     0.089 H 
ATOM     28  H   SGN d 503      25.916  28.961 143.102  0.00  0.00     0.140 HD
ATOM     29  H   SGN d 503      26.816  31.574 145.711  0.00  0.00     0.231 HD
ATOM     30  H   SGN d 503      24.709  26.999 143.145  0.00  0.00     0.131 H 
ATOM     31  H   SGN d 503      26.771  26.842 141.200  0.00  0.00     0.212 HD
ATOM     32  H   SGN d 503      26.519  26.955 144.763  0.00  0.00     0.076 H 
ATOM     33  H   SGN d 503      27.947  24.896 144.391  0.00  0.00     0.091 H 
ATOM     34  C4  SGN d 501      35.299  21.257 148.402  0.00  0.00     0.089 C 
ATOM     35  C6  SGN d 501      35.591  23.758 148.539  0.00  0.00     0.067 C 
ATOM     36  O6S SGN d 501      38.036  25.998 149.083  0.00  0.00    -0.572 OA
ATOM     37  S1  SGN d 501      34.498  17.727 145.010  0.00  0.00     0.156 S 
ATOM     38  O6  SGN d 501      36.396  24.494 147.620  0.00  0.00    -0.254 OA
ATOM     39  O5S SGN d 501      38.747  23.736 148.605  0.00  0.00    -0.572 OA
ATOM     40  O3S SGN d 501      35.841  17.525 145.600  0.00  0.00    -0.296 OA
ATOM     41  N   SGN d 501      33.838  19.285 145.532  0.00  0.00    -0.210 NA
ATOM     42  O1  SGN d 501      33.034  21.961 145.704  0.00  0.00    -0.348 OA
ATOM     43  C1  SGN d 501      34.427  21.657 145.677  0.00  0.00     0.150 C 
ATOM     44  C5  SGN d 501      34.892  22.607 147.825  0.00  0.00     0.090 C 
ATOM     45  C3  SGN d 501      34.500  20.158 147.711  0.00  0.00     0.083 C 
ATOM     46  O4S SGN d 501      38.776  25.409 146.858  0.00  0.00    -0.572 OA
ATOM     47  O3  SGN d 501      34.914  18.891 148.184  0.00  0.00    -0.391 OA
ATOM     48  S2  SGN d 501      38.056  24.927 148.059  0.00  0.00     0.251 S 
ATOM     49  C2  SGN d 501      34.697  20.245 146.200  0.00  0.00     0.081 C 
ATOM     50  O2S SGN d 501      33.599  16.636 145.454  0.00  0.00    -0.296 OA
ATOM     51  O4  SGN d 501      35.040  21.234 149.807  0.00  0.00    -0.390 OA
ATOM     52  O5  SGN d 501      35.179  22.619 146.423  0.00  0.00    -0.349 OA
ATOM     53  O1S SGN d 501      34.606  17.713 143.533  0.00  0.00    -0.296 OA
ATOM     54  H   SGN d 501      36.344  21.096 148.240  0.00  0.00     0.091 H 
ATOM     55  H   SGN d 501      36.211  23.366 149.318  0.00  0.00     0.080 H 
ATOM     56  H   SGN d 501      34.852  24.411 148.954  0.00  0.00     0.080 H 
ATOM     57  H   SGN d 501      36.432  18.238 145.310  0.00  0.00     0.231 HD
ATOM     58  H   SGN d 501      33.069  19.081 146.171  0.00  0.00     0.140 HD
ATOM     59  H   SGN d 501      34.745  21.699 144.656  0.00  0.00     0.131 H 
ATOM     60  H   SGN d 501      33.842  22.745 147.975  0.00  0.00     0.090 H 
ATOM     61  H   SGN d 501      33.461  20.288 147.934  0.00  0.00     0.089 H 
ATOM     62  H   SGN d 501      35.855  18.764 147.987  0.00  0.00     0.210 HD
ATOM     63  H   SGN d 501      35.720  20.013 145.987  0.00  0.00     0.076 H 
ATOM     64  H   SGN d 501      32.718  16.766 145.070  0.00  0.00     0.231 HD
ATOM     65  H   SGN d 501      34.094  21.379 149.964  0.00  0.00     0.210 HD
ATOM     66  H   SGN d 501      33.727  17.845 143.143  0.00  0.00     0.231 HD
ATOM     67  O2  IDS d 502      29.976  22.186 142.007  0.00  0.00    -0.244 OA
ATOM     68  C3  IDS d 502      31.566  21.937 143.787  0.00  0.00     0.094 C 
ATOM     69  O2S IDS d 502      30.539  24.029 140.176  0.00  0.00    -0.572 OA
ATOM     70  O1S IDS d 502      30.463  21.722 139.439  0.00  0.00    -0.572 OA
ATOM     71  O5  IDS d 502      30.791  24.467 144.758  0.00  0.00    -0.340 OA
ATOM     72  S   IDS d 502      29.843  22.729 140.331  0.00  0.00     0.252 S 
ATOM     73  C1  IDS d 502      30.013  23.830 143.737  0.00  0.00     0.161 C 
ATOM     74  O61 IDS d 502      33.189  25.228 146.817  0.00  0.00    -0.646 OA
ATOM     75  O62 IDS d 502      31.686  23.679 147.208  0.00  0.00    -0.646 OA
ATOM     76  C5  IDS d 502      32.187  24.155 144.927  0.00  0.00     0.152 C 
ATOM     77  O3  IDS d 502      32.205  20.944 143.010  0.00  0.00    -0.390 OA
ATOM     78  C6  IDS d 502      32.398  24.348 146.423  0.00  0.00     0.206 C 
ATOM     79  O3S IDS d 502      28.417  22.896 139.977  0.00  0.00    -0.572 OA
ATOM     80  C4  IDS d 502      32.605  22.715 144.570  0.00  0.00     0.103 C 
ATOM     81  C2  IDS d 502      30.843  22.901 142.881  0.00  0.00     0.134 C 
ATOM     82  H   IDS d 502      30.875  21.463 144.453  0.00  0.00     0.091 H 
ATOM     83  H   IDS d 502      29.274  23.252 144.251  0.00  0.00     0.133 H 
ATOM     84  H   IDS d 502      32.769  24.768 144.271  0.00  0.00     0.104 H 
ATOM     85  H   IDS d 502      32.834  21.364 142.402  0.00  0.00     0.210 HD
ATOM     86  H   IDS d 502      33.442  22.851 143.918  0.00  0.00     0.092 H 
ATOM     87  H   IDS d 502      31.554  23.453 142.302  0.00  0.00     0.097 H 
ENDROOT
TORSDOF 28
ENDMDL
MODEL 71
REMARK VINA RESULT:      -5.2      4.115      7.542
REMARK  0 active torsions:
REMARK  status: ('A' for Active; 'I' for Inactive)
REMARK       I    between atoms: O3_1  and  C3_18 
REMARK       I    between atoms: O6_2  and  C6_6 
REMARK       I    between atoms: O6_2  and  S2_52 
REMARK       I    between atoms: C4_3  and  O4_50 
REMARK       I    between atoms: C6_4  and  C5_31 
REMARK       I    between atoms: C6_4  and  O6_12 
REMARK       I    between atoms: C6_6  and  C5_15 
REMARK       I    between atoms: O2_7  and  C2_53 
REMARK       I    between atoms: O2_7  and  S_26 
REMARK       I    between atoms: C3_8  and  O3_38 
REMARK       I    between atoms: S1_9  and  N_19 
REMARK       I    between atoms: S1_9  and  O1S_55 
REMARK       I    between atoms: S1_9  and  O2S_49 
REMARK       I    between atoms: S1_9  and  O3S_17 
REMARK       I    between atoms: O6_12  and  S2_45 
REMARK       I    between atoms: O1S_14  and  S1_48 
REMARK       I    between atoms: O3S_16  and  S1_48 
REMARK       I    between atoms: N_19  and  C2_46 
REMARK       I    between atoms: O1_22  and  C1_24 
REMARK       I    between atoms: O1_22  and  C4_41 
REMARK       I    between atoms: N_23  and  C2_47 
REMARK       I    between atoms: N_23  and  S1_48 
REMARK       I    between atoms: O2S_25  and  S1_48 
REMARK       I    between atoms: C1_27  and  O4_44 
REMARK       I    between atoms: C3_34  and  O3_43 
REMARK       I    between atoms: C1_35  and  O1_36 
REMARK       I    between atoms: C5_37  and  C6_39 
REMARK       I    between atoms: O4_44  and  C4_54 
ROOT
ATOM      1  O3  SGN d 503      35.044  25.313 149.193  0.00  0.00    -0.391 OA
ATOM      2  O6  SGN d 503      37.145  22.290 146.323  0.00  0.00    -0.254 OA
ATOM      3  C6  SGN d 503      37.197  21.380 147.416  0.00  0.00     0.067 C 
ATOM      4  O1S SGN d 503      38.925  27.789 150.095  0.00  0.00    -0.296 OA
ATOM      5  C5  SGN d 503      37.062  22.215 148.675  0.00  0.00     0.091 C 
ATOM      6  O3S SGN d 503      36.618  27.918 149.388  0.00  0.00    -0.296 OA
ATOM      7  C3  SGN d 503      35.962  24.295 149.526  0.00  0.00     0.083 C 
ATOM      8  O4S SGN d 503      36.249  21.252 144.067  0.00  0.00    -0.572 OA
ATOM      9  N   SGN d 503      37.335  25.808 150.824  0.00  0.00    -0.210 NA
ATOM     10  O2S SGN d 503      37.195  28.309 151.709  0.00  0.00    -0.296 OA
ATOM     11  O5  SGN d 503      38.324  22.850 148.895  0.00  0.00    -0.350 OA
ATOM     12  O6S SGN d 503      38.067  22.852 143.921  0.00  0.00    -0.572 OA
ATOM     13  O5S SGN d 503      38.461  20.619 144.766  0.00  0.00    -0.572 OA
ATOM     14  C1  SGN d 503      38.359  23.774 149.979  0.00  0.00     0.147 C 
ATOM     15  O1  SGN d 503      38.054  23.116 151.205  0.00  0.00    -0.369 OA
ATOM     16  O4  SGN d 503      34.722  22.637 148.344  0.00  0.00    -0.348 OA
ATOM     17  C2  SGN d 503      37.350  24.880 149.714  0.00  0.00     0.081 C 
ATOM     18  S1  SGN d 503      37.525  27.531 150.492  0.00  0.00     0.156 S 
ATOM     19  S2  SGN d 503      37.498  21.731 144.695  0.00  0.00     0.251 S 
ATOM     20  C4  SGN d 503      35.998  23.270 148.412  0.00  0.00     0.095 C 
ATOM     21  H   SGN d 503      35.019  25.972 149.904  0.00  0.00     0.210 HD
ATOM     22  H   SGN d 503      38.130  20.856 147.418  0.00  0.00     0.080 H 
ATOM     23  H   SGN d 503      36.418  20.650 147.350  0.00  0.00     0.080 H 
ATOM     24  H   SGN d 503      39.136  27.278 149.298  0.00  0.00     0.231 HD
ATOM     25  H   SGN d 503      36.790  21.628 149.527  0.00  0.00     0.090 H 
ATOM     26  H   SGN d 503      36.838  27.406 148.594  0.00  0.00     0.231 HD
ATOM     27  H   SGN d 503      35.653  23.832 150.440  0.00  0.00     0.089 H 
ATOM     28  H   SGN d 503      38.092  25.539 151.451  0.00  0.00     0.140 HD
ATOM     29  H   SGN d 503      37.300  29.256 151.526  0.00  0.00     0.231 HD
ATOM     30  H   SGN d 503      39.340  24.191 150.060  0.00  0.00     0.131 H 
ATOM     31  H   SGN d 503      37.166  22.730 151.153  0.00  0.00     0.212 HD
ATOM     32  H   SGN d 503      37.635  25.396 148.821  0.00  0.00     0.076 H 
ATOM     33  H   SGN d 503      36.231  23.761 147.490  0.00  0.00     0.091 H 
ATOM     34  C4  SGN d 501      29.220  24.422 141.677  0.00  0.00     0.089 C 
ATOM     35  C6  SGN d 501      28.884  26.242 143.392  0.00  0.00     0.067 C 
ATOM     36  O6S SGN d 501      26.431  28.245 144.513  0.00  0.00    -0.572 OA
ATOM     37  S1  SGN d 501      29.884  19.511 141.462  0.00  0.00     0.156 S 
ATOM     38  O6  SGN d 501      28.008  26.099 144.508  0.00  0.00    -0.254 OA
ATOM     39  O5S SGN d 501      25.739  26.371 143.148  0.00  0.00    -0.572 OA
ATOM     40  O3S SGN d 501      28.585  19.844 140.834  0.00  0.00    -0.296 OA
ATOM     41  N   SGN d 501      30.542  20.936 142.281  0.00  0.00    -0.210 NA
ATOM     42  O1  SGN d 501      31.298  22.867 144.161  0.00  0.00    -0.348 OA
ATOM     43  C1  SGN d 501      29.913  22.682 143.878  0.00  0.00     0.150 C 
ATOM     44  C5  SGN d 501      29.562  24.912 143.079  0.00  0.00     0.090 C 
ATOM     45  C3  SGN d 501      29.998  23.143 141.393  0.00  0.00     0.083 C 
ATOM     46  O4S SGN d 501      25.566  26.242 145.558  0.00  0.00    -0.572 OA
ATOM     47  O3  SGN d 501      29.641  22.634 140.123  0.00  0.00    -0.391 OA
ATOM     48  S2  SGN d 501      26.370  26.766 144.429  0.00  0.00     0.251 S 
ATOM     49  C2  SGN d 501      29.706  22.107 142.476  0.00  0.00     0.081 C 
ATOM     50  O2S SGN d 501      30.832  19.061 140.415  0.00  0.00    -0.296 OA
ATOM     51  O4  SGN d 501      29.565  25.423 140.718  0.00  0.00    -0.390 OA
ATOM     52  O5  SGN d 501      29.189  23.907 144.027  0.00  0.00    -0.349 OA
ATOM     53  O1S SGN d 501      29.685  18.428 142.452  0.00  0.00    -0.296 OA
ATOM     54  H   SGN d 501      28.171  24.226 141.611  0.00  0.00     0.091 H 
ATOM     55  H   SGN d 501      28.322  26.560 142.539  0.00  0.00     0.080 H 
ATOM     56  H   SGN d 501      29.634  26.968 143.627  0.00  0.00     0.080 H 
ATOM     57  H   SGN d 501      27.962  20.138 141.518  0.00  0.00     0.231 HD
ATOM     58  H   SGN d 501      31.353  21.239 141.741  0.00  0.00     0.140 HD
ATOM     59  H   SGN d 501      29.532  21.977 144.586  0.00  0.00     0.131 H 
ATOM     60  H   SGN d 501      30.616  25.084 143.138  0.00  0.00     0.090 H 
ATOM     61  H   SGN d 501      31.045  23.362 141.396  0.00  0.00     0.089 H 
ATOM     62  H   SGN d 501      28.692  22.432 140.110  0.00  0.00     0.210 HD
ATOM     63  H   SGN d 501      28.677  21.823 142.392  0.00  0.00     0.076 H 
ATOM     64  H   SGN d 501      31.684  18.843 140.823  0.00  0.00     0.231 HD
ATOM     65  H   SGN d 501      30.516  25.607 140.772  0.00  0.00     0.210 HD
ATOM     66  H   SGN d 501      30.535  18.207 142.865  0.00  0.00     0.231 HD
ATOM     67  O2  IDS d 502      34.116  20.232 147.022  0.00  0.00    -0.244 OA
ATOM     68  C3  IDS d 502      32.645  21.408 145.535  0.00  0.00     0.094 C 
ATOM     69  O2S IDS d 502      33.402  20.175 149.581  0.00  0.00    -0.572 OA
ATOM     70  O1S IDS d 502      33.481  18.058 148.406  0.00  0.00    -0.572 OA
ATOM     71  O5  IDS d 502      33.425  23.823 146.763  0.00  0.00    -0.340 OA
ATOM     72  S   IDS d 502      34.133  19.377 148.568  0.00  0.00     0.252 S 
ATOM     73  C1  IDS d 502      34.151  22.619 147.040  0.00  0.00     0.161 C 
ATOM     74  O61 IDS d 502      31.144  25.917 145.776  0.00  0.00    -0.646 OA
ATOM     75  O62 IDS d 502      32.700  25.097 144.466  0.00  0.00    -0.646 OA
ATOM     76  C5  IDS d 502      32.049  23.775 146.339  0.00  0.00     0.152 C 
ATOM     77  O3  IDS d 502      31.981  20.183 145.304  0.00  0.00    -0.390 OA
ATOM     78  C6  IDS d 502      31.927  25.004 145.449  0.00  0.00     0.206 C 
ATOM     79  O3S IDS d 502      35.531  19.190 149.014  0.00  0.00    -0.572 OA
ATOM     80  C4  IDS d 502      31.641  22.542 145.509  0.00  0.00     0.103 C 
ATOM     81  C2  IDS d 502      33.290  21.385 146.898  0.00  0.00     0.134 C 
ATOM     82  H   IDS d 502      33.385  21.548 144.775  0.00  0.00     0.091 H 
ATOM     83  H   IDS d 502      34.933  22.576 146.310  0.00  0.00     0.133 H 
ATOM     84  H   IDS d 502      31.415  23.734 147.201  0.00  0.00     0.104 H 
ATOM     85  H   IDS d 502      31.306  20.046 145.988  0.00  0.00     0.210 HD
ATOM     86  H   IDS d 502      30.762  22.186 146.004  0.00  0.00     0.092 H 
ATOM     87  H   IDS d 502      32.534  21.362 147.654  0.00  0.00     0.097 H 
ENDROOT
TORSDOF 28
ENDMDL
MODEL 72
REMARK VINA RESULT:      -5.2      4.455      8.423
REMARK  0 active torsions:
REMARK  status: ('A' for Active; 'I' for Inactive)
REMARK       I    between atoms: O3_1  and  C3_18 
REMARK       I    between atoms: O6_2  and  C6_6 
REMARK       I    between atoms: O6_2  and  S2_52 
REMARK       I    between atoms: C4_3  and  O4_50 
REMARK       I    between atoms: C6_4  and  C5_31 
REMARK       I    between atoms: C6_4  and  O6_12 
REMARK       I    between atoms: C6_6  and  C5_15 
REMARK       I    between atoms: O2_7  and  C2_53 
REMARK       I    between atoms: O2_7  and  S_26 
REMARK       I    between atoms: C3_8  and  O3_38 
REMARK       I    between atoms: S1_9  and  N_19 
REMARK       I    between atoms: S1_9  and  O1S_55 
REMARK       I    between atoms: S1_9  and  O2S_49 
REMARK       I    between atoms: S1_9  and  O3S_17 
REMARK       I    between atoms: O6_12  and  S2_45 
REMARK       I    between atoms: O1S_14  and  S1_48 
REMARK       I    between atoms: O3S_16  and  S1_48 
REMARK       I    between atoms: N_19  and  C2_46 
REMARK       I    between atoms: O1_22  and  C1_24 
REMARK       I    between atoms: O1_22  and  C4_41 
REMARK       I    between atoms: N_23  and  C2_47 
REMARK       I    between atoms: N_23  and  S1_48 
REMARK       I    between atoms: O2S_25  and  S1_48 
REMARK       I    between atoms: C1_27  and  O4_44 
REMARK       I    between atoms: C3_34  and  O3_43 
REMARK       I    between atoms: C1_35  and  O1_36 
REMARK       I    between atoms: C5_37  and  C6_39 
REMARK       I    between atoms: O4_44  and  C4_54 
ROOT
ATOM      1  O3  SGN d 503      36.171  23.803 145.752  0.00  0.00    -0.391 OA
ATOM      2  O6  SGN d 503      34.427  25.674 149.656  0.00  0.00    -0.254 OA
ATOM      3  C6  SGN d 503      35.451  26.658 149.571  0.00  0.00     0.067 C 
ATOM      4  O1S SGN d 503      38.561  20.418 147.951  0.00  0.00    -0.296 OA
ATOM      5  C5  SGN d 503      36.541  26.067 148.697  0.00  0.00     0.091 C 
ATOM      6  O3S SGN d 503      36.975  20.894 146.192  0.00  0.00    -0.296 OA
ATOM      7  C3  SGN d 503      36.856  24.534 146.744  0.00  0.00     0.083 C 
ATOM      8  O4S SGN d 503      32.008  26.639 150.093  0.00  0.00    -0.572 OA
ATOM      9  N   SGN d 503      38.591  22.858 146.937  0.00  0.00    -0.210 NA
ATOM     10  O2S SGN d 503      39.327  20.646 145.664  0.00  0.00    -0.296 OA
ATOM     11  O5  SGN d 503      37.252  25.119 149.495  0.00  0.00    -0.350 OA
ATOM     12  O6S SGN d 503      32.605  24.564 151.201  0.00  0.00    -0.572 OA
ATOM     13  O5S SGN d 503      33.552  26.667 151.936  0.00  0.00    -0.572 OA
ATOM     14  C1  SGN d 503      38.250  24.371 148.806  0.00  0.00     0.147 C 
ATOM     15  O1  SGN d 503      39.249  25.239 148.281  0.00  0.00    -0.369 OA
ATOM     16  O4  SGN d 503      35.282  26.323 146.668  0.00  0.00    -0.348 OA
ATOM     17  C2  SGN d 503      37.590  23.591 147.680  0.00  0.00     0.081 C 
ATOM     18  S1  SGN d 503      38.355  21.130 146.672  0.00  0.00     0.156 S 
ATOM     19  S2  SGN d 503      33.087  25.893 150.772  0.00  0.00     0.251 S 
ATOM     20  C4  SGN d 503      35.860  25.353 147.539  0.00  0.00     0.095 C 
ATOM     21  H   SGN d 503      36.806  23.277 145.241  0.00  0.00     0.210 HD
ATOM     22  H   SGN d 503      35.836  26.876 150.546  0.00  0.00     0.080 H 
ATOM     23  H   SGN d 503      35.078  27.573 149.161  0.00  0.00     0.080 H 
ATOM     24  H   SGN d 503      37.922  20.738 148.607  0.00  0.00     0.231 HD
ATOM     25  H   SGN d 503      37.211  26.812 148.322  0.00  0.00     0.090 H 
ATOM     26  H   SGN d 503      36.342  21.212 146.855  0.00  0.00     0.231 HD
ATOM     27  H   SGN d 503      37.567  25.180 146.274  0.00  0.00     0.089 H 
ATOM     28  H   SGN d 503      39.474  22.967 147.434  0.00  0.00     0.140 HD
ATOM     29  H   SGN d 503      39.197  19.696 145.518  0.00  0.00     0.231 HD
ATOM     30  H   SGN d 503      38.722  23.694 149.487  0.00  0.00     0.131 H 
ATOM     31  H   SGN d 503      38.842  25.863 147.660  0.00  0.00     0.212 HD
ATOM     32  H   SGN d 503      36.887  22.906 148.105  0.00  0.00     0.076 H 
ATOM     33  H   SGN d 503      35.110  24.702 147.939  0.00  0.00     0.091 H 
ATOM     34  C4  SGN d 501      26.940  25.431 143.926  0.00  0.00     0.089 C 
ATOM     35  C6  SGN d 501      28.357  24.026 142.382  0.00  0.00     0.067 C 
ATOM     36  O6S SGN d 501      28.369  23.004 139.182  0.00  0.00    -0.572 OA
ATOM     37  S1  SGN d 501      27.045  29.853 146.172  0.00  0.00     0.156 S 
ATOM     38  O6  SGN d 501      29.021  24.564 141.240  0.00  0.00    -0.254 OA
ATOM     39  O5S SGN d 501      26.852  24.810 139.720  0.00  0.00    -0.572 OA
ATOM     40  O3S SGN d 501      25.941  29.845 145.186  0.00  0.00    -0.296 OA
ATOM     41  N   SGN d 501      28.052  28.411 145.961  0.00  0.00    -0.210 NA
ATOM     42  O1  SGN d 501      30.066  26.597 145.260  0.00  0.00    -0.348 OA
ATOM     43  C1  SGN d 501      29.243  27.149 144.234  0.00  0.00     0.150 C 
ATOM     44  C5  SGN d 501      28.356  25.043 143.519  0.00  0.00     0.090 C 
ATOM     45  C3  SGN d 501      27.006  26.374 145.121  0.00  0.00     0.083 C 
ATOM     46  O4S SGN d 501      28.983  25.289 138.679  0.00  0.00    -0.572 OA
ATOM     47  O3  SGN d 501      25.704  26.801 145.470  0.00  0.00    -0.391 OA
ATOM     48  S2  SGN d 501      28.276  24.410 139.640  0.00  0.00     0.251 S 
ATOM     49  C2  SGN d 501      27.882  27.578 144.785  0.00  0.00     0.081 C 
ATOM     50  O2S SGN d 501      26.478  29.863 147.541  0.00  0.00    -0.296 OA
ATOM     51  O4  SGN d 501      26.199  24.260 144.272  0.00  0.00    -0.390 OA
ATOM     52  O5  SGN d 501      29.077  26.225 143.154  0.00  0.00    -0.349 OA
ATOM     53  O1S SGN d 501      27.875  31.062 145.967  0.00  0.00    -0.296 OA
ATOM     54  H   SGN d 501      26.453  25.921 143.109  0.00  0.00     0.091 H 
ATOM     55  H   SGN d 501      27.347  23.785 142.124  0.00  0.00     0.080 H 
ATOM     56  H   SGN d 501      28.873  23.146 142.703  0.00  0.00     0.080 H 
ATOM     57  H   SGN d 501      26.309  29.839 144.288  0.00  0.00     0.231 HD
ATOM     58  H   SGN d 501      27.888  27.815 146.772  0.00  0.00     0.140 HD
ATOM     59  H   SGN d 501      29.739  28.020 143.859  0.00  0.00     0.131 H 
ATOM     60  H   SGN d 501      28.838  24.574 144.350  0.00  0.00     0.090 H 
ATOM     61  H   SGN d 501      27.434  25.855 145.953  0.00  0.00     0.089 H 
ATOM     62  H   SGN d 501      25.307  27.273 144.721  0.00  0.00     0.210 HD
ATOM     63  H   SGN d 501      27.388  28.142 144.021  0.00  0.00     0.076 H 
ATOM     64  H   SGN d 501      27.200  29.868 148.189  0.00  0.00     0.231 HD
ATOM     65  H   SGN d 501      26.634  23.809 145.012  0.00  0.00     0.210 HD
ATOM     66  H   SGN d 501      28.600  31.070 146.612  0.00  0.00     0.231 HD
ATOM     67  O2  IDS d 502      33.843  28.613 147.437  0.00  0.00    -0.244 OA
ATOM     68  C3  IDS d 502      31.878  27.751 146.362  0.00  0.00     0.094 C 
ATOM     69  O2S IDS d 502      35.889  29.203 145.847  0.00  0.00    -0.572 OA
ATOM     70  O1S IDS d 502      34.861  31.034 147.056  0.00  0.00    -0.572 OA
ATOM     71  O5  IDS d 502      33.302  25.388 145.778  0.00  0.00    -0.340 OA
ATOM     72  S   IDS d 502      35.267  29.612 147.129  0.00  0.00     0.252 S 
ATOM     73  C1  IDS d 502      33.858  26.346 146.687  0.00  0.00     0.161 C 
ATOM     74  O61 IDS d 502      31.458  23.961 143.513  0.00  0.00    -0.646 OA
ATOM     75  O62 IDS d 502      30.901  24.108 145.630  0.00  0.00    -0.646 OA
ATOM     76  C5  IDS d 502      32.354  25.790 144.770  0.00  0.00     0.152 C 
ATOM     77  O3  IDS d 502      31.404  29.078 146.275  0.00  0.00    -0.390 OA
ATOM     78  C6  IDS d 502      31.484  24.551 144.612  0.00  0.00     0.206 C 
ATOM     79  O3S IDS d 502      36.245  29.429 148.223  0.00  0.00    -0.572 OA
ATOM     80  C4  IDS d 502      31.438  26.973 145.138  0.00  0.00     0.103 C 
ATOM     81  C2  IDS d 502      33.385  27.752 146.398  0.00  0.00     0.134 C 
ATOM     82  H   IDS d 502      31.485  27.301 147.250  0.00  0.00     0.091 H 
ATOM     83  H   IDS d 502      33.511  26.062 147.659  0.00  0.00     0.133 H 
ATOM     84  H   IDS d 502      32.883  26.127 143.902  0.00  0.00     0.104 H 
ATOM     85  H   IDS d 502      31.754  29.495 145.472  0.00  0.00     0.210 HD
ATOM     86  H   IDS d 502      31.534  27.634 144.303  0.00  0.00     0.092 H 
ATOM     87  H   IDS d 502      33.768  28.095 145.460  0.00  0.00     0.097 H 
ENDROOT
TORSDOF 28
ENDMDL
MODEL 73
REMARK VINA RESULT:      -5.2      3.763      9.631
REMARK  0 active torsions:
REMARK  status: ('A' for Active; 'I' for Inactive)
REMARK       I    between atoms: O3_1  and  C3_18 
REMARK       I    between atoms: O6_2  and  C6_6 
REMARK       I    between atoms: O6_2  and  S2_52 
REMARK       I    between atoms: C4_3  and  O4_50 
REMARK       I    between atoms: C6_4  and  C5_31 
REMARK       I    between atoms: C6_4  and  O6_12 
REMARK       I    between atoms: C6_6  and  C5_15 
REMARK       I    between atoms: O2_7  and  C2_53 
REMARK       I    between atoms: O2_7  and  S_26 
REMARK       I    between atoms: C3_8  and  O3_38 
REMARK       I    between atoms: S1_9  and  N_19 
REMARK       I    between atoms: S1_9  and  O1S_55 
REMARK       I    between atoms: S1_9  and  O2S_49 
REMARK       I    between atoms: S1_9  and  O3S_17 
REMARK       I    between atoms: O6_12  and  S2_45 
REMARK       I    between atoms: O1S_14  and  S1_48 
REMARK       I    between atoms: O3S_16  and  S1_48 
REMARK       I    between atoms: N_19  and  C2_46 
REMARK       I    between atoms: O1_22  and  C1_24 
REMARK       I    between atoms: O1_22  and  C4_41 
REMARK       I    between atoms: N_23  and  C2_47 
REMARK       I    between atoms: N_23  and  S1_48 
REMARK       I    between atoms: O2S_25  and  S1_48 
REMARK       I    between atoms: C1_27  and  O4_44 
REMARK       I    between atoms: C3_34  and  O3_43 
REMARK       I    between atoms: C1_35  and  O1_36 
REMARK       I    between atoms: C5_37  and  C6_39 
REMARK       I    between atoms: O4_44  and  C4_54 
ROOT
ATOM      1  O3  SGN d 503      26.207  27.105 147.964  0.00  0.00    -0.391 OA
ATOM      2  O6  SGN d 503      26.687  26.860 143.328  0.00  0.00    -0.254 OA
ATOM      3  C6  SGN d 503      27.899  27.590 143.474  0.00  0.00     0.067 C 
ATOM      4  O1S SGN d 503      23.179  30.688 147.875  0.00  0.00    -0.296 OA
ATOM      5  C5  SGN d 503      27.812  28.299 144.812  0.00  0.00     0.091 C 
ATOM      6  O3S SGN d 503      23.584  28.463 148.727  0.00  0.00    -0.296 OA
ATOM      7  C3  SGN d 503      26.865  28.016 147.110  0.00  0.00     0.083 C 
ATOM      8  O4S SGN d 503      26.869  24.719 141.793  0.00  0.00    -0.572 OA
ATOM      9  N   SGN d 503      25.699  29.913 148.057  0.00  0.00    -0.210 NA
ATOM     10  O2S SGN d 503      24.078  30.394 150.105  0.00  0.00    -0.296 OA
ATOM     11  O5  SGN d 503      26.936  29.415 144.640  0.00  0.00    -0.350 OA
ATOM     12  O6S SGN d 503      24.838  26.037 141.641  0.00  0.00    -0.572 OA
ATOM     13  O5S SGN d 503      26.910  26.861 140.701  0.00  0.00    -0.572 OA
ATOM     14  C1  SGN d 503      26.639  30.143 145.829  0.00  0.00     0.147 C 
ATOM     15  O1  SGN d 503      27.830  30.687 146.390  0.00  0.00    -0.369 OA
ATOM     16  O4  SGN d 503      28.154  26.291 146.085  0.00  0.00    -0.348 OA
ATOM     17  C2  SGN d 503      25.971  29.207 146.824  0.00  0.00     0.081 C 
ATOM     18  S1  SGN d 503      24.066  29.863 148.722  0.00  0.00     0.156 S 
ATOM     19  S2  SGN d 503      26.306  26.085 141.797  0.00  0.00     0.251 S 
ATOM     20  C4  SGN d 503      27.207  27.321 145.808  0.00  0.00     0.095 C 
ATOM     21  H   SGN d 503      25.986  27.546 148.799  0.00  0.00     0.210 HD
ATOM     22  H   SGN d 503      27.998  28.304 142.683  0.00  0.00     0.080 H 
ATOM     23  H   SGN d 503      28.749  26.943 143.431  0.00  0.00     0.080 H 
ATOM     24  H   SGN d 503      23.175  30.335 146.971  0.00  0.00     0.231 HD
ATOM     25  H   SGN d 503      28.769  28.629 145.161  0.00  0.00     0.090 H 
ATOM     26  H   SGN d 503      23.579  28.120 147.819  0.00  0.00     0.231 HD
ATOM     27  H   SGN d 503      27.759  28.358 147.588  0.00  0.00     0.089 H 
ATOM     28  H   SGN d 503      25.928  30.894 147.898  0.00  0.00     0.140 HD
ATOM     29  H   SGN d 503      23.180  30.366 150.471  0.00  0.00     0.231 HD
ATOM     30  H   SGN d 503      25.981  30.953 145.595  0.00  0.00     0.131 H 
ATOM     31  H   SGN d 503      28.442  29.968 146.610  0.00  0.00     0.212 HD
ATOM     32  H   SGN d 503      25.051  28.860 146.401  0.00  0.00     0.076 H 
ATOM     33  H   SGN d 503      26.314  26.916 145.381  0.00  0.00     0.091 H 
ATOM     34  C4  SGN d 501      25.712  17.815 145.812  0.00  0.00     0.089 C 
ATOM     35  C6  SGN d 501      25.087  18.668 148.102  0.00  0.00     0.067 C 
ATOM     36  O6S SGN d 501      24.804  17.516 151.245  0.00  0.00    -0.572 OA
ATOM     37  S1  SGN d 501      29.428  18.144 142.542  0.00  0.00     0.156 S 
ATOM     38  O6  SGN d 501      26.008  18.707 149.190  0.00  0.00    -0.254 OA
ATOM     39  O5S SGN d 501      25.995  16.096 149.691  0.00  0.00    -0.572 OA
ATOM     40  O3S SGN d 501      29.341  16.748 143.025  0.00  0.00    -0.296 OA
ATOM     41  N   SGN d 501      28.379  19.187 143.517  0.00  0.00    -0.210 NA
ATOM     42  O1  SGN d 501      27.345  20.987 145.395  0.00  0.00    -0.348 OA
ATOM     43  C1  SGN d 501      27.867  19.739 145.846  0.00  0.00     0.150 C 
ATOM     44  C5  SGN d 501      25.803  18.978 146.792  0.00  0.00     0.090 C 
ATOM     45  C3  SGN d 501      26.364  18.219 144.496  0.00  0.00     0.083 C 
ATOM     46  O4S SGN d 501      27.223  17.503 151.229  0.00  0.00    -0.572 OA
ATOM     47  O3  SGN d 501      26.352  17.129 143.596  0.00  0.00    -0.391 OA
ATOM     48  S2  SGN d 501      26.007  17.403 150.387  0.00  0.00     0.251 S 
ATOM     49  C2  SGN d 501      27.798  18.678 144.746  0.00  0.00     0.081 C 
ATOM     50  O2S SGN d 501      29.000  18.200 141.125  0.00  0.00    -0.296 OA
ATOM     51  O4  SGN d 501      24.342  17.475 145.590  0.00  0.00    -0.390 OA
ATOM     52  O5  SGN d 501      27.182  19.288 147.019  0.00  0.00    -0.349 OA
ATOM     53  O1S SGN d 501      30.827  18.616 142.659  0.00  0.00    -0.296 OA
ATOM     54  H   SGN d 501      26.219  16.963 146.216  0.00  0.00     0.091 H 
ATOM     55  H   SGN d 501      24.650  17.693 148.043  0.00  0.00     0.080 H 
ATOM     56  H   SGN d 501      24.325  19.401 148.263  0.00  0.00     0.080 H 
ATOM     57  H   SGN d 501      29.621  16.708 143.953  0.00  0.00     0.231 HD
ATOM     58  H   SGN d 501      27.602  19.467 142.917  0.00  0.00     0.140 HD
ATOM     59  H   SGN d 501      28.896  19.893 146.096  0.00  0.00     0.131 H 
ATOM     60  H   SGN d 501      25.311  19.827 146.367  0.00  0.00     0.090 H 
ATOM     61  H   SGN d 501      25.811  19.028 144.065  0.00  0.00     0.089 H 
ATOM     62  H   SGN d 501      26.851  16.389 143.977  0.00  0.00     0.210 HD
ATOM     63  H   SGN d 501      28.362  17.832 145.079  0.00  0.00     0.076 H 
ATOM     64  H   SGN d 501      29.056  19.114 140.806  0.00  0.00     0.231 HD
ATOM     65  H   SGN d 501      23.875  18.242 145.224  0.00  0.00     0.210 HD
ATOM     66  H   SGN d 501      30.888  19.531 142.343  0.00  0.00     0.231 HD
ATOM     67  O2  IDS d 502      29.770  24.960 144.210  0.00  0.00    -0.244 OA
ATOM     68  C3  IDS d 502      28.672  22.888 144.720  0.00  0.00     0.094 C 
ATOM     69  O2S IDS d 502      31.198  26.047 146.170  0.00  0.00    -0.572 OA
ATOM     70  O1S IDS d 502      32.398  25.338 144.188  0.00  0.00    -0.572 OA
ATOM     71  O5  IDS d 502      26.944  24.295 146.447  0.00  0.00    -0.340 OA
ATOM     72  S   IDS d 502      31.149  25.955 144.692  0.00  0.00     0.252 S 
ATOM     73  C1  IDS d 502      27.799  25.019 145.554  0.00  0.00     0.161 C 
ATOM     74  O61 IDS d 502      25.597  21.927 148.222  0.00  0.00    -0.646 OA
ATOM     75  O62 IDS d 502      25.142  22.279 146.105  0.00  0.00    -0.646 OA
ATOM     76  C5  IDS d 502      27.287  22.965 146.884  0.00  0.00     0.152 C 
ATOM     77  O3  IDS d 502      29.817  22.219 144.232  0.00  0.00    -0.390 OA
ATOM     78  C6  IDS d 502      25.927  22.312 147.082  0.00  0.00     0.206 C 
ATOM     79  O3S IDS d 502      31.001  27.313 144.125  0.00  0.00    -0.572 OA
ATOM     80  C4  IDS d 502      28.084  22.109 145.879  0.00  0.00     0.103 C 
ATOM     81  C2  IDS d 502      29.060  24.255 145.223  0.00  0.00     0.134 C 
ATOM     82  H   IDS d 502      27.958  22.973 143.927  0.00  0.00     0.091 H 
ATOM     83  H   IDS d 502      27.235  25.153 144.655  0.00  0.00     0.133 H 
ATOM     84  H   IDS d 502      27.927  23.028 147.740  0.00  0.00     0.104 H 
ATOM     85  H   IDS d 502      30.471  22.137 144.944  0.00  0.00     0.210 HD
ATOM     86  H   IDS d 502      28.908  21.747 146.456  0.00  0.00     0.092 H 
ATOM     87  H   IDS d 502      29.682  24.157 146.089  0.00  0.00     0.097 H 
ENDROOT
TORSDOF 28
ENDMDL
MODEL 74
REMARK VINA RESULT:      -5.2      2.810      3.344
REMARK  0 active torsions:
REMARK  status: ('A' for Active; 'I' for Inactive)
REMARK       I    between atoms: O3_1  and  C3_18 
REMARK       I    between atoms: O6_2  and  C6_6 
REMARK       I    between atoms: O6_2  and  S2_52 
REMARK       I    between atoms: C4_3  and  O4_50 
REMARK       I    between atoms: C6_4  and  C5_31 
REMARK       I    between atoms: C6_4  and  O6_12 
REMARK       I    between atoms: C6_6  and  C5_15 
REMARK       I    between atoms: O2_7  and  C2_53 
REMARK       I    between atoms: O2_7  and  S_26 
REMARK       I    between atoms: C3_8  and  O3_38 
REMARK       I    between atoms: S1_9  and  N_19 
REMARK       I    between atoms: S1_9  and  O1S_55 
REMARK       I    between atoms: S1_9  and  O2S_49 
REMARK       I    between atoms: S1_9  and  O3S_17 
REMARK       I    between atoms: O6_12  and  S2_45 
REMARK       I    between atoms: O1S_14  and  S1_48 
REMARK       I    between atoms: O3S_16  and  S1_48 
REMARK       I    between atoms: N_19  and  C2_46 
REMARK       I    between atoms: O1_22  and  C1_24 
REMARK       I    between atoms: O1_22  and  C4_41 
REMARK       I    between atoms: N_23  and  C2_47 
REMARK       I    between atoms: N_23  and  S1_48 
REMARK       I    between atoms: O2S_25  and  S1_48 
REMARK       I    between atoms: C1_27  and  O4_44 
REMARK       I    between atoms: C3_34  and  O3_43 
REMARK       I    between atoms: C1_35  and  O1_36 
REMARK       I    between atoms: C5_37  and  C6_39 
REMARK       I    between atoms: O4_44  and  C4_54 
ROOT
ATOM      1  O3  SGN d 503      30.463  20.245 147.620  0.00  0.00    -0.391 OA
ATOM      2  O6  SGN d 503      29.547  18.714 143.307  0.00  0.00    -0.254 OA
ATOM      3  C6  SGN d 503      28.731  17.710 143.900  0.00  0.00     0.067 C 
ATOM      4  O1S SGN d 503      34.628  18.109 147.939  0.00  0.00    -0.296 OA
ATOM      5  C5  SGN d 503      29.196  17.575 145.338  0.00  0.00     0.091 C 
ATOM      6  O3S SGN d 503      33.460  20.210 148.185  0.00  0.00    -0.296 OA
ATOM      7  C3  SGN d 503      30.143  18.931 147.215  0.00  0.00     0.083 C 
ATOM      8  O4S SGN d 503      28.420  20.002 141.297  0.00  0.00    -0.572 OA
ATOM      9  N   SGN d 503      32.029  17.990 148.404  0.00  0.00    -0.210 NA
ATOM     10  O2S SGN d 503      33.872  18.821 150.127  0.00  0.00    -0.296 OA
ATOM     11  O5  SGN d 503      30.420  16.838 145.316  0.00  0.00    -0.350 OA
ATOM     12  O6S SGN d 503      30.784  19.489 141.115  0.00  0.00    -0.572 OA
ATOM     13  O5S SGN d 503      29.127  17.740 140.894  0.00  0.00    -0.572 OA
ATOM     14  C1  SGN d 503      31.074  16.708 146.576  0.00  0.00     0.147 C 
ATOM     15  O1  SGN d 503      30.239  16.017 147.500  0.00  0.00    -0.369 OA
ATOM     16  O4  SGN d 503      28.206  19.652 146.027  0.00  0.00    -0.348 OA
ATOM     17  C2  SGN d 503      31.404  18.095 147.104  0.00  0.00     0.081 C 
ATOM     18  S1  SGN d 503      33.563  18.818 148.678  0.00  0.00     0.156 S 
ATOM     19  S2  SGN d 503      29.469  19.000 141.575  0.00  0.00     0.251 S 
ATOM     20  C4  SGN d 503      29.452  18.978 145.868  0.00  0.00     0.095 C 
ATOM     21  H   SGN d 503      30.906  20.218 148.483  0.00  0.00     0.210 HD
ATOM     22  H   SGN d 503      28.853  16.781 143.384  0.00  0.00     0.080 H 
ATOM     23  H   SGN d 503      27.695  17.973 143.850  0.00  0.00     0.080 H 
ATOM     24  H   SGN d 503      34.420  18.111 146.991  0.00  0.00     0.231 HD
ATOM     25  H   SGN d 503      28.475  17.079 145.955  0.00  0.00     0.090 H 
ATOM     26  H   SGN d 503      33.257  20.203 147.236  0.00  0.00     0.231 HD
ATOM     27  H   SGN d 503      29.496  18.489 147.943  0.00  0.00     0.089 H 
ATOM     28  H   SGN d 503      32.189  16.998 148.581  0.00  0.00     0.140 HD
ATOM     29  H   SGN d 503      34.715  19.277 150.278  0.00  0.00     0.231 HD
ATOM     30  H   SGN d 503      31.974  16.143 146.453  0.00  0.00     0.131 H 
ATOM     31  H   SGN d 503      29.415  16.513 147.627  0.00  0.00     0.212 HD
ATOM     32  H   SGN d 503      32.078  18.568 146.421  0.00  0.00     0.076 H 
ATOM     33  H   SGN d 503      30.079  19.493 145.170  0.00  0.00     0.091 H 
ATOM     34  C4  SGN d 501      27.124  27.816 142.855  0.00  0.00     0.089 C 
ATOM     35  C6  SGN d 501      28.218  28.063 145.114  0.00  0.00     0.067 C 
ATOM     36  O6S SGN d 501      28.287  30.242 147.672  0.00  0.00    -0.572 OA
ATOM     37  S1  SGN d 501      23.574  25.144 140.648  0.00  0.00     0.156 S 
ATOM     38  O6  SGN d 501      27.477  28.086 146.333  0.00  0.00    -0.254 OA
ATOM     39  O5S SGN d 501      26.514  30.550 146.055  0.00  0.00    -0.572 OA
ATOM     40  O3S SGN d 501      23.150  26.562 140.684  0.00  0.00    -0.296 OA
ATOM     41  N   SGN d 501      25.023  24.922 141.643  0.00  0.00    -0.210 NA
ATOM     42  O1  SGN d 501      26.826  24.338 143.703  0.00  0.00    -0.348 OA
ATOM     43  C1  SGN d 501      25.898  25.407 143.877  0.00  0.00     0.150 C 
ATOM     44  C5  SGN d 501      27.573  27.101 144.122  0.00  0.00     0.090 C 
ATOM     45  C3  SGN d 501      26.575  26.790 141.871  0.00  0.00     0.083 C 
ATOM     46  O4S SGN d 501      26.061  29.423 148.147  0.00  0.00    -0.572 OA
ATOM     47  O3  SGN d 501      26.088  27.442 140.715  0.00  0.00    -0.391 OA
ATOM     48  S2  SGN d 501      27.068  29.638 147.082  0.00  0.00     0.251 S 
ATOM     49  C2  SGN d 501      25.458  25.985 142.530  0.00  0.00     0.081 C 
ATOM     50  O2S SGN d 501      23.873  24.758 139.249  0.00  0.00    -0.296 OA
ATOM     51  O4  SGN d 501      28.230  28.505 142.270  0.00  0.00    -0.390 OA
ATOM     52  O5  SGN d 501      26.448  26.436 144.706  0.00  0.00    -0.349 OA
ATOM     53  O1S SGN d 501      22.484  24.294 141.178  0.00  0.00    -0.296 OA
ATOM     54  H   SGN d 501      26.360  28.527 143.094  0.00  0.00     0.091 H 
ATOM     55  H   SGN d 501      28.234  29.047 144.692  0.00  0.00     0.080 H 
ATOM     56  H   SGN d 501      29.215  27.737 145.319  0.00  0.00     0.080 H 
ATOM     57  H   SGN d 501      22.954  26.818 141.599  0.00  0.00     0.231 HD
ATOM     58  H   SGN d 501      25.795  24.736 141.002  0.00  0.00     0.140 HD
ATOM     59  H   SGN d 501      25.035  25.006 144.365  0.00  0.00     0.131 H 
ATOM     60  H   SGN d 501      28.320  26.380 143.866  0.00  0.00     0.090 H 
ATOM     61  H   SGN d 501      27.362  26.123 141.585  0.00  0.00     0.089 H 
ATOM     62  H   SGN d 501      25.373  28.050 140.963  0.00  0.00     0.210 HD
ATOM     63  H   SGN d 501      24.639  26.647 142.716  0.00  0.00     0.076 H 
ATOM     64  H   SGN d 501      24.151  23.829 139.222  0.00  0.00     0.231 HD
ATOM     65  H   SGN d 501      28.927  27.868 142.050  0.00  0.00     0.210 HD
ATOM     66  H   SGN d 501      22.759  23.364 141.155  0.00  0.00     0.231 HD
ATOM     67  O2  IDS d 502      26.050  19.627 144.223  0.00  0.00    -0.244 OA
ATOM     68  C3  IDS d 502      26.293  21.990 143.885  0.00  0.00     0.094 C 
ATOM     69  O2S IDS d 502      25.325  18.857 146.661  0.00  0.00    -0.572 OA
ATOM     70  O1S IDS d 502      23.785  18.392 144.848  0.00  0.00    -0.572 OA
ATOM     71  O5  IDS d 502      28.568  21.937 145.550  0.00  0.00    -0.340 OA
ATOM     72  S   IDS d 502      25.212  18.450 145.240  0.00  0.00     0.252 S 
ATOM     73  C1  IDS d 502      27.992  20.707 145.095  0.00  0.00     0.161 C 
ATOM     74  O61 IDS d 502      29.028  25.076 146.261  0.00  0.00    -0.646 OA
ATOM     75  O62 IDS d 502      29.409  24.201 144.286  0.00  0.00    -0.646 OA
ATOM     76  C5  IDS d 502      27.771  23.134 145.650  0.00  0.00     0.152 C 
ATOM     77  O3  IDS d 502      24.943  22.020 143.472  0.00  0.00    -0.390 OA
ATOM     78  C6  IDS d 502      28.782  24.238 145.371  0.00  0.00     0.206 C 
ATOM     79  O3S IDS d 502      25.830  17.118 145.066  0.00  0.00    -0.572 OA
ATOM     80  C4  IDS d 502      26.625  23.269 144.627  0.00  0.00     0.103 C 
ATOM     81  C2  IDS d 502      26.510  20.832 144.825  0.00  0.00     0.134 C 
ATOM     82  H   IDS d 502      26.916  21.889 143.020  0.00  0.00     0.091 H 
ATOM     83  H   IDS d 502      28.488  20.475 144.176  0.00  0.00     0.133 H 
ATOM     84  H   IDS d 502      27.279  23.153 146.600  0.00  0.00     0.104 H 
ATOM     85  H   IDS d 502      24.368  22.111 144.249  0.00  0.00     0.210 HD
ATOM     86  H   IDS d 502      25.775  23.501 145.233  0.00  0.00     0.092 H 
ATOM     87  H   IDS d 502      25.973  21.001 145.735  0.00  0.00     0.097 H 
ENDROOT
TORSDOF 28
ENDMDL
MODEL 75
REMARK VINA RESULT:      -5.2      4.517      8.849
REMARK  0 active torsions:
REMARK  status: ('A' for Active; 'I' for Inactive)
REMARK       I    between atoms: O3_1  and  C3_18 
REMARK       I    between atoms: O6_2  and  C6_6 
REMARK       I    between atoms: O6_2  and  S2_52 
REMARK       I    between atoms: C4_3  and  O4_50 
REMARK       I    between atoms: C6_4  and  C5_31 
REMARK       I    between atoms: C6_4  and  O6_12 
REMARK       I    between atoms: C6_6  and  C5_15 
REMARK       I    between atoms: O2_7  and  C2_53 
REMARK       I    between atoms: O2_7  and  S_26 
REMARK       I    between atoms: C3_8  and  O3_38 
REMARK       I    between atoms: S1_9  and  N_19 
REMARK       I    between atoms: S1_9  and  O1S_55 
REMARK       I    between atoms: S1_9  and  O2S_49 
REMARK       I    between atoms: S1_9  and  O3S_17 
REMARK       I    between atoms: O6_12  and  S2_45 
REMARK       I    between atoms: O1S_14  and  S1_48 
REMARK       I    between atoms: O3S_16  and  S1_48 
REMARK       I    between atoms: N_19  and  C2_46 
REMARK       I    between atoms: O1_22  and  C1_24 
REMARK       I    between atoms: O1_22  and  C4_41 
REMARK       I    between atoms: N_23  and  C2_47 
REMARK       I    between atoms: N_23  and  S1_48 
REMARK       I    between atoms: O2S_25  and  S1_48 
REMARK       I    between atoms: C1_27  and  O4_44 
REMARK       I    between atoms: C3_34  and  O3_43 
REMARK       I    between atoms: C1_35  and  O1_36 
REMARK       I    between atoms: C5_37  and  C6_39 
REMARK       I    between atoms: O4_44  and  C4_54 
ROOT
ATOM      1  O3  SGN d 503      31.941  25.614 147.851  0.00  0.00    -0.391 OA
ATOM      2  O6  SGN d 503      30.851  21.601 149.971  0.00  0.00    -0.254 OA
ATOM      3  C6  SGN d 503      29.900  22.332 150.736  0.00  0.00     0.067 C 
ATOM      4  O1S SGN d 503      35.768  26.421 150.442  0.00  0.00    -0.296 OA
ATOM      5  C5  SGN d 503      30.332  23.785 150.680  0.00  0.00     0.091 C 
ATOM      6  O3S SGN d 503      34.901  26.267 148.192  0.00  0.00    -0.296 OA
ATOM      7  C3  SGN d 503      31.446  25.430 149.159  0.00  0.00     0.083 C 
ATOM      8  O4S SGN d 503      29.927  19.365 148.911  0.00  0.00    -0.572 OA
ATOM      9  N   SGN d 503      33.175  26.820 150.126  0.00  0.00    -0.210 NA
ATOM     10  O2S SGN d 503      35.103  28.431 149.264  0.00  0.00    -0.296 OA
ATOM     11  O5  SGN d 503      31.442  23.927 151.568  0.00  0.00    -0.350 OA
ATOM     12  O6S SGN d 503      32.199  19.347 149.763  0.00  0.00    -0.572 OA
ATOM     13  O5S SGN d 503      30.317  19.378 151.284  0.00  0.00    -0.572 OA
ATOM     14  C1  SGN d 503      32.063  25.210 151.565  0.00  0.00     0.147 C 
ATOM     15  O1  SGN d 503      31.135  26.213 151.965  0.00  0.00    -0.369 OA
ATOM     16  O4  SGN d 503      29.634  24.077 148.401  0.00  0.00    -0.348 OA
ATOM     17  C2  SGN d 503      32.579  25.502 150.165  0.00  0.00     0.081 C 
ATOM     18  S1  SGN d 503      34.806  26.995 149.477  0.00  0.00     0.156 S 
ATOM     19  S2  SGN d 503      30.825  19.843 149.982  0.00  0.00     0.251 S 
ATOM     20  C4  SGN d 503      30.777  24.074 149.254  0.00  0.00     0.095 C 
ATOM     21  H   SGN d 503      32.370  26.481 147.786  0.00  0.00     0.210 HD
ATOM     22  H   SGN d 503      29.895  21.986 151.749  0.00  0.00     0.080 H 
ATOM     23  H   SGN d 503      28.911  22.206 150.348  0.00  0.00     0.080 H 
ATOM     24  H   SGN d 503      35.569  25.481 150.577  0.00  0.00     0.231 HD
ATOM     25  H   SGN d 503      29.546  24.455 150.959  0.00  0.00     0.090 H 
ATOM     26  H   SGN d 503      34.705  25.328 148.336  0.00  0.00     0.231 HD
ATOM     27  H   SGN d 503      30.738  26.203 149.376  0.00  0.00     0.089 H 
ATOM     28  H   SGN d 503      33.194  27.170 151.084  0.00  0.00     0.140 HD
ATOM     29  H   SGN d 503      36.000  28.527 148.908  0.00  0.00     0.231 HD
ATOM     30  H   SGN d 503      32.877  25.214 152.259  0.00  0.00     0.131 H 
ATOM     31  H   SGN d 503      30.387  26.227 151.348  0.00  0.00     0.212 HD
ATOM     32  H   SGN d 503      33.317  24.769 149.913  0.00  0.00     0.076 H 
ATOM     33  H   SGN d 503      31.474  23.318 148.959  0.00  0.00     0.091 H 
ATOM     34  C4  SGN d 501      29.716  19.521 140.843  0.00  0.00     0.089 C 
ATOM     35  C6  SGN d 501      30.818  21.737 140.356  0.00  0.00     0.067 C 
ATOM     36  O6S SGN d 501      31.171  23.884 137.796  0.00  0.00    -0.572 OA
ATOM     37  S1  SGN d 501      25.846  17.697 143.353  0.00  0.00     0.156 S 
ATOM     38  O6  SGN d 501      30.080  22.910 140.022  0.00  0.00    -0.254 OA
ATOM     39  O5S SGN d 501      29.469  22.185 137.537  0.00  0.00    -0.572 OA
ATOM     40  O3S SGN d 501      25.622  17.476 141.906  0.00  0.00    -0.296 OA
ATOM     41  N   SGN d 501      27.243  18.759 143.593  0.00  0.00    -0.210 NA
ATOM     42  O1  SGN d 501      28.934  20.943 144.048  0.00  0.00    -0.348 OA
ATOM     43  C1  SGN d 501      28.162  20.902 142.849  0.00  0.00     0.150 C 
ATOM     44  C5  SGN d 501      30.053  20.905 141.381  0.00  0.00     0.090 C 
ATOM     45  C3  SGN d 501      29.037  18.711 141.940  0.00  0.00     0.083 C 
ATOM     46  O4S SGN d 501      28.850  24.424 138.211  0.00  0.00    -0.572 OA
ATOM     47  O3  SGN d 501      28.653  17.446 141.439  0.00  0.00    -0.391 OA
ATOM     48  S2  SGN d 501      29.885  23.370 138.323  0.00  0.00     0.251 S 
ATOM     49  C2  SGN d 501      27.815  19.464 142.460  0.00  0.00     0.081 C 
ATOM     50  O2S SGN d 501      26.097  16.394 144.013  0.00  0.00    -0.296 OA
ATOM     51  O4  SGN d 501      30.911  18.861 140.422  0.00  0.00    -0.390 OA
ATOM     52  O5  SGN d 501      28.843  21.560 141.775  0.00  0.00    -0.349 OA
ATOM     53  O1S SGN d 501      24.644  18.331 143.942  0.00  0.00    -0.296 OA
ATOM     54  H   SGN d 501      29.057  19.611 140.005  0.00  0.00     0.091 H 
ATOM     55  H   SGN d 501      30.974  21.153 139.473  0.00  0.00     0.080 H 
ATOM     56  H   SGN d 501      31.760  22.025 140.775  0.00  0.00     0.080 H 
ATOM     57  H   SGN d 501      25.457  18.327 141.471  0.00  0.00     0.231 HD
ATOM     58  H   SGN d 501      27.986  18.184 143.990  0.00  0.00     0.140 HD
ATOM     59  H   SGN d 501      27.248  21.425 143.038  0.00  0.00     0.131 H 
ATOM     60  H   SGN d 501      30.695  20.799 142.230  0.00  0.00     0.090 H 
ATOM     61  H   SGN d 501      29.726  18.568 142.747  0.00  0.00     0.089 H 
ATOM     62  H   SGN d 501      28.027  17.564 140.707  0.00  0.00     0.210 HD
ATOM     63  H   SGN d 501      27.094  19.508 141.671  0.00  0.00     0.076 H 
ATOM     64  H   SGN d 501      26.244  16.536 144.962  0.00  0.00     0.231 HD
ATOM     65  H   SGN d 501      31.515  18.775 141.176  0.00  0.00     0.210 HD
ATOM     66  H   SGN d 501      24.788  18.476 144.891  0.00  0.00     0.231 HD
ATOM     67  O2  IDS d 502      27.509  22.238 148.447  0.00  0.00    -0.244 OA
ATOM     68  C3  IDS d 502      28.079  21.508 146.234  0.00  0.00     0.094 C 
ATOM     69  O2S IDS d 502      26.667  24.749 148.676  0.00  0.00    -0.572 OA
ATOM     70  O1S IDS d 502      25.090  22.996 149.236  0.00  0.00    -0.572 OA
ATOM     71  O5  IDS d 502      30.313  23.226 146.303  0.00  0.00    -0.340 OA
ATOM     72  S   IDS d 502      26.509  23.416 149.305  0.00  0.00     0.252 S 
ATOM     73  C1  IDS d 502      29.576  22.972 147.505  0.00  0.00     0.161 C 
ATOM     74  O61 IDS d 502      31.199  23.403 143.180  0.00  0.00    -0.646 OA
ATOM     75  O62 IDS d 502      31.468  21.620 144.430  0.00  0.00    -0.646 OA
ATOM     76  C5  IDS d 502      29.689  23.095 145.011  0.00  0.00     0.152 C 
ATOM     77  O3  IDS d 502      26.748  21.055 146.094  0.00  0.00    -0.390 OA
ATOM     78  C6  IDS d 502      30.845  22.662 144.120  0.00  0.00     0.206 C 
ATOM     79  O3S IDS d 502      26.937  23.492 150.718  0.00  0.00    -0.572 OA
ATOM     80  C4  IDS d 502      28.580  22.030 144.903  0.00  0.00     0.103 C 
ATOM     81  C2  IDS d 502      28.127  22.639 147.229  0.00  0.00     0.134 C 
ATOM     82  H   IDS d 502      28.688  20.693 146.567  0.00  0.00     0.091 H 
ATOM     83  H   IDS d 502      30.041  22.122 147.959  0.00  0.00     0.133 H 
ATOM     84  H   IDS d 502      29.198  24.013 144.761  0.00  0.00     0.104 H 
ATOM     85  H   IDS d 502      26.187  21.787 145.792  0.00  0.00     0.210 HD
ATOM     86  H   IDS d 502      27.766  22.561 144.455  0.00  0.00     0.092 H 
ATOM     87  H   IDS d 502      27.612  23.490 146.833  0.00  0.00     0.097 H 
ENDROOT
TORSDOF 28
ENDMDL
MODEL 76
REMARK VINA RESULT:      -5.1      3.440     10.025
REMARK  0 active torsions:
REMARK  status: ('A' for Active; 'I' for Inactive)
REMARK       I    between atoms: O3_1  and  C3_18 
REMARK       I    between atoms: O6_2  and  C6_6 
REMARK       I    between atoms: O6_2  and  S2_52 
REMARK       I    between atoms: C4_3  and  O4_50 
REMARK       I    between atoms: C6_4  and  C5_31 
REMARK       I    between atoms: C6_4  and  O6_12 
REMARK       I    between atoms: C6_6  and  C5_15 
REMARK       I    between atoms: O2_7  and  C2_53 
REMARK       I    between atoms: O2_7  and  S_26 
REMARK       I    between atoms: C3_8  and  O3_38 
REMARK       I    between atoms: S1_9  and  N_19 
REMARK       I    between atoms: S1_9  and  O1S_55 
REMARK       I    between atoms: S1_9  and  O2S_49 
REMARK       I    between atoms: S1_9  and  O3S_17 
REMARK       I    between atoms: O6_12  and  S2_45 
REMARK       I    between atoms: O1S_14  and  S1_48 
REMARK       I    between atoms: O3S_16  and  S1_48 
REMARK       I    between atoms: N_19  and  C2_46 
REMARK       I    between atoms: O1_22  and  C1_24 
REMARK       I    between atoms: O1_22  and  C4_41 
REMARK       I    between atoms: N_23  and  C2_47 
REMARK       I    between atoms: N_23  and  S1_48 
REMARK       I    between atoms: O2S_25  and  S1_48 
REMARK       I    between atoms: C1_27  and  O4_44 
REMARK       I    between atoms: C3_34  and  O3_43 
REMARK       I    between atoms: C1_35  and  O1_36 
REMARK       I    between atoms: C5_37  and  C6_39 
REMARK       I    between atoms: O4_44  and  C4_54 
ROOT
ATOM      1  O3  SGN d 503      25.848  24.461 143.397  0.00  0.00    -0.391 OA
ATOM      2  O6  SGN d 503      29.491  23.702 140.580  0.00  0.00    -0.254 OA
ATOM      3  C6  SGN d 503      30.010  24.956 141.010  0.00  0.00     0.067 C 
ATOM      4  O1S SGN d 503      22.996  25.961 139.987  0.00  0.00    -0.296 OA
ATOM      5  C5  SGN d 503      28.831  25.742 141.554  0.00  0.00     0.091 C 
ATOM      6  O3S SGN d 503      23.227  24.425 141.838  0.00  0.00    -0.296 OA
ATOM      7  C3  SGN d 503      26.656  25.418 142.747  0.00  0.00     0.083 C 
ATOM      8  O4S SGN d 503      31.232  21.718 140.622  0.00  0.00    -0.572 OA
ATOM      9  N   SGN d 503      24.738  26.602 141.869  0.00  0.00    -0.210 NA
ATOM     10  O2S SGN d 503      22.098  26.545 142.160  0.00  0.00    -0.296 OA
ATOM     11  O5  SGN d 503      28.089  26.218 140.430  0.00  0.00    -0.350 OA
ATOM     12  O6S SGN d 503      29.657  21.788 138.778  0.00  0.00    -0.572 OA
ATOM     13  O5S SGN d 503      31.487  23.367 138.891  0.00  0.00    -0.572 OA
ATOM     14  C1  SGN d 503      26.872  26.889 140.745  0.00  0.00     0.147 C 
ATOM     15  O1  SGN d 503      27.130  28.044 141.537  0.00  0.00    -0.369 OA
ATOM     16  O4  SGN d 503      28.669  24.429 143.559  0.00  0.00    -0.348 OA
ATOM     17  C2  SGN d 503      25.963  25.930 141.499  0.00  0.00     0.081 C 
ATOM     18  S1  SGN d 503      23.197  25.852 141.447  0.00  0.00     0.156 S 
ATOM     19  S2  SGN d 503      30.510  22.593 139.675  0.00  0.00     0.251 S 
ATOM     20  C4  SGN d 503      27.975  24.779 142.363  0.00  0.00     0.095 C 
ATOM     21  H   SGN d 503      25.003  24.867 143.645  0.00  0.00     0.210 HD
ATOM     22  H   SGN d 503      30.452  25.476 140.186  0.00  0.00     0.080 H 
ATOM     23  H   SGN d 503      30.767  24.827 141.754  0.00  0.00     0.080 H 
ATOM     24  H   SGN d 503      23.718  25.506 139.526  0.00  0.00     0.231 HD
ATOM     25  H   SGN d 503      29.138  26.562 142.170  0.00  0.00     0.090 H 
ATOM     26  H   SGN d 503      23.948  23.976 141.369  0.00  0.00     0.231 HD
ATOM     27  H   SGN d 503      26.828  26.239 143.412  0.00  0.00     0.089 H 
ATOM     28  H   SGN d 503      24.754  27.521 141.427  0.00  0.00     0.140 HD
ATOM     29  H   SGN d 503      21.251  26.132 141.928  0.00  0.00     0.231 HD
ATOM     30  H   SGN d 503      26.395  27.205 139.841  0.00  0.00     0.131 H 
ATOM     31  H   SGN d 503      27.564  27.779 142.364  0.00  0.00     0.212 HD
ATOM     32  H   SGN d 503      25.738  25.101 140.860  0.00  0.00     0.076 H 
ATOM     33  H   SGN d 503      27.784  23.914 141.764  0.00  0.00     0.091 H 
ATOM     34  C4  SGN d 501      29.375  15.971 145.979  0.00  0.00     0.089 C 
ATOM     35  C6  SGN d 501      27.133  16.772 146.813  0.00  0.00     0.067 C 
ATOM     36  O6S SGN d 501      25.023  16.191 149.363  0.00  0.00    -0.572 OA
ATOM     37  S1  SGN d 501      34.061  17.560 145.626  0.00  0.00     0.156 S 
ATOM     38  O6  SGN d 501      26.970  17.454 148.055  0.00  0.00    -0.254 OA
ATOM     39  O5S SGN d 501      27.266  15.319 149.614  0.00  0.00    -0.572 OA
ATOM     40  O3S SGN d 501      34.016  16.414 146.563  0.00  0.00    -0.296 OA
ATOM     41  N   SGN d 501      32.416  18.082 145.231  0.00  0.00    -0.210 NA
ATOM     42  O1  SGN d 501      29.954  19.409 145.113  0.00  0.00    -0.348 OA
ATOM     43  C1  SGN d 501      30.298  18.691 146.296  0.00  0.00     0.150 C 
ATOM     44  C5  SGN d 501      28.453  17.170 146.162  0.00  0.00     0.090 C 
ATOM     45  C3  SGN d 501      30.632  16.417 145.243  0.00  0.00     0.083 C 
ATOM     46  O4S SGN d 501      26.646  17.391 150.696  0.00  0.00    -0.572 OA
ATOM     47  O3  SGN d 501      31.533  15.333 145.125  0.00  0.00    -0.391 OA
ATOM     48  S2  SGN d 501      26.455  16.552 149.490  0.00  0.00     0.251 S 
ATOM     49  C2  SGN d 501      31.293  17.569 145.995  0.00  0.00     0.081 C 
ATOM     50  O2S SGN d 501      34.760  17.149 144.386  0.00  0.00    -0.296 OA
ATOM     51  O4  SGN d 501      28.707  14.957 145.227  0.00  0.00    -0.390 OA
ATOM     52  O5  SGN d 501      29.130  18.165 146.936  0.00  0.00    -0.349 OA
ATOM     53  O1S SGN d 501      34.790  18.682 146.261  0.00  0.00    -0.296 OA
ATOM     54  H   SGN d 501      29.642  15.574 146.936  0.00  0.00     0.091 H 
ATOM     55  H   SGN d 501      27.130  15.716 146.987  0.00  0.00     0.080 H 
ATOM     56  H   SGN d 501      26.328  17.038 146.161  0.00  0.00     0.080 H 
ATOM     57  H   SGN d 501      33.559  16.680 147.377  0.00  0.00     0.231 HD
ATOM     58  H   SGN d 501      32.251  17.827 144.257  0.00  0.00     0.140 HD
ATOM     59  H   SGN d 501      30.767  19.381 146.966  0.00  0.00     0.131 H 
ATOM     60  H   SGN d 501      28.211  17.570 145.200  0.00  0.00     0.090 H 
ATOM     61  H   SGN d 501      30.364  16.751 144.262  0.00  0.00     0.089 H 
ATOM     62  H   SGN d 501      31.782  15.022 146.010  0.00  0.00     0.210 HD
ATOM     63  H   SGN d 501      31.647  17.192 146.932  0.00  0.00     0.076 H 
ATOM     64  H   SGN d 501      34.791  17.898 143.770  0.00  0.00     0.231 HD
ATOM     65  H   SGN d 501      28.461  15.310 144.358  0.00  0.00     0.210 HD
ATOM     66  H   SGN d 501      34.822  19.434 145.649  0.00  0.00     0.231 HD
ATOM     67  O2  IDS d 502      31.398  23.793 143.782  0.00  0.00    -0.244 OA
ATOM     68  C3  IDS d 502      30.832  21.572 144.494  0.00  0.00     0.094 C 
ATOM     69  O2S IDS d 502      30.692  25.767 145.416  0.00  0.00    -0.572 OA
ATOM     70  O1S IDS d 502      33.063  25.430 145.045  0.00  0.00    -0.572 OA
ATOM     71  O5  IDS d 502      28.113  22.191 144.072  0.00  0.00    -0.340 OA
ATOM     72  S   IDS d 502      31.723  25.411 144.413  0.00  0.00     0.252 S 
ATOM     73  C1  IDS d 502      29.127  23.081 143.591  0.00  0.00     0.161 C 
ATOM     74  O61 IDS d 502      26.566  19.811 145.657  0.00  0.00    -0.646 OA
ATOM     75  O62 IDS d 502      27.664  19.519 143.780  0.00  0.00    -0.646 OA
ATOM     76  C5  IDS d 502      28.369  21.311 145.185  0.00  0.00     0.152 C 
ATOM     77  O3  IDS d 502      32.103  21.497 145.104  0.00  0.00    -0.390 OA
ATOM     78  C6  IDS d 502      27.490  20.108 144.873  0.00  0.00     0.206 C 
ATOM     79  O3S IDS d 502      31.682  26.390 143.306  0.00  0.00    -0.572 OA
ATOM     80  C4  IDS d 502      29.821  20.814 145.331  0.00  0.00     0.103 C 
ATOM     81  C2  IDS d 502      30.391  23.012 144.417  0.00  0.00     0.134 C 
ATOM     82  H   IDS d 502      30.893  21.150 143.512  0.00  0.00     0.091 H 
ATOM     83  H   IDS d 502      29.351  22.758 142.596  0.00  0.00     0.133 H 
ATOM     84  H   IDS d 502      28.175  21.832 146.099  0.00  0.00     0.104 H 
ATOM     85  H   IDS d 502      32.058  21.878 145.995  0.00  0.00     0.210 HD
ATOM     86  H   IDS d 502      30.054  21.021 146.355  0.00  0.00     0.092 H 
ATOM     87  H   IDS d 502      30.219  23.389 145.404  0.00  0.00     0.097 H 
ENDROOT
TORSDOF 28
ENDMDL
MODEL 77
REMARK VINA RESULT:      -5.0      3.800      8.958
REMARK  0 active torsions:
REMARK  status: ('A' for Active; 'I' for Inactive)
REMARK       I    between atoms: O3_1  and  C3_18 
REMARK       I    between atoms: O6_2  and  C6_6 
REMARK       I    between atoms: O6_2  and  S2_52 
REMARK       I    between atoms: C4_3  and  O4_50 
REMARK       I    between atoms: C6_4  and  C5_31 
REMARK       I    between atoms: C6_4  and  O6_12 
REMARK       I    between atoms: C6_6  and  C5_15 
REMARK       I    between atoms: O2_7  and  C2_53 
REMARK       I    between atoms: O2_7  and  S_26 
REMARK       I    between atoms: C3_8  and  O3_38 
REMARK       I    between atoms: S1_9  and  N_19 
REMARK       I    between atoms: S1_9  and  O1S_55 
REMARK       I    between atoms: S1_9  and  O2S_49 
REMARK       I    between atoms: S1_9  and  O3S_17 
REMARK       I    between atoms: O6_12  and  S2_45 
REMARK       I    between atoms: O1S_14  and  S1_48 
REMARK       I    between atoms: O3S_16  and  S1_48 
REMARK       I    between atoms: N_19  and  C2_46 
REMARK       I    between atoms: O1_22  and  C1_24 
REMARK       I    between atoms: O1_22  and  C4_41 
REMARK       I    between atoms: N_23  and  C2_47 
REMARK       I    between atoms: N_23  and  S1_48 
REMARK       I    between atoms: O2S_25  and  S1_48 
REMARK       I    between atoms: C1_27  and  O4_44 
REMARK       I    between atoms: C3_34  and  O3_43 
REMARK       I    between atoms: C1_35  and  O1_36 
REMARK       I    between atoms: C5_37  and  C6_39 
REMARK       I    between atoms: O4_44  and  C4_54 
ROOT
ATOM      1  O3  SGN d 503      32.909  28.794 146.963  0.00  0.00    -0.391 OA
ATOM      2  O6  SGN d 503      29.735  26.876 149.797  0.00  0.00    -0.254 OA
ATOM      3  C6  SGN d 503      29.317  28.196 150.125  0.00  0.00     0.067 C 
ATOM      4  O1S SGN d 503      36.472  28.363 149.985  0.00  0.00    -0.296 OA
ATOM      5  C5  SGN d 503      30.476  29.110 149.777  0.00  0.00     0.091 C 
ATOM      6  O3S SGN d 503      35.731  27.926 147.727  0.00  0.00    -0.296 OA
ATOM      7  C3  SGN d 503      32.354  29.340 148.141  0.00  0.00     0.083 C 
ATOM      8  O4S SGN d 503      27.771  25.215 149.200  0.00  0.00    -0.572 OA
ATOM      9  N   SGN d 503      34.532  29.890 149.042  0.00  0.00    -0.210 NA
ATOM     10  O2S SGN d 503      37.053  29.900 148.205  0.00  0.00    -0.296 OA
ATOM     11  O5  SGN d 503      31.455  28.958 150.807  0.00  0.00    -0.350 OA
ATOM     12  O6S SGN d 503      29.634  24.333 150.480  0.00  0.00    -0.572 OA
ATOM     13  O5S SGN d 503      28.031  25.824 151.512  0.00  0.00    -0.572 OA
ATOM     14  C1  SGN d 503      32.677  29.660 150.593  0.00  0.00     0.147 C 
ATOM     15  O1  SGN d 503      32.438  31.062 150.510  0.00  0.00    -0.369 OA
ATOM     16  O4  SGN d 503      30.122  28.931 147.409  0.00  0.00    -0.348 OA
ATOM     17  C2  SGN d 503      33.311  29.160 149.304  0.00  0.00     0.081 C 
ATOM     18  S1  SGN d 503      36.012  28.983 148.725  0.00  0.00     0.156 S 
ATOM     19  S2  SGN d 503      28.751  25.498 150.269  0.00  0.00     0.251 S 
ATOM     20  C4  SGN d 503      31.050  28.635 148.450  0.00  0.00     0.095 C 
ATOM     21  H   SGN d 503      33.745  29.243 146.762  0.00  0.00     0.210 HD
ATOM     22  H   SGN d 503      29.093  28.264 151.169  0.00  0.00     0.080 H 
ATOM     23  H   SGN d 503      28.433  28.467 149.588  0.00  0.00     0.080 H 
ATOM     24  H   SGN d 503      35.787  27.763 150.321  0.00  0.00     0.231 HD
ATOM     25  H   SGN d 503      30.177  30.135 149.698  0.00  0.00     0.090 H 
ATOM     26  H   SGN d 503      35.049  27.328 148.072  0.00  0.00     0.231 HD
ATOM     27  H   SGN d 503      32.180  30.385 147.992  0.00  0.00     0.089 H 
ATOM     28  H   SGN d 503      34.710  30.479 149.855  0.00  0.00     0.140 HD
ATOM     29  H   SGN d 503      37.866  29.401 148.031  0.00  0.00     0.231 HD
ATOM     30  H   SGN d 503      33.338  29.483 151.414  0.00  0.00     0.131 H 
ATOM     31  H   SGN d 503      31.839  31.245 149.769  0.00  0.00     0.212 HD
ATOM     32  H   SGN d 503      33.534  28.119 149.415  0.00  0.00     0.076 H 
ATOM     33  H   SGN d 503      31.227  27.582 148.519  0.00  0.00     0.091 H 
ATOM     34  C4  SGN d 501      27.926  22.735 141.520  0.00  0.00     0.089 C 
ATOM     35  C6  SGN d 501      30.076  23.771 140.703  0.00  0.00     0.067 C 
ATOM     36  O6S SGN d 501      31.625  24.435 137.797  0.00  0.00    -0.572 OA
ATOM     37  S1  SGN d 501      23.614  24.095 143.561  0.00  0.00     0.156 S 
ATOM     38  O6  SGN d 501      30.111  24.964 139.923  0.00  0.00    -0.254 OA
ATOM     39  O5S SGN d 501      29.279  23.864 137.649  0.00  0.00    -0.572 OA
ATOM     40  O3S SGN d 501      23.350  23.548 142.211  0.00  0.00    -0.296 OA
ATOM     41  N   SGN d 501      25.356  24.309 143.796  0.00  0.00    -0.210 NA
ATOM     42  O1  SGN d 501      27.953  25.337 143.996  0.00  0.00    -0.348 OA
ATOM     43  C1  SGN d 501      27.322  25.294 142.718  0.00  0.00     0.150 C 
ATOM     44  C5  SGN d 501      28.950  23.843 141.729  0.00  0.00     0.090 C 
ATOM     45  C3  SGN d 501      26.881  22.806 142.627  0.00  0.00     0.083 C 
ATOM     46  O4S SGN d 501      29.968  26.181 137.560  0.00  0.00    -0.572 OA
ATOM     47  O3  SGN d 501      25.882  21.829 142.411  0.00  0.00    -0.391 OA
ATOM     48  S2  SGN d 501      30.252  24.857 138.161  0.00  0.00     0.251 S 
ATOM     49  C2  SGN d 501      26.256  24.198 142.662  0.00  0.00     0.081 C 
ATOM     50  O2S SGN d 501      23.090  23.156 144.581  0.00  0.00    -0.296 OA
ATOM     51  O4  SGN d 501      28.576  21.463 141.548  0.00  0.00    -0.390 OA
ATOM     52  O5  SGN d 501      28.284  25.109 141.675  0.00  0.00    -0.349 OA
ATOM     53  O1S SGN d 501      22.939  25.406 143.697  0.00  0.00    -0.296 OA
ATOM     54  H   SGN d 501      27.450  22.859 140.570  0.00  0.00     0.091 H 
ATOM     55  H   SGN d 501      29.913  22.931 140.059  0.00  0.00     0.080 H 
ATOM     56  H   SGN d 501      31.008  23.662 141.217  0.00  0.00     0.080 H 
ATOM     57  H   SGN d 501      23.692  24.161 141.541  0.00  0.00     0.231 HD
ATOM     58  H   SGN d 501      25.651  23.609 144.477  0.00  0.00     0.140 HD
ATOM     59  H   SGN d 501      26.838  26.236 142.567  0.00  0.00     0.131 H 
ATOM     60  H   SGN d 501      29.402  23.719 142.690  0.00  0.00     0.090 H 
ATOM     61  H   SGN d 501      27.354  22.614 143.567  0.00  0.00     0.089 H 
ATOM     62  H   SGN d 501      25.447  21.994 141.559  0.00  0.00     0.210 HD
ATOM     63  H   SGN d 501      25.701  24.334 141.757  0.00  0.00     0.076 H 
ATOM     64  H   SGN d 501      23.262  23.512 145.467  0.00  0.00     0.231 HD
ATOM     65  H   SGN d 501      29.011  21.342 142.406  0.00  0.00     0.210 HD
ATOM     66  H   SGN d 501      23.110  25.767 144.582  0.00  0.00     0.231 HD
ATOM     67  O2  IDS d 502      27.336  28.566 147.498  0.00  0.00    -0.244 OA
ATOM     68  C3  IDS d 502      27.481  26.954 145.727  0.00  0.00     0.094 C 
ATOM     69  O2S IDS d 502      28.001  31.062 146.872  0.00  0.00    -0.572 OA
ATOM     70  O1S IDS d 502      25.705  30.660 147.536  0.00  0.00    -0.572 OA
ATOM     71  O5  IDS d 502      30.288  27.206 145.801  0.00  0.00    -0.340 OA
ATOM     72  S   IDS d 502      27.119  30.296 147.784  0.00  0.00     0.252 S 
ATOM     73  C1  IDS d 502      29.495  27.783 146.847  0.00  0.00     0.161 C 
ATOM     74  O61 IDS d 502      31.221  25.848 142.999  0.00  0.00    -0.646 OA
ATOM     75  O62 IDS d 502      30.431  24.716 144.704  0.00  0.00    -0.646 OA
ATOM     76  C5  IDS d 502      29.734  26.985 144.490  0.00  0.00     0.152 C 
ATOM     77  O3  IDS d 502      26.124  27.222 145.438  0.00  0.00    -0.390 OA
ATOM     78  C6  IDS d 502      30.490  25.756 144.006  0.00  0.00     0.206 C 
ATOM     79  O3S IDS d 502      27.476  30.614 149.184  0.00  0.00    -0.572 OA
ATOM     80  C4  IDS d 502      28.226  26.667 144.439  0.00  0.00     0.103 C 
ATOM     81  C2  IDS d 502      28.111  28.161 146.374  0.00  0.00     0.134 C 
ATOM     82  H   IDS d 502      27.534  26.110 146.384  0.00  0.00     0.091 H 
ATOM     83  H   IDS d 502      29.405  27.024 147.596  0.00  0.00     0.133 H 
ATOM     84  H   IDS d 502      29.834  27.878 143.908  0.00  0.00     0.104 H 
ATOM     85  H   IDS d 502      26.065  27.986 144.843  0.00  0.00     0.210 HD
ATOM     86  H   IDS d 502      27.850  27.351 143.708  0.00  0.00     0.092 H 
ATOM     87  H   IDS d 502      28.158  28.964 145.668  0.00  0.00     0.097 H 
ENDROOT
TORSDOF 28
ENDMDL
MODEL 78
REMARK VINA RESULT:       0.6      3.643      9.815
REMARK  0 active torsions:
REMARK  status: ('A' for Active; 'I' for Inactive)
REMARK       I    between atoms: O3_1  and  C3_18 
REMARK       I    between atoms: O6_2  and  C6_6 
REMARK       I    between atoms: O6_2  and  S2_52 
REMARK       I    between atoms: C4_3  and  O4_50 
REMARK       I    between atoms: C6_4  and  C5_31 
REMARK       I    between atoms: C6_4  and  O6_12 
REMARK       I    between atoms: C6_6  and  C5_15 
REMARK       I    between atoms: O2_7  and  C2_53 
REMARK       I    between atoms: O2_7  and  S_26 
REMARK       I    between atoms: C3_8  and  O3_38 
REMARK       I    between atoms: S1_9  and  N_19 
REMARK       I    between atoms: S1_9  and  O1S_55 
REMARK       I    between atoms: S1_9  and  O2S_49 
REMARK       I    between atoms: S1_9  and  O3S_17 
REMARK       I    between atoms: O6_12  and  S2_45 
REMARK       I    between atoms: O1S_14  and  S1_48 
REMARK       I    between atoms: O3S_16  and  S1_48 
REMARK       I    between atoms: N_19  and  C2_46 
REMARK       I    between atoms: O1_22  and  C1_24 
REMARK       I    between atoms: O1_22  and  C4_41 
REMARK       I    between atoms: N_23  and  C2_47 
REMARK       I    between atoms: N_23  and  S1_48 
REMARK       I    between atoms: O2S_25  and  S1_48 
REMARK       I    between atoms: C1_27  and  O4_44 
REMARK       I    between atoms: C3_34  and  O3_43 
REMARK       I    between atoms: C1_35  and  O1_36 
REMARK       I    between atoms: C5_37  and  C6_39 
REMARK       I    between atoms: O4_44  and  C4_54 
ROOT
ATOM      1  O3  SGN d 503      25.561  26.932 146.691  0.00  0.00    -0.391 OA
ATOM      2  O6  SGN d 503      26.131  23.073 149.253  0.00  0.00    -0.254 OA
ATOM      3  C6  SGN d 503      24.713  22.994 149.344  0.00  0.00     0.067 C 
ATOM      4  O1S SGN d 503      26.376  29.900 150.232  0.00  0.00    -0.296 OA
ATOM      5  C5  SGN d 503      24.188  24.388 149.054  0.00  0.00     0.091 C 
ATOM      6  O3S SGN d 503      26.975  29.315 147.965  0.00  0.00    -0.296 OA
ATOM      7  C3  SGN d 503      24.709  26.423 147.694  0.00  0.00     0.083 C 
ATOM      8  O4S SGN d 503      27.318  20.808 148.595  0.00  0.00    -0.572 OA
ATOM      9  N   SGN d 503      24.585  28.558 148.826  0.00  0.00    -0.210 NA
ATOM     10  O2S SGN d 503      25.346  31.063 148.372  0.00  0.00    -0.296 OA
ATOM     11  O5  SGN d 503      24.412  25.173 150.227  0.00  0.00    -0.350 OA
ATOM     12  O6S SGN d 503      28.419  22.215 150.236  0.00  0.00    -0.572 OA
ATOM     13  O5S SGN d 503      26.426  20.974 150.821  0.00  0.00    -0.572 OA
ATOM     14  C1  SGN d 503      24.084  26.555 150.105  0.00  0.00     0.147 C 
ATOM     15  O1  SGN d 503      22.701  26.715 149.808  0.00  0.00    -0.369 OA
ATOM     16  O4  SGN d 503      24.657  24.255 146.703  0.00  0.00    -0.348 OA
ATOM     17  C2  SGN d 503      24.931  27.165 148.999  0.00  0.00     0.081 C 
ATOM     18  S1  SGN d 503      25.874  29.763 148.848  0.00  0.00     0.156 S 
ATOM     19  S2  SGN d 503      27.120  21.708 149.750  0.00  0.00     0.251 S 
ATOM     20  C4  SGN d 503      25.002  24.951 147.898  0.00  0.00     0.095 C 
ATOM     21  H   SGN d 503      25.375  27.875 146.558  0.00  0.00     0.210 HD
ATOM     22  H   SGN d 503      24.421  22.687 150.327  0.00  0.00     0.080 H 
ATOM     23  H   SGN d 503      24.319  22.280 148.653  0.00  0.00     0.080 H 
ATOM     24  H   SGN d 503      26.720  29.047 150.538  0.00  0.00     0.231 HD
ATOM     25  H   SGN d 503      23.148  24.388 148.801  0.00  0.00     0.090 H 
ATOM     26  H   SGN d 503      27.317  28.464 148.280  0.00  0.00     0.231 HD
ATOM     27  H   SGN d 503      23.692  26.554 147.388  0.00  0.00     0.089 H 
ATOM     28  H   SGN d 503      23.935  28.801 149.573  0.00  0.00     0.140 HD
ATOM     29  H   SGN d 503      26.054  31.724 148.385  0.00  0.00     0.231 HD
ATOM     30  H   SGN d 503      24.286  27.052 151.030  0.00  0.00     0.131 H 
ATOM     31  H   SGN d 503      22.496  26.271 148.970  0.00  0.00     0.212 HD
ATOM     32  H   SGN d 503      25.962  27.084 149.274  0.00  0.00     0.076 H 
ATOM     33  H   SGN d 503      26.040  24.828 148.127  0.00  0.00     0.091 H 
ATOM     34  C4  SGN d 501      30.975  21.108 141.404  0.00  0.00     0.089 C 
ATOM     35  C6  SGN d 501      30.661  23.533 140.785  0.00  0.00     0.067 C 
ATOM     36  O6S SGN d 501      30.890  25.506 138.075  0.00  0.00    -0.572 OA
ATOM     37  S1  SGN d 501      28.260  17.132 142.600  0.00  0.00     0.156 S 
ATOM     38  O6  SGN d 501      29.658  23.973 139.871  0.00  0.00    -0.254 OA
ATOM     39  O5S SGN d 501      30.869  23.123 137.661  0.00  0.00    -0.572 OA
ATOM     40  O3S SGN d 501      28.936  16.876 141.308  0.00  0.00    -0.296 OA
ATOM     41  N   SGN d 501      28.455  18.832 143.058  0.00  0.00    -0.210 NA
ATOM     42  O1  SGN d 501      28.095  21.572 143.502  0.00  0.00    -0.348 OA
ATOM     43  C1  SGN d 501      28.186  21.094 142.161  0.00  0.00     0.150 C 
ATOM     44  C5  SGN d 501      30.141  22.365 141.617  0.00  0.00     0.090 C 
ATOM     45  C3  SGN d 501      30.464  20.009 142.328  0.00  0.00     0.083 C 
ATOM     46  O4S SGN d 501      28.846  24.418 137.375  0.00  0.00    -0.572 OA
ATOM     47  O3  SGN d 501      31.180  18.812 142.096  0.00  0.00    -0.391 OA
ATOM     48  S2  SGN d 501      30.083  24.267 138.177  0.00  0.00     0.251 S 
ATOM     49  C2  SGN d 501      28.973  19.784 142.091  0.00  0.00     0.081 C 
ATOM     50  O2S SGN d 501      28.858  16.268 143.645  0.00  0.00    -0.296 OA
ATOM     51  O4  SGN d 501      32.347  21.383 141.691  0.00  0.00    -0.390 OA
ATOM     52  O5  SGN d 501      28.775  22.077 141.303  0.00  0.00    -0.349 OA
ATOM     53  O1S SGN d 501      26.817  16.826 142.466  0.00  0.00    -0.296 OA
ATOM     54  H   SGN d 501      30.891  20.788 140.387  0.00  0.00     0.091 H 
ATOM     55  H   SGN d 501      31.525  23.219 140.237  0.00  0.00     0.080 H 
ATOM     56  H   SGN d 501      30.915  24.340 141.439  0.00  0.00     0.080 H 
ATOM     57  H   SGN d 501      28.546  17.440 140.622  0.00  0.00     0.231 HD
ATOM     58  H   SGN d 501      29.086  18.851 143.859  0.00  0.00     0.140 HD
ATOM     59  H   SGN d 501      27.190  20.902 141.821  0.00  0.00     0.131 H 
ATOM     60  H   SGN d 501      30.217  22.661 142.641  0.00  0.00     0.090 H 
ATOM     61  H   SGN d 501      30.613  20.309 143.345  0.00  0.00     0.089 H 
ATOM     62  H   SGN d 501      31.051  18.531 141.176  0.00  0.00     0.210 HD
ATOM     63  H   SGN d 501      28.851  19.387 141.105  0.00  0.00     0.076 H 
ATOM     64  H   SGN d 501      28.417  16.434 144.493  0.00  0.00     0.231 HD
ATOM     65  H   SGN d 501      32.432  21.674 142.612  0.00  0.00     0.210 HD
ATOM     66  H   SGN d 501      26.371  16.993 143.312  0.00  0.00     0.231 HD
ATOM     67  O2  IDS d 502      24.289  21.481 146.430  0.00  0.00    -0.244 OA
ATOM     68  C3  IDS d 502      26.153  21.373 144.922  0.00  0.00     0.094 C 
ATOM     69  O2S IDS d 502      22.177  22.859 145.591  0.00  0.00    -0.572 OA
ATOM     70  O1S IDS d 502      21.875  20.483 145.958  0.00  0.00    -0.572 OA
ATOM     71  O5  IDS d 502      26.605  24.119 145.373  0.00  0.00    -0.340 OA
ATOM     72  S   IDS d 502      22.537  21.711 146.456  0.00  0.00     0.252 S 
ATOM     73  C1  IDS d 502      25.686  23.404 146.208  0.00  0.00     0.161 C 
ATOM     74  O61 IDS d 502      28.592  24.944 142.936  0.00  0.00    -0.646 OA
ATOM     75  O62 IDS d 502      29.196  23.700 144.639  0.00  0.00    -0.646 OA
ATOM     76  C5  IDS d 502      26.891  23.670 144.034  0.00  0.00     0.152 C 
ATOM     77  O3  IDS d 502      25.602  20.179 144.406  0.00  0.00    -0.390 OA
ATOM     78  C6  IDS d 502      28.333  24.113 143.829  0.00  0.00     0.206 C 
ATOM     79  O3S IDS d 502      22.096  21.988 147.840  0.00  0.00    -0.572 OA
ATOM     80  C4  IDS d 502      26.824  22.147 143.805  0.00  0.00     0.103 C 
ATOM     81  C2  IDS d 502      25.053  22.233 145.492  0.00  0.00     0.134 C 
ATOM     82  H   IDS d 502      26.864  21.125 145.682  0.00  0.00     0.091 H 
ATOM     83  H   IDS d 502      26.265  23.033 147.027  0.00  0.00     0.133 H 
ATOM     84  H   IDS d 502      26.159  24.069 143.363  0.00  0.00     0.104 H 
ATOM     85  H   IDS d 502      24.955  20.393 143.714  0.00  0.00     0.210 HD
ATOM     86  H   IDS d 502      26.196  22.050 142.944  0.00  0.00     0.092 H 
ATOM     87  H   IDS d 502      24.414  22.571 144.703  0.00  0.00     0.097 H 
ENDROOT
TORSDOF 28
ENDMDL
