MODEL 1
REMARK VINA RESULT:      -5.5      0.000      0.000
REMARK  0 active torsions:
REMARK  status: ('A' for Active; 'I' for Inactive)
REMARK       I    between atoms: C5_1  and  C6_46 
REMARK       I    between atoms: O1_2  and  C4_60 
REMARK       I    between atoms: O1_2  and  C1_47 
REMARK       I    between atoms: S_3  and  O4_24 
REMARK       I    between atoms: C7_6  and  C8_11 
REMARK       I    between atoms: C7_6  and  N_48 
REMARK       I    between atoms: O3_7  and  C3_41 
REMARK       I    between atoms: O1_9  and  C3_31 
REMARK       I    between atoms: O1_9  and  C1_19 
REMARK       I    between atoms: C6_10  and  C5_34 
REMARK       I    between atoms: C6_10  and  O6_12 
REMARK       I    between atoms: C3_13  and  O1_16 
REMARK       I    between atoms: C2_14  and  N_20 
REMARK       I    between atoms: C1_15  and  O1_45 
REMARK       I    between atoms: O1_16  and  C1_29 
REMARK       I    between atoms: S_17  and  O4_30 
REMARK       I    between atoms: N_20  and  C7_40 
REMARK       I    between atoms: C4_22  and  O4_30 
REMARK       I    between atoms: O4_24  and  C4_28 
REMARK       I    between atoms: C5_25  and  C6_55 
REMARK       I    between atoms: C2_32  and  O2_39 
REMARK       I    between atoms: C5_33  and  C6_51 
REMARK       I    between atoms: C2_36  and  O2_56 
REMARK       I    between atoms: C8_37  and  C7_40 
REMARK       I    between atoms: C2_43  and  N_48 
REMARK       I    between atoms: C3_50  and  O3_53 
REMARK       I    between atoms: O6_54  and  C6_55 
ROOT
ATOM      1  C5  BDP d1197       6.089   9.156  -2.196  0.00  0.00     0.152 C 
ATOM      2  O1  BDP d1197       9.430   9.490  -0.637  0.00  0.00    -0.348 OA
ATOM      3  C1  BDP d1197       8.101   8.952  -0.786  0.00  0.00     0.160 C 
ATOM      4  O5  BDP d1197       7.489   9.416  -1.996  0.00  0.00    -0.340 OA
ATOM      5  C2  BDP d1197       7.277   9.366   0.434  0.00  0.00     0.110 C 
ATOM      6  O6A BDP d1197       5.148   9.410  -4.361  0.00  0.00    -0.646 OA
ATOM      7  O2  BDP d1197       7.788   8.702   1.598  0.00  0.00    -0.388 OA
ATOM      8  C6  BDP d1197       5.658   9.981  -3.371  0.00  0.00     0.206 C 
ATOM      9  C3  BDP d1197       5.778   9.083   0.301  0.00  0.00     0.092 C 
ATOM     10  O6B BDP d1197       5.818  11.219  -3.299  0.00  0.00    -0.646 OA
ATOM     11  O3  BDP d1197       5.106   9.755   1.374  0.00  0.00    -0.390 OA
ATOM     12  C4  BDP d1197       5.199   9.571  -1.026  0.00  0.00     0.103 C 
ATOM     13  H   BDP d1197       5.982   8.099  -2.323  0.00  0.00     0.104 H 
ATOM     14  H   BDP d1197       8.150   7.885  -0.849  0.00  0.00     0.133 H 
ATOM     15  H   BDP d1197       7.372  10.428   0.518  0.00  0.00     0.094 H 
ATOM     16  H   BDP d1197       7.688   7.743   1.493  0.00  0.00     0.210 HD
ATOM     17  H   BDP d1197       5.636   8.023   0.336  0.00  0.00     0.091 H 
ATOM     18  H   BDP d1197       5.260  10.710   1.306  0.00  0.00     0.210 HD
ATOM     19  H   BDP d1197       5.148  10.640  -0.991  0.00  0.00     0.092 H 
ATOM     20  O1  ASG d1198       3.876   9.029  -1.221  0.00  0.00    -0.348 OA
ATOM     21  O7  ASG d1198       1.442   6.944  -4.780  0.00  0.00    -0.274 OA
ATOM     22  OSB ASG d1198      -2.313   9.459   0.733  0.00  0.00    -0.572 OA
ATOM     23  C3  ASG d1198       0.250   9.902  -1.988  0.00  0.00     0.094 C 
ATOM     24  C2  ASG d1198       1.526   9.051  -1.894  0.00  0.00     0.087 C 
ATOM     25  S   ASG d1198      -1.162  10.170   1.333  0.00  0.00     0.252 S 
ATOM     26  N   ASG d1198       1.692   8.541  -3.251  0.00  0.00    -0.349 N 
ATOM     27  OSA ASG d1198      -1.530  11.587   1.553  0.00  0.00    -0.572 OA
ATOM     28  C4  ASG d1198       0.155  10.860  -0.808  0.00  0.00     0.114 C 
ATOM     29  C5  ASG d1198       1.442  11.677  -0.741  0.00  0.00     0.090 C 
ATOM     30  O4  ASG d1198       0.045  10.071   0.382  0.00  0.00    -0.246 OA
ATOM     31  C8  ASG d1198       0.657   6.438  -2.599  0.00  0.00    -0.003 C 
ATOM     32  C7  ASG d1198       1.289   7.325  -3.633  0.00  0.00     0.214 C 
ATOM     33  C1  ASG d1198       2.785   9.890  -1.590  0.00  0.00     0.154 C 
ATOM     34  OSC ASG d1198      -0.814   9.540   2.627  0.00  0.00    -0.572 OA
ATOM     35  O6  ASG d1198       0.048  13.240   0.415  0.00  0.00    -0.398 OA
ATOM     36  C6  ASG d1198       1.385  12.749   0.340  0.00  0.00     0.043 C 
ATOM     37  O5  ASG d1198       2.545  10.797  -0.509  0.00  0.00    -0.349 OA
ATOM     38  H   ASG d1198       0.321  10.463  -2.896  0.00  0.00     0.091 H 
ATOM     39  H   ASG d1198       1.429   8.320  -1.119  0.00  0.00     0.084 H 
ATOM     40  H   ASG d1198       2.123   9.121  -3.919  0.00  0.00     0.163 HD
ATOM     41  H   ASG d1198      -0.687  11.514  -0.909  0.00  0.00     0.093 H 
ATOM     42  H   ASG d1198       1.564  12.182  -1.677  0.00  0.00     0.090 H 
ATOM     43  H   ASG d1198       0.387   5.504  -3.047  0.00  0.00     0.040 H 
ATOM     44  H   ASG d1198      -0.220   6.912  -2.209  0.00  0.00     0.040 H 
ATOM     45  H   ASG d1198       1.352   6.264  -1.804  0.00  0.00     0.040 H 
ATOM     46  H   ASG d1198       3.028  10.442  -2.473  0.00  0.00     0.132 H 
ATOM     47  H   ASG d1198      -0.008  13.926   1.099  0.00  0.00     0.209 HD
ATOM     48  H   ASG d1198       2.051  13.550   0.090  0.00  0.00     0.078 H 
ATOM     49  H   ASG d1198       1.681  12.338   1.283  0.00  0.00     0.078 H 
ATOM     50  S   ASG d1196      10.640  12.945  -1.542  0.00  0.00     0.252 S 
ATOM     51  OSB ASG d1196      10.909  13.316  -0.135  0.00  0.00    -0.572 OA
ATOM     52  C7  ASG d1196      12.332   7.685   0.769  0.00  0.00     0.214 C 
ATOM     53  C6  ASG d1196      11.499  11.431  -4.697  0.00  0.00     0.043 C 
ATOM     54  C8  ASG d1196      12.823   8.956   1.396  0.00  0.00    -0.003 C 
ATOM     55  O6  ASG d1196      12.704  11.315  -5.463  0.00  0.00    -0.398 OA
ATOM     56  C1  ASG d1196      12.756   8.847  -2.372  0.00  0.00     0.151 C 
ATOM     57  O4  ASG d1196      11.117  11.498  -1.746  0.00  0.00    -0.246 OA
ATOM     58  C4  ASG d1196      10.458  10.522  -2.565  0.00  0.00     0.114 C 
ATOM     59  C3  ASG d1196      10.395   9.283  -1.681  0.00  0.00     0.094 C 
ATOM     60  C5  ASG d1196      11.432  10.271  -3.714  0.00  0.00     0.090 C 
ATOM     61  OSA ASG d1196       9.188  13.065  -1.811  0.00  0.00    -0.572 OA
ATOM     62  OSC ASG d1196      11.418  13.844  -2.429  0.00  0.00    -0.572 OA
ATOM     63  C2  ASG d1196      11.820   9.050  -1.178  0.00  0.00     0.087 C 
ATOM     64  O5  ASG d1196      12.737  10.017  -3.187  0.00  0.00    -0.349 OA
ATOM     65  O1  ASG d1196      14.096   8.651  -1.909  0.00  0.00    -0.369 OA
ATOM     66  N   ASG d1196      11.849   7.776  -0.470  0.00  0.00    -0.349 N 
ATOM     67  O7  ASG d1196      12.370   6.624   1.371  0.00  0.00    -0.274 OA
ATOM     68  H   ASG d1196      11.501  12.358  -4.162  0.00  0.00     0.078 H 
ATOM     69  H   ASG d1196      10.650  11.407  -5.347  0.00  0.00     0.078 H 
ATOM     70  H   ASG d1196      12.702   9.763   0.705  0.00  0.00     0.040 H 
ATOM     71  H   ASG d1196      13.857   8.853   1.648  0.00  0.00     0.040 H 
ATOM     72  H   ASG d1196      12.259   9.157   2.282  0.00  0.00     0.040 H 
ATOM     73  H   ASG d1196      13.469  11.337  -4.866  0.00  0.00     0.209 HD
ATOM     74  H   ASG d1196      12.431   7.994  -2.930  0.00  0.00     0.132 H 
ATOM     75  H   ASG d1196       9.491  10.795  -2.931  0.00  0.00     0.093 H 
ATOM     76  H   ASG d1196      10.066   8.405  -2.198  0.00  0.00     0.091 H 
ATOM     77  H   ASG d1196      11.070   9.420  -4.253  0.00  0.00     0.090 H 
ATOM     78  H   ASG d1196      12.114   9.881  -0.573  0.00  0.00     0.084 H 
ATOM     79  H   ASG d1196      14.381   9.430  -1.405  0.00  0.00     0.212 HD
ATOM     80  H   ASG d1196      11.504   6.968  -0.914  0.00  0.00     0.163 HD
ATOM     81  O3  BDP d1199      -5.312   8.161  -4.038  0.00  0.00    -0.393 OA
ATOM     82  O1  BDP d1199      -0.943   9.103  -2.072  0.00  0.00    -0.348 OA
ATOM     83  O6A BDP d1199      -2.833  13.608  -4.047  0.00  0.00    -0.646 OA
ATOM     84  C4  BDP d1199      -4.467  10.409  -3.875  0.00  0.00    -0.005 C 
ATOM     85  O5  BDP d1199      -2.173  10.778  -3.081  0.00  0.00    -0.343 OA
ATOM     86  C1  BDP d1199      -1.829   9.388  -3.165  0.00  0.00     0.159 C 
ATOM     87  C5  BDP d1199      -3.209  11.268  -3.940  0.00  0.00     0.127 C 
ATOM     88  C2  BDP d1199      -3.064   8.482  -3.151  0.00  0.00     0.107 C 
ATOM     89  C3  BDP d1199      -4.122   8.953  -4.145  0.00  0.00     0.068 C 
ATOM     90  C6  BDP d1199      -3.520  12.687  -3.552  0.00  0.00     0.203 C 
ATOM     91  O2  BDP d1199      -2.671   7.149  -3.487  0.00  0.00    -0.388 OA
ATOM     92  O6B BDP d1199      -4.442  12.900  -2.735  0.00  0.00    -0.646 OA
ATOM     93  H   BDP d1199      -5.969   8.476  -4.677  0.00  0.00     0.210 HD
ATOM     94  H   BDP d1199      -4.904  10.494  -2.901  0.00  0.00     0.041 H 
ATOM     95  H   BDP d1199      -5.160  10.748  -4.616  0.00  0.00     0.041 H 
ATOM     96  H   BDP d1199      -1.345   9.186  -4.098  0.00  0.00     0.133 H 
ATOM     97  H   BDP d1199      -2.861  11.225  -4.951  0.00  0.00     0.100 H 
ATOM     98  H   BDP d1199      -3.489   8.518  -2.170  0.00  0.00     0.094 H 
ATOM     99  H   BDP d1199      -3.726   8.847  -5.134  0.00  0.00     0.087 H 
ATOM    100  H   BDP d1199      -2.289   7.139  -4.378  0.00  0.00     0.210 HD
ENDROOT
TORSDOF 25
ENDMDL
MODEL 2
REMARK VINA RESULT:      -5.4      2.268     12.454
REMARK  0 active torsions:
REMARK  status: ('A' for Active; 'I' for Inactive)
REMARK       I    between atoms: C5_1  and  C6_46 
REMARK       I    between atoms: O1_2  and  C4_60 
REMARK       I    between atoms: O1_2  and  C1_47 
REMARK       I    between atoms: S_3  and  O4_24 
REMARK       I    between atoms: C7_6  and  C8_11 
REMARK       I    between atoms: C7_6  and  N_48 
REMARK       I    between atoms: O3_7  and  C3_41 
REMARK       I    between atoms: O1_9  and  C3_31 
REMARK       I    between atoms: O1_9  and  C1_19 
REMARK       I    between atoms: C6_10  and  C5_34 
REMARK       I    between atoms: C6_10  and  O6_12 
REMARK       I    between atoms: C3_13  and  O1_16 
REMARK       I    between atoms: C2_14  and  N_20 
REMARK       I    between atoms: C1_15  and  O1_45 
REMARK       I    between atoms: O1_16  and  C1_29 
REMARK       I    between atoms: S_17  and  O4_30 
REMARK       I    between atoms: N_20  and  C7_40 
REMARK       I    between atoms: C4_22  and  O4_30 
REMARK       I    between atoms: O4_24  and  C4_28 
REMARK       I    between atoms: C5_25  and  C6_55 
REMARK       I    between atoms: C2_32  and  O2_39 
REMARK       I    between atoms: C5_33  and  C6_51 
REMARK       I    between atoms: C2_36  and  O2_56 
REMARK       I    between atoms: C8_37  and  C7_40 
REMARK       I    between atoms: C2_43  and  N_48 
REMARK       I    between atoms: C3_50  and  O3_53 
REMARK       I    between atoms: O6_54  and  C6_55 
ROOT
ATOM      1  C5  BDP d1197       4.850   9.444  -0.732  0.00  0.00     0.152 C 
ATOM      2  O1  BDP d1197       1.307   9.545  -1.800  0.00  0.00    -0.348 OA
ATOM      3  C1  BDP d1197       2.669   9.073  -1.819  0.00  0.00     0.160 C 
ATOM      4  O5  BDP d1197       3.425   9.633  -0.738  0.00  0.00    -0.340 OA
ATOM      5  C2  BDP d1197       3.287   9.448  -3.167  0.00  0.00     0.110 C 
ATOM      6  O6A BDP d1197       6.080   9.865   1.255  0.00  0.00    -0.646 OA
ATOM      7  O2  BDP d1197       2.647   8.696  -4.207  0.00  0.00    -0.388 OA
ATOM      8  C6  BDP d1197       5.405  10.354   0.322  0.00  0.00     0.206 C 
ATOM      9  C3  BDP d1197       4.801   9.237  -3.240  0.00  0.00     0.092 C 
ATOM     10  O6B BDP d1197       5.174  11.578   0.210  0.00  0.00    -0.646 OA
ATOM     11  O3  BDP d1197       5.277   9.872  -4.435  0.00  0.00    -0.390 OA
ATOM     12  C4  BDP d1197       5.541   9.827  -2.040  0.00  0.00     0.103 C 
ATOM     13  H   BDP d1197       5.028   8.402  -0.568  0.00  0.00     0.104 H 
ATOM     14  H   BDP d1197       2.683   8.011  -1.694  0.00  0.00     0.133 H 
ATOM     15  H   BDP d1197       3.127  10.499  -3.291  0.00  0.00     0.094 H 
ATOM     16  H   BDP d1197       2.809   7.750  -4.068  0.00  0.00     0.210 HD
ATOM     17  H   BDP d1197       4.990   8.183  -3.241  0.00  0.00     0.091 H 
ATOM     18  H   BDP d1197       5.087  10.822  -4.394  0.00  0.00     0.210 HD
ATOM     19  H   BDP d1197       5.532  10.892  -2.138  0.00  0.00     0.092 H 
ATOM     20  O1  ASG d1198       6.904   9.353  -2.013  0.00  0.00    -0.348 OA
ATOM     21  O7  ASG d1198       9.926   7.585   1.254  0.00  0.00    -0.274 OA
ATOM     22  OSB ASG d1198      12.717   9.927  -4.874  0.00  0.00    -0.572 OA
ATOM     23  C3  ASG d1198      10.554  10.421  -1.833  0.00  0.00     0.094 C 
ATOM     24  C2  ASG d1198       9.322   9.513  -1.694  0.00  0.00     0.087 C 
ATOM     25  S   ASG d1198      11.458  10.552  -5.335  0.00  0.00     0.252 S 
ATOM     26  N   ASG d1198       9.379   9.078  -0.302  0.00  0.00    -0.349 N 
ATOM     27  OSA ASG d1198      11.719  11.967  -5.680  0.00  0.00    -0.572 OA
ATOM     28  C4  ASG d1198      10.430  11.311  -3.063  0.00  0.00     0.114 C 
ATOM     29  C5  ASG d1198       9.108  12.068  -2.982  0.00  0.00     0.090 C 
ATOM     30  O4  ASG d1198      10.406  10.459  -4.212  0.00  0.00    -0.246 OA
ATOM     31  C8  ASG d1198      10.414   6.985  -0.989  0.00  0.00    -0.003 C 
ATOM     32  C7  ASG d1198       9.893   7.904   0.079  0.00  0.00     0.214 C 
ATOM     33  C1  ASG d1198       7.992  10.279  -1.854  0.00  0.00     0.154 C 
ATOM     34  OSC ASG d1198      10.958   9.832  -6.529  0.00  0.00    -0.572 OA
ATOM     35  O6  ASG d1198      10.240  13.618  -4.410  0.00  0.00    -0.398 OA
ATOM     36  C6  ASG d1198       8.953  13.076  -4.114  0.00  0.00     0.043 C 
ATOM     37  O5  ASG d1198       8.027  11.130  -3.004  0.00  0.00    -0.349 OA
ATOM     38  H   ASG d1198      10.586  11.031  -0.955  0.00  0.00     0.091 H 
ATOM     39  H   ASG d1198       9.343   8.743  -2.436  0.00  0.00     0.084 H 
ATOM     40  H   ASG d1198       9.020   9.678   0.390  0.00  0.00     0.163 HD
ATOM     41  H   ASG d1198      11.243  12.005  -3.120  0.00  0.00     0.093 H 
ATOM     42  H   ASG d1198       9.096  12.621  -2.066  0.00  0.00     0.090 H 
ATOM     43  H   ASG d1198      10.791   6.092  -0.537  0.00  0.00     0.040 H 
ATOM     44  H   ASG d1198      11.200   7.472  -1.527  0.00  0.00     0.040 H 
ATOM     45  H   ASG d1198       9.621   6.736  -1.663  0.00  0.00     0.040 H 
ATOM     46  H   ASG d1198       7.851  10.871  -0.975  0.00  0.00     0.132 H 
ATOM     47  H   ASG d1198      10.162  14.263  -5.130  0.00  0.00     0.209 HD
ATOM     48  H   ASG d1198       8.292  13.861  -3.812  0.00  0.00     0.078 H 
ATOM     49  H   ASG d1198       8.546  12.598  -4.981  0.00  0.00     0.078 H 
ATOM     50  S   ASG d1196       0.069  12.993  -0.908  0.00  0.00     0.252 S 
ATOM     51  OSB ASG d1196      -0.419  13.270  -2.279  0.00  0.00    -0.572 OA
ATOM     52  C7  ASG d1196      -1.673   7.539  -2.669  0.00  0.00     0.214 C 
ATOM     53  C6  ASG d1196      -0.250  11.633   2.413  0.00  0.00     0.043 C 
ATOM     54  C8  ASG d1196      -2.312   8.749  -3.282  0.00  0.00    -0.003 C 
ATOM     55  O6  ASG d1196      -1.324  11.512   3.352  0.00  0.00    -0.398 OA
ATOM     56  C1  ASG d1196      -1.698   8.866   0.436  0.00  0.00     0.151 C 
ATOM     57  O4  ASG d1196      -0.301  11.542  -0.562  0.00  0.00    -0.246 OA
ATOM     58  C4  ASG d1196       0.517  10.645   0.202  0.00  0.00     0.114 C 
ATOM     59  C3  ASG d1196       0.514   9.359  -0.616  0.00  0.00     0.094 C 
ATOM     60  C5  ASG d1196      -0.267  10.421   1.492  0.00  0.00     0.090 C 
ATOM     61  OSA ASG d1196       1.537  13.190  -0.862  0.00  0.00    -0.572 OA
ATOM     62  OSC ASG d1196      -0.618  13.910   0.034  0.00  0.00    -0.572 OA
ATOM     63  C2  ASG d1196      -0.955   9.037  -0.891  0.00  0.00     0.087 C 
ATOM     64  O5  ASG d1196      -1.620  10.081   1.176  0.00  0.00    -0.349 OA
ATOM     65  O1  ASG d1196      -3.079   8.587   0.184  0.00  0.00    -0.369 OA
ATOM     66  N   ASG d1196      -1.021   7.724  -1.520  0.00  0.00    -0.349 N 
ATOM     67  O7  ASG d1196      -1.744   6.445  -3.203  0.00  0.00    -0.274 OA
ATOM     68  H   ASG d1196      -0.376  12.526   1.836  0.00  0.00     0.078 H 
ATOM     69  H   ASG d1196       0.684  11.683   2.932  0.00  0.00     0.078 H 
ATOM     70  H   ASG d1196      -2.133   9.601  -2.659  0.00  0.00     0.040 H 
ATOM     71  H   ASG d1196      -3.365   8.589  -3.374  0.00  0.00     0.040 H 
ATOM     72  H   ASG d1196      -1.892   8.922  -4.251  0.00  0.00     0.040 H 
ATOM     73  H   ASG d1196      -2.168  11.467   2.874  0.00  0.00     0.209 HD
ATOM     74  H   ASG d1196      -1.253   8.062   0.983  0.00  0.00     0.132 H 
ATOM     75  H   ASG d1196       1.513  10.979   0.407  0.00  0.00     0.093 H 
ATOM     76  H   ASG d1196       0.958   8.528  -0.108  0.00  0.00     0.091 H 
ATOM     77  H   ASG d1196       0.211   9.619   2.016  0.00  0.00     0.090 H 
ATOM     78  H   ASG d1196      -1.374   9.819  -1.490  0.00  0.00     0.084 H 
ATOM     79  H   ASG d1196      -3.472   9.322  -0.312  0.00  0.00     0.212 HD
ATOM     80  H   ASG d1196      -0.576   6.958  -1.090  0.00  0.00     0.163 HD
ATOM     81  O3  BDP d1199      16.433   9.039  -0.532  0.00  0.00    -0.393 OA
ATOM     82  O1  BDP d1199      11.785   9.680  -1.883  0.00  0.00    -0.348 OA
ATOM     83  O6A BDP d1199      13.711  14.369  -0.444  0.00  0.00    -0.646 OA
ATOM     84  C4  BDP d1199      15.462  11.236  -0.687  0.00  0.00    -0.005 C 
ATOM     85  O5  BDP d1199      13.062  11.461  -1.155  0.00  0.00    -0.343 OA
ATOM     86  C1  BDP d1199      12.803  10.065  -0.948  0.00  0.00     0.159 C 
ATOM     87  C5  BDP d1199      14.185  12.044  -0.484  0.00  0.00     0.127 C 
ATOM     88  C2  BDP d1199      14.067   9.213  -1.096  0.00  0.00     0.107 C 
ATOM     89  C3  BDP d1199      15.233   9.786  -0.294  0.00  0.00     0.068 C 
ATOM     90  C6  BDP d1199      14.365  13.449  -0.986  0.00  0.00     0.203 C 
ATOM     91  O2  BDP d1199      13.795   7.886  -0.637  0.00  0.00    -0.388 OA
ATOM     92  O6B BDP d1199      15.148  13.653  -1.939  0.00  0.00    -0.646 OA
ATOM     93  H   BDP d1199      17.159   9.419  -0.014  0.00  0.00     0.210 HD
ATOM     94  H   BDP d1199      15.749  11.282  -1.718  0.00  0.00     0.041 H 
ATOM     95  H   BDP d1199      16.237  11.648  -0.074  0.00  0.00     0.041 H 
ATOM     96  H   BDP d1199      12.470   9.899   0.055  0.00  0.00     0.133 H 
ATOM     97  H   BDP d1199      13.989  12.046   0.569  0.00  0.00     0.100 H 
ATOM     98  H   BDP d1199      14.345   9.209  -2.129  0.00  0.00     0.094 H 
ATOM     99  H   BDP d1199      14.989   9.722   0.746  0.00  0.00     0.087 H 
ATOM    100  H   BDP d1199      13.546   7.913   0.300  0.00  0.00     0.210 HD
ENDROOT
TORSDOF 25
ENDMDL
MODEL 3
REMARK VINA RESULT:      -5.4      2.464     12.500
REMARK  0 active torsions:
REMARK  status: ('A' for Active; 'I' for Inactive)
REMARK       I    between atoms: C5_1  and  C6_46 
REMARK       I    between atoms: O1_2  and  C4_60 
REMARK       I    between atoms: O1_2  and  C1_47 
REMARK       I    between atoms: S_3  and  O4_24 
REMARK       I    between atoms: C7_6  and  C8_11 
REMARK       I    between atoms: C7_6  and  N_48 
REMARK       I    between atoms: O3_7  and  C3_41 
REMARK       I    between atoms: O1_9  and  C3_31 
REMARK       I    between atoms: O1_9  and  C1_19 
REMARK       I    between atoms: C6_10  and  C5_34 
REMARK       I    between atoms: C6_10  and  O6_12 
REMARK       I    between atoms: C3_13  and  O1_16 
REMARK       I    between atoms: C2_14  and  N_20 
REMARK       I    between atoms: C1_15  and  O1_45 
REMARK       I    between atoms: O1_16  and  C1_29 
REMARK       I    between atoms: S_17  and  O4_30 
REMARK       I    between atoms: N_20  and  C7_40 
REMARK       I    between atoms: C4_22  and  O4_30 
REMARK       I    between atoms: O4_24  and  C4_28 
REMARK       I    between atoms: C5_25  and  C6_55 
REMARK       I    between atoms: C2_32  and  O2_39 
REMARK       I    between atoms: C5_33  and  C6_51 
REMARK       I    between atoms: C2_36  and  O2_56 
REMARK       I    between atoms: C8_37  and  C7_40 
REMARK       I    between atoms: C2_43  and  N_48 
REMARK       I    between atoms: C3_50  and  O3_53 
REMARK       I    between atoms: O6_54  and  C6_55 
ROOT
ATOM      1  C5  BDP d1197       5.382   9.108   0.087  0.00  0.00     0.152 C 
ATOM      2  O1  BDP d1197       1.746   9.357  -0.561  0.00  0.00    -0.348 OA
ATOM      3  C1  BDP d1197       3.085   8.867  -0.773  0.00  0.00     0.160 C 
ATOM      4  O5  BDP d1197       3.971   9.320   0.258  0.00  0.00    -0.340 OA
ATOM      5  C2  BDP d1197       3.558   9.345  -2.147  0.00  0.00     0.110 C 
ATOM      6  O6A BDP d1197       6.836   9.338   1.950  0.00  0.00    -0.646 OA
ATOM      7  O2  BDP d1197       2.787   8.694  -3.166  0.00  0.00    -0.388 OA
ATOM      8  C6  BDP d1197       6.074   9.916   1.143  0.00  0.00     0.206 C 
ATOM      9  C3  BDP d1197       5.049   9.115  -2.408  0.00  0.00     0.092 C 
ATOM     10  O6B BDP d1197       5.863  11.148   1.160  0.00  0.00    -0.646 OA
ATOM     11  O3  BDP d1197       5.405   9.842  -3.592  0.00  0.00    -0.390 OA
ATOM     12  C4  BDP d1197       5.932   9.589  -1.255  0.00  0.00     0.103 C 
ATOM     13  H   BDP d1197       5.550   8.053   0.143  0.00  0.00     0.104 H 
ATOM     14  H   BDP d1197       3.085   7.797  -0.739  0.00  0.00     0.133 H 
ATOM     15  H   BDP d1197       3.413  10.405  -2.165  0.00  0.00     0.094 H 
ATOM     16  H   BDP d1197       2.939   7.737  -3.126  0.00  0.00     0.210 HD
ATOM     17  H   BDP d1197       5.209   8.063  -2.517  0.00  0.00     0.091 H 
ATOM     18  H   BDP d1197       5.245  10.788  -3.452  0.00  0.00     0.210 HD
ATOM     19  H   BDP d1197       5.940  10.659  -1.262  0.00  0.00     0.092 H 
ATOM     20  O1  ASG d1198       7.277   9.092  -1.422  0.00  0.00    -0.348 OA
ATOM     21  O7  ASG d1198      10.598   7.004   1.326  0.00  0.00    -0.274 OA
ATOM     22  OSB ASG d1198      12.748   9.813  -4.864  0.00  0.00    -0.572 OA
ATOM     23  C3  ASG d1198      10.951  10.082  -1.568  0.00  0.00     0.094 C 
ATOM     24  C2  ASG d1198       9.719   9.185  -1.366  0.00  0.00     0.087 C 
ATOM     25  S   ASG d1198      11.462  10.495  -5.126  0.00  0.00     0.252 S 
ATOM     26  N   ASG d1198       9.919   8.632  -0.030  0.00  0.00    -0.349 N 
ATOM     27  OSA ASG d1198      11.719  11.930  -5.380  0.00  0.00    -0.572 OA
ATOM     28  C4  ASG d1198      10.714  11.075  -2.698  0.00  0.00     0.114 C 
ATOM     29  C5  ASG d1198       9.429  11.844  -2.406  0.00  0.00     0.090 C 
ATOM     30  O4  ASG d1198      10.540  10.324  -3.904  0.00  0.00    -0.246 OA
ATOM     31  C8  ASG d1198      10.817   6.589  -1.000  0.00  0.00    -0.003 C 
ATOM     32  C7  ASG d1198      10.442   7.422   0.192  0.00  0.00     0.214 C 
ATOM     33  C1  ASG d1198       8.400   9.984  -1.310  0.00  0.00     0.154 C 
ATOM     34  OSC ASG d1198      10.815   9.888  -6.311  0.00  0.00    -0.572 OA
ATOM     35  O6  ASG d1198      10.435  13.490  -3.820  0.00  0.00    -0.398 OA
ATOM     36  C6  ASG d1198       9.175  12.947  -3.426  0.00  0.00     0.043 C 
ATOM     37  O5  ASG d1198       8.329  10.929  -2.383  0.00  0.00    -0.349 OA
ATOM     38  H   ASG d1198      11.097  10.614  -0.651  0.00  0.00     0.091 H 
ATOM     39  H   ASG d1198       9.637   8.481  -2.167  0.00  0.00     0.084 H 
ATOM     40  H   ASG d1198       9.656   9.177   0.746  0.00  0.00     0.163 HD
ATOM     41  H   ASG d1198      11.533  11.758  -2.789  0.00  0.00     0.093 H 
ATOM     42  H   ASG d1198       9.533  12.317  -1.452  0.00  0.00     0.090 H 
ATOM     43  H   ASG d1198      11.219   5.655  -0.669  0.00  0.00     0.040 H 
ATOM     44  H   ASG d1198      11.550   7.107  -1.582  0.00  0.00     0.040 H 
ATOM     45  H   ASG d1198       9.948   6.411  -1.598  0.00  0.00     0.040 H 
ATOM     46  H   ASG d1198       8.373  10.502  -0.375  0.00  0.00     0.132 H 
ATOM     47  H   ASG d1198      10.294  14.196  -4.470  0.00  0.00     0.209 HD
ATOM     48  H   ASG d1198       8.572  13.714  -2.987  0.00  0.00     0.078 H 
ATOM     49  H   ASG d1198       8.662  12.551  -4.278  0.00  0.00     0.078 H 
ATOM     50  S   ASG d1196       0.704  12.736   0.746  0.00  0.00     0.252 S 
ATOM     51  OSB ASG d1196       0.074  13.137  -0.532  0.00  0.00    -0.572 OA
ATOM     52  C7  ASG d1196      -1.364   7.482  -1.250  0.00  0.00     0.214 C 
ATOM     53  C6  ASG d1196       0.722  11.104   3.959  0.00  0.00     0.043 C 
ATOM     54  C8  ASG d1196      -2.035   8.750  -1.686  0.00  0.00    -0.003 C 
ATOM     55  O6  ASG d1196      -0.244  10.921   5.000  0.00  0.00    -0.398 OA
ATOM     56  C1  ASG d1196      -1.008   8.539   1.936  0.00  0.00     0.151 C 
ATOM     57  O4  ASG d1196       0.338  11.267   1.011  0.00  0.00    -0.246 OA
ATOM     58  C4  ASG d1196       1.212  10.295   1.601  0.00  0.00     0.114 C 
ATOM     59  C3  ASG d1196       1.085   9.084   0.685  0.00  0.00     0.094 C 
ATOM     60  C5  ASG d1196       0.571   9.975   2.949  0.00  0.00     0.090 C 
ATOM     61  OSA ASG d1196       2.172  12.905   0.643  0.00  0.00    -0.572 OA
ATOM     62  OSC ASG d1196       0.150  13.581   1.833  0.00  0.00    -0.572 OA
ATOM     63  C2  ASG d1196      -0.413   8.811   0.552  0.00  0.00     0.087 C 
ATOM     64  O5  ASG d1196      -0.817   9.686   2.761  0.00  0.00    -0.349 OA
ATOM     65  O1  ASG d1196      -2.415   8.305   1.820  0.00  0.00    -0.369 OA
ATOM     66  N   ASG d1196      -0.583   7.557  -0.172  0.00  0.00    -0.349 N 
ATOM     67  O7  ASG d1196      -1.521   6.438  -1.862  0.00  0.00    -0.274 OA
ATOM     68  H   ASG d1196       0.555  12.045   3.476  0.00  0.00     0.078 H 
ATOM     69  H   ASG d1196       1.709  11.095   4.371  0.00  0.00     0.078 H 
ATOM     70  H   ASG d1196      -1.766   9.542  -1.019  0.00  0.00     0.040 H 
ATOM     71  H   ASG d1196      -3.096   8.615  -1.671  0.00  0.00     0.040 H 
ATOM     72  H   ASG d1196      -1.722   8.997  -2.678  0.00  0.00     0.040 H 
ATOM     73  H   ASG d1196      -1.136  10.931   4.618  0.00  0.00     0.209 HD
ATOM     74  H   ASG d1196      -0.526   7.684   2.361  0.00  0.00     0.132 H 
ATOM     75  H   ASG d1196       2.232  10.595   1.719  0.00  0.00     0.093 H 
ATOM     76  H   ASG d1196       1.561   8.206   1.069  0.00  0.00     0.091 H 
ATOM     77  H   ASG d1196       1.083   9.125   3.347  0.00  0.00     0.090 H 
ATOM     78  H   ASG d1196      -0.876   9.647   0.072  0.00  0.00     0.084 H 
ATOM     79  H   ASG d1196      -2.842   9.086   1.434  0.00  0.00     0.212 HD
ATOM     80  H   ASG d1196      -0.113   6.750   0.141  0.00  0.00     0.163 HD
ATOM     81  O3  BDP d1199      16.901   8.498  -1.059  0.00  0.00    -0.393 OA
ATOM     82  O1  BDP d1199      12.149   9.328  -1.818  0.00  0.00    -0.348 OA
ATOM     83  O6A BDP d1199      14.344  13.845  -0.224  0.00  0.00    -0.646 OA
ATOM     84  C4  BDP d1199      15.975  10.716  -0.921  0.00  0.00    -0.005 C 
ATOM     85  O5  BDP d1199      13.545  11.019  -1.094  0.00  0.00    -0.343 OA
ATOM     86  C1  BDP d1199      13.275   9.615  -0.976  0.00  0.00     0.159 C 
ATOM     87  C5  BDP d1199      14.750  11.525  -0.508  0.00  0.00     0.127 C 
ATOM     88  C2  BDP d1199      14.492   8.758  -1.335  0.00  0.00     0.107 C 
ATOM     89  C3  BDP d1199      15.755   9.241  -0.625  0.00  0.00     0.068 C 
ATOM     90  C6  BDP d1199      14.910  12.964  -0.910  0.00  0.00     0.203 C 
ATOM     91  O2  BDP d1199      14.238   7.402  -0.960  0.00  0.00    -0.388 OA
ATOM     92  O6B BDP d1199      15.587  13.235  -1.925  0.00  0.00    -0.646 OA
ATOM     93  H   BDP d1199      17.689   8.821  -0.597  0.00  0.00     0.210 HD
ATOM     94  H   BDP d1199      16.147  10.845  -1.970  0.00  0.00     0.041 H 
ATOM     95  H   BDP d1199      16.824  11.061  -0.368  0.00  0.00     0.041 H 
ATOM     96  H   BDP d1199      13.051   9.370   0.042  0.00  0.00     0.133 H 
ATOM     97  H   BDP d1199      14.673  11.440   0.556  0.00  0.00     0.100 H 
ATOM     98  H   BDP d1199      14.653   8.838  -2.390  0.00  0.00     0.094 H 
ATOM     99  H   BDP d1199      15.626   9.093   0.427  0.00  0.00     0.087 H 
ATOM    100  H   BDP d1199      14.096   7.353  -0.002  0.00  0.00     0.210 HD
ENDROOT
TORSDOF 25
ENDMDL
MODEL 4
REMARK VINA RESULT:      -5.4      3.571     13.024
REMARK  0 active torsions:
REMARK  status: ('A' for Active; 'I' for Inactive)
REMARK       I    between atoms: C5_1  and  C6_46 
REMARK       I    between atoms: O1_2  and  C4_60 
REMARK       I    between atoms: O1_2  and  C1_47 
REMARK       I    between atoms: S_3  and  O4_24 
REMARK       I    between atoms: C7_6  and  C8_11 
REMARK       I    between atoms: C7_6  and  N_48 
REMARK       I    between atoms: O3_7  and  C3_41 
REMARK       I    between atoms: O1_9  and  C3_31 
REMARK       I    between atoms: O1_9  and  C1_19 
REMARK       I    between atoms: C6_10  and  C5_34 
REMARK       I    between atoms: C6_10  and  O6_12 
REMARK       I    between atoms: C3_13  and  O1_16 
REMARK       I    between atoms: C2_14  and  N_20 
REMARK       I    between atoms: C1_15  and  O1_45 
REMARK       I    between atoms: O1_16  and  C1_29 
REMARK       I    between atoms: S_17  and  O4_30 
REMARK       I    between atoms: N_20  and  C7_40 
REMARK       I    between atoms: C4_22  and  O4_30 
REMARK       I    between atoms: O4_24  and  C4_28 
REMARK       I    between atoms: C5_25  and  C6_55 
REMARK       I    between atoms: C2_32  and  O2_39 
REMARK       I    between atoms: C5_33  and  C6_51 
REMARK       I    between atoms: C2_36  and  O2_56 
REMARK       I    between atoms: C8_37  and  C7_40 
REMARK       I    between atoms: C2_43  and  N_48 
REMARK       I    between atoms: C3_50  and  O3_53 
REMARK       I    between atoms: O6_54  and  C6_55 
ROOT
ATOM      1  C5  BDP d1197       6.949  10.957   1.235  0.00  0.00     0.152 C 
ATOM      2  O1  BDP d1197       3.854   8.930   1.320  0.00  0.00    -0.348 OA
ATOM      3  C1  BDP d1197       5.204   9.277   1.687  0.00  0.00     0.160 C 
ATOM      4  O5  BDP d1197       5.572  10.555   1.152  0.00  0.00    -0.340 OA
ATOM      5  C2  BDP d1197       6.138   8.182   1.172  0.00  0.00     0.110 C 
ATOM      6  O6A BDP d1197       7.529  13.230   0.869  0.00  0.00    -0.646 OA
ATOM      7  O2  BDP d1197       5.886   6.967   1.892  0.00  0.00    -0.388 OA
ATOM      8  C6  BDP d1197       7.101  12.168   0.365  0.00  0.00     0.206 C 
ATOM      9  C3  BDP d1197       7.624   8.533   1.265  0.00  0.00     0.092 C 
ATOM     10  O6B BDP d1197       6.799  12.054  -0.843  0.00  0.00    -0.646 OA
ATOM     11  O3  BDP d1197       8.356   7.556   0.512  0.00  0.00    -0.390 OA
ATOM     12  C4  BDP d1197       7.941   9.921   0.709  0.00  0.00     0.103 C 
ATOM     13  H   BDP d1197       7.168  11.116   2.270  0.00  0.00     0.104 H 
ATOM     14  H   BDP d1197       5.279   9.350   2.752  0.00  0.00     0.133 H 
ATOM     15  H   BDP d1197       5.924   8.067   0.129  0.00  0.00     0.094 H 
ATOM     16  H   BDP d1197       6.089   7.101   2.831  0.00  0.00     0.210 HD
ATOM     17  H   BDP d1197       7.901   8.536   2.299  0.00  0.00     0.091 H 
ATOM     18  H   BDP d1197       8.076   7.586  -0.416  0.00  0.00     0.210 HD
ATOM     19  H   BDP d1197       7.863   9.876  -0.357  0.00  0.00     0.092 H 
ATOM     20  O1  ASG d1198       9.279  10.313   1.082  0.00  0.00    -0.348 OA
ATOM     21  O7  ASG d1198      11.413  14.218   2.851  0.00  0.00    -0.274 OA
ATOM     22  OSB ASG d1198      15.583   9.261  -0.125  0.00  0.00    -0.572 OA
ATOM     23  C3  ASG d1198      12.619  11.578  -0.238  0.00  0.00     0.094 C 
ATOM     24  C2  ASG d1198      11.486  11.316   0.766  0.00  0.00     0.087 C 
ATOM     25  S   ASG d1198      14.452   8.491  -0.687  0.00  0.00     0.252 S 
ATOM     26  N   ASG d1198      11.189  12.644   1.295  0.00  0.00    -0.349 N 
ATOM     27  OSA ASG d1198      14.668   8.302  -2.139  0.00  0.00    -0.572 OA
ATOM     28  C4  ASG d1198      12.764  10.408  -1.203  0.00  0.00     0.114 C 
ATOM     29  C5  ASG d1198      11.408  10.144  -1.852  0.00  0.00     0.090 C 
ATOM     30  O4  ASG d1198      13.141   9.260  -0.436  0.00  0.00    -0.246 OA
ATOM     31  C8  ASG d1198      12.562  12.182   3.251  0.00  0.00    -0.003 C 
ATOM     32  C7  ASG d1198      11.682  13.099   2.452  0.00  0.00     0.214 C 
ATOM     33  C1  ASG d1198      10.189  10.820   0.091  0.00  0.00     0.154 C 
ATOM     34  OSC ASG d1198      14.375   7.171  -0.020  0.00  0.00    -0.572 OA
ATOM     35  O6  ASG d1198      12.749   9.175  -3.579  0.00  0.00    -0.398 OA
ATOM     36  C6  ASG d1198      11.486   9.065  -2.924  0.00  0.00     0.043 C 
ATOM     37  O5  ASG d1198      10.468   9.770  -0.840  0.00  0.00    -0.349 OA
ATOM     38  H   ASG d1198      12.348  12.457  -0.784  0.00  0.00     0.091 H 
ATOM     39  H   ASG d1198      11.784  10.575   1.478  0.00  0.00     0.084 H 
ATOM     40  H   ASG d1198      10.598  13.233   0.775  0.00  0.00     0.163 HD
ATOM     41  H   ASG d1198      13.493  10.618  -1.957  0.00  0.00     0.093 H 
ATOM     42  H   ASG d1198      11.090  11.044  -2.335  0.00  0.00     0.090 H 
ATOM     43  H   ASG d1198      12.878  12.679   4.144  0.00  0.00     0.040 H 
ATOM     44  H   ASG d1198      13.420  11.914   2.669  0.00  0.00     0.040 H 
ATOM     45  H   ASG d1198      12.016  11.298   3.509  0.00  0.00     0.040 H 
ATOM     46  H   ASG d1198       9.754  11.650  -0.424  0.00  0.00     0.132 H 
ATOM     47  H   ASG d1198      12.818   8.495  -4.267  0.00  0.00     0.209 HD
ATOM     48  H   ASG d1198      10.698   9.203  -3.634  0.00  0.00     0.078 H 
ATOM     49  H   ASG d1198      11.384   8.096  -2.481  0.00  0.00     0.078 H 
ATOM     50  S   ASG d1196       2.106   9.595  -1.953  0.00  0.00     0.252 S 
ATOM     51  OSB ASG d1196       1.999   8.157  -2.291  0.00  0.00    -0.572 OA
ATOM     52  C7  ASG d1196       1.432   7.151   3.473  0.00  0.00     0.214 C 
ATOM     53  C6  ASG d1196       0.994  12.618  -0.339  0.00  0.00     0.043 C 
ATOM     54  C8  ASG d1196       0.884   6.440   2.273  0.00  0.00    -0.003 C 
ATOM     55  O6  ASG d1196      -0.285  13.204  -0.071  0.00  0.00    -0.398 OA
ATOM     56  C1  ASG d1196       0.418  10.180   2.379  0.00  0.00     0.151 C 
ATOM     57  O4  ASG d1196       1.788   9.751  -0.458  0.00  0.00    -0.246 OA
ATOM     58  C4  ASG d1196       2.437  10.673   0.429  0.00  0.00     0.114 C 
ATOM     59  C3  ASG d1196       2.782   9.827   1.649  0.00  0.00     0.094 C 
ATOM     60  C5  ASG d1196       1.346  11.674   0.802  0.00  0.00     0.090 C 
ATOM     61  OSA ASG d1196       3.477  10.067  -2.255  0.00  0.00    -0.572 OA
ATOM     62  OSC ASG d1196       1.102  10.345  -2.747  0.00  0.00    -0.572 OA
ATOM     63  C2  ASG d1196       1.484   9.129   2.058  0.00  0.00     0.087 C 
ATOM     64  O5  ASG d1196       0.173  10.969   1.217  0.00  0.00    -0.349 OA
ATOM     65  O1  ASG d1196      -0.806   9.532   2.741  0.00  0.00    -0.369 OA
ATOM     66  N   ASG d1196       1.717   8.445   3.324  0.00  0.00    -0.349 N 
ATOM     67  O7  ASG d1196       1.615   6.567   4.529  0.00  0.00    -0.274 OA
ATOM     68  H   ASG d1196       0.954  12.073  -1.259  0.00  0.00     0.078 H 
ATOM     69  H   ASG d1196       1.737  13.384  -0.420  0.00  0.00     0.078 H 
ATOM     70  H   ASG d1196       0.802   7.128   1.458  0.00  0.00     0.040 H 
ATOM     71  H   ASG d1196      -0.082   6.043   2.504  0.00  0.00     0.040 H 
ATOM     72  H   ASG d1196       1.541   5.640   2.001  0.00  0.00     0.040 H 
ATOM     73  H   ASG d1196      -0.952  12.504   0.002  0.00  0.00     0.209 HD
ATOM     74  H   ASG d1196       0.763  10.792   3.185  0.00  0.00     0.132 H 
ATOM     75  H   ASG d1196       3.300  11.169   0.037  0.00  0.00     0.093 H 
ATOM     76  H   ASG d1196       3.139  10.401   2.479  0.00  0.00     0.091 H 
ATOM     77  H   ASG d1196       1.730  12.273   1.602  0.00  0.00     0.090 H 
ATOM     78  H   ASG d1196       1.180   8.474   1.269  0.00  0.00     0.084 H 
ATOM     79  H   ASG d1196      -1.110   8.979   2.003  0.00  0.00     0.212 HD
ATOM     80  H   ASG d1196       2.092   8.948   4.084  0.00  0.00     0.163 HD
ATOM     81  O3  BDP d1199      17.998  14.435   0.795  0.00  0.00    -0.393 OA
ATOM     82  O1  BDP d1199      13.877  11.846   0.404  0.00  0.00    -0.348 OA
ATOM     83  O6A BDP d1199      14.886  13.997  -4.298  0.00  0.00    -0.646 OA
ATOM     84  C4  BDP d1199      16.913  14.114  -1.330  0.00  0.00    -0.005 C 
ATOM     85  O5  BDP d1199      14.730  12.993  -1.409  0.00  0.00    -0.343 OA
ATOM     86  C1  BDP d1199      14.553  13.050   0.013  0.00  0.00     0.159 C 
ATOM     87  C5  BDP d1199      15.562  13.984  -2.024  0.00  0.00     0.127 C 
ATOM     88  C2  BDP d1199      15.880  13.229   0.756  0.00  0.00     0.107 C 
ATOM     89  C3  BDP d1199      16.717  14.357   0.158  0.00  0.00     0.068 C 
ATOM     90  C6  BDP d1199      15.747  13.622  -3.471  0.00  0.00     0.203 C 
ATOM     91  O2  BDP d1199      15.612  13.526   2.129  0.00  0.00    -0.388 OA
ATOM     92  O6B BDP d1199      16.744  12.942  -3.800  0.00  0.00    -0.646 OA
ATOM     93  H   BDP d1199      18.512  15.156   0.400  0.00  0.00     0.210 HD
ATOM     94  H   BDP d1199      17.472  13.212  -1.471  0.00  0.00     0.041 H 
ATOM     95  H   BDP d1199      17.444  14.942  -1.752  0.00  0.00     0.041 H 
ATOM     96  H   BDP d1199      13.968  13.907   0.275  0.00  0.00     0.133 H 
ATOM     97  H   BDP d1199      15.079  14.935  -1.936  0.00  0.00     0.100 H 
ATOM     98  H   BDP d1199      16.435  12.319   0.665  0.00  0.00     0.094 H 
ATOM     99  H   BDP d1199      16.198  15.279   0.315  0.00  0.00     0.087 H 
ATOM    100  H   BDP d1199      15.110  14.354   2.189  0.00  0.00     0.210 HD
ENDROOT
TORSDOF 25
ENDMDL
MODEL 5
REMARK VINA RESULT:      -5.3      2.833     12.849
REMARK  0 active torsions:
REMARK  status: ('A' for Active; 'I' for Inactive)
REMARK       I    between atoms: C5_1  and  C6_46 
REMARK       I    between atoms: O1_2  and  C4_60 
REMARK       I    between atoms: O1_2  and  C1_47 
REMARK       I    between atoms: S_3  and  O4_24 
REMARK       I    between atoms: C7_6  and  C8_11 
REMARK       I    between atoms: C7_6  and  N_48 
REMARK       I    between atoms: O3_7  and  C3_41 
REMARK       I    between atoms: O1_9  and  C3_31 
REMARK       I    between atoms: O1_9  and  C1_19 
REMARK       I    between atoms: C6_10  and  C5_34 
REMARK       I    between atoms: C6_10  and  O6_12 
REMARK       I    between atoms: C3_13  and  O1_16 
REMARK       I    between atoms: C2_14  and  N_20 
REMARK       I    between atoms: C1_15  and  O1_45 
REMARK       I    between atoms: O1_16  and  C1_29 
REMARK       I    between atoms: S_17  and  O4_30 
REMARK       I    between atoms: N_20  and  C7_40 
REMARK       I    between atoms: C4_22  and  O4_30 
REMARK       I    between atoms: O4_24  and  C4_28 
REMARK       I    between atoms: C5_25  and  C6_55 
REMARK       I    between atoms: C2_32  and  O2_39 
REMARK       I    between atoms: C5_33  and  C6_51 
REMARK       I    between atoms: C2_36  and  O2_56 
REMARK       I    between atoms: C8_37  and  C7_40 
REMARK       I    between atoms: C2_43  and  N_48 
REMARK       I    between atoms: C3_50  and  O3_53 
REMARK       I    between atoms: O6_54  and  C6_55 
ROOT
ATOM      1  C5  BDP d1197       6.473   8.726   0.130  0.00  0.00     0.152 C 
ATOM      2  O1  BDP d1197       2.828   9.265  -0.223  0.00  0.00    -0.348 OA
ATOM      3  C1  BDP d1197       4.176   9.065  -0.695  0.00  0.00     0.160 C 
ATOM      4  O5  BDP d1197       5.059   8.742   0.387  0.00  0.00    -0.340 OA
ATOM      5  C2  BDP d1197       4.629  10.341  -1.406  0.00  0.00     0.110 C 
ATOM      6  O6A BDP d1197       7.935   7.698   1.693  0.00  0.00    -0.646 OA
ATOM      7  O2  BDP d1197       3.865  10.511  -2.607  0.00  0.00    -0.388 OA
ATOM      8  C6  BDP d1197       7.155   8.648   1.463  0.00  0.00     0.206 C 
ATOM      9  C3  BDP d1197       6.122  10.373  -1.740  0.00  0.00     0.092 C 
ATOM     10  O6B BDP d1197       6.919   9.558   2.288  0.00  0.00    -0.646 OA
ATOM     11  O3  BDP d1197       6.454  11.708  -2.146  0.00  0.00    -0.390 OA
ATOM     12  C4  BDP d1197       7.004   9.984  -0.554  0.00  0.00     0.103 C 
ATOM     13  H   BDP d1197       6.664   7.900  -0.523  0.00  0.00     0.104 H 
ATOM     14  H   BDP d1197       4.199   8.240  -1.376  0.00  0.00     0.133 H 
ATOM     15  H   BDP d1197       4.461  11.145  -0.720  0.00  0.00     0.094 H 
ATOM     16  H   BDP d1197       4.037   9.769  -3.208  0.00  0.00     0.210 HD
ATOM     17  H   BDP d1197       6.304   9.658  -2.516  0.00  0.00     0.091 H 
ATOM     18  H   BDP d1197       6.275  12.322  -1.417  0.00  0.00     0.210 HD
ATOM     19  H   BDP d1197       6.989  10.793   0.147  0.00  0.00     0.092 H 
ATOM     20  O1  ASG d1198       8.358   9.750  -0.996  0.00  0.00    -0.348 OA
ATOM     21  O7  ASG d1198      11.742   6.438  -0.285  0.00  0.00    -0.274 OA
ATOM     22  OSB ASG d1198      13.787  12.679  -3.056  0.00  0.00    -0.572 OA
ATOM     23  C3  ASG d1198      12.008  10.666  -0.420  0.00  0.00     0.094 C 
ATOM     24  C2  ASG d1198      10.797   9.834  -0.872  0.00  0.00     0.087 C 
ATOM     25  S   ASG d1198      12.484  13.338  -2.813  0.00  0.00     0.252 S 
ATOM     26  N   ASG d1198      11.019   8.541  -0.233  0.00  0.00    -0.349 N 
ATOM     27  OSA ASG d1198      12.709  14.588  -2.054  0.00  0.00    -0.572 OA
ATOM     28  C4  ASG d1198      11.741  12.153  -0.614  0.00  0.00     0.114 C 
ATOM     29  C5  ASG d1198      10.442  12.510   0.102  0.00  0.00     0.090 C 
ATOM     30  O4  ASG d1198      11.575  12.383  -2.017  0.00  0.00    -0.246 OA
ATOM     31  C8  ASG d1198      11.953   7.667  -2.303  0.00  0.00    -0.003 C 
ATOM     32  C7  ASG d1198      11.570   7.497  -0.861  0.00  0.00     0.214 C 
ATOM     33  C1  ASG d1198       9.461  10.369  -0.313  0.00  0.00     0.154 C 
ATOM     34  OSC ASG d1198      11.841  13.652  -4.110  0.00  0.00    -0.572 OA
ATOM     35  O6  ASG d1198      11.403  14.701   0.137  0.00  0.00    -0.398 OA
ATOM     36  C6  ASG d1198      10.158  14.006   0.063  0.00  0.00     0.043 C 
ATOM     37  O5  ASG d1198       9.363  11.785  -0.495  0.00  0.00    -0.349 OA
ATOM     38  H   ASG d1198      12.149  10.463   0.621  0.00  0.00     0.091 H 
ATOM     39  H   ASG d1198      10.725   9.833  -1.939  0.00  0.00     0.084 H 
ATOM     40  H   ASG d1198      10.749   8.431   0.708  0.00  0.00     0.163 HD
ATOM     41  H   ASG d1198      12.545  12.743  -0.224  0.00  0.00     0.093 H 
ATOM     42  H   ASG d1198      10.544  12.237   1.132  0.00  0.00     0.090 H 
ATOM     43  H   ASG d1198      12.378   6.756  -2.668  0.00  0.00     0.040 H 
ATOM     44  H   ASG d1198      12.671   8.456  -2.391  0.00  0.00     0.040 H 
ATOM     45  H   ASG d1198      11.084   7.910  -2.877  0.00  0.00     0.040 H 
ATOM     46  H   ASG d1198       9.430  10.139   0.730  0.00  0.00     0.132 H 
ATOM     47  H   ASG d1198      11.242  15.657   0.114  0.00  0.00     0.209 HD
ATOM     48  H   ASG d1198       9.542  14.279   0.894  0.00  0.00     0.078 H 
ATOM     49  H   ASG d1198       9.647  14.261  -0.843  0.00  0.00     0.078 H 
ATOM     50  S   ASG d1196       1.724  10.915   2.982  0.00  0.00     0.252 S 
ATOM     51  OSB ASG d1196       1.076  12.047   2.281  0.00  0.00    -0.572 OA
ATOM     52  C7  ASG d1196      -0.245   8.248  -2.007  0.00  0.00     0.214 C 
ATOM     53  C6  ASG d1196       1.800   7.568   4.315  0.00  0.00     0.043 C 
ATOM     54  C8  ASG d1196      -0.947   9.473  -1.501  0.00  0.00    -0.003 C 
ATOM     55  O6  ASG d1196       0.846   6.722   4.967  0.00  0.00    -0.398 OA
ATOM     56  C1  ASG d1196       0.111   6.944   1.087  0.00  0.00     0.151 C 
ATOM     57  O4  ASG d1196       1.391   9.630   2.207  0.00  0.00    -0.246 OA
ATOM     58  C4  ASG d1196       2.290   8.529   2.015  0.00  0.00     0.114 C 
ATOM     59  C3  ASG d1196       2.183   8.223   0.526  0.00  0.00     0.094 C 
ATOM     60  C5  ASG d1196       1.666   7.385   2.810  0.00  0.00     0.090 C 
ATOM     61  OSA ASG d1196       3.187  11.141   3.028  0.00  0.00    -0.572 OA
ATOM     62  OSC ASG d1196       1.160  10.819   4.351  0.00  0.00    -0.572 OA
ATOM     63  C2  ASG d1196       0.689   8.074   0.233  0.00  0.00     0.087 C 
ATOM     64  O5  ASG d1196       0.283   7.263   2.466  0.00  0.00    -0.349 OA
ATOM     65  O1  ASG d1196      -1.292   6.815   0.834  0.00  0.00    -0.369 OA
ATOM     66  N   ASG d1196       0.541   7.608  -1.141  0.00  0.00    -0.349 N 
ATOM     67  O7  ASG d1196      -0.385   7.865  -3.156  0.00  0.00    -0.274 OA
ATOM     68  H   ASG d1196       1.610   8.589   4.572  0.00  0.00     0.078 H 
ATOM     69  H   ASG d1196       2.790   7.309   4.627  0.00  0.00     0.078 H 
ATOM     70  H   ASG d1196      -0.690   9.632  -0.475  0.00  0.00     0.040 H 
ATOM     71  H   ASG d1196      -2.004   9.340  -1.588  0.00  0.00     0.040 H 
ATOM     72  H   ASG d1196      -0.646  10.321  -2.080  0.00  0.00     0.040 H 
ATOM     73  H   ASG d1196      -0.049   6.963   4.679  0.00  0.00     0.209 HD
ATOM     74  H   ASG d1196       0.614   6.031   0.846  0.00  0.00     0.132 H 
ATOM     75  H   ASG d1196       3.305   8.697   2.310  0.00  0.00     0.093 H 
ATOM     76  H   ASG d1196       2.680   7.320   0.238  0.00  0.00     0.091 H 
ATOM     77  H   ASG d1196       2.199   6.494   2.551  0.00  0.00     0.090 H 
ATOM     78  H   ASG d1196       0.205   9.010   0.421  0.00  0.00     0.084 H 
ATOM     79  H   ASG d1196      -1.738   7.647   1.056  0.00  0.00     0.212 HD
ATOM     80  H   ASG d1196       1.031   6.806  -1.435  0.00  0.00     0.163 HD
ATOM     81  O3  BDP d1199      17.994   9.266  -1.033  0.00  0.00    -0.393 OA
ATOM     82  O1  BDP d1199      13.221  10.290  -1.096  0.00  0.00    -0.348 OA
ATOM     83  O6A BDP d1199      15.330  12.672   3.105  0.00  0.00    -0.646 OA
ATOM     84  C4  BDP d1199      17.023  10.820   0.528  0.00  0.00    -0.005 C 
ATOM     85  O5  BDP d1199      14.585  11.110   0.577  0.00  0.00    -0.343 OA
ATOM     86  C1  BDP d1199      14.346   9.973  -0.264  0.00  0.00     0.159 C 
ATOM     87  C5  BDP d1199      15.783  11.127   1.362  0.00  0.00     0.127 C 
ATOM     88  C2  BDP d1199      15.579   9.593  -1.089  0.00  0.00     0.107 C 
ATOM     89  C3  BDP d1199      16.836   9.513  -0.226  0.00  0.00     0.068 C 
ATOM     90  C6  BDP d1199      15.909  12.476   2.013  0.00  0.00     0.203 C 
ATOM     91  O2  BDP d1199      15.356   8.322  -1.706  0.00  0.00    -0.388 OA
ATOM     92  O6B BDP d1199      16.573  13.365   1.435  0.00  0.00    -0.646 OA
ATOM     93  H   BDP d1199      18.779   9.219  -0.466  0.00  0.00     0.210 HD
ATOM     94  H   BDP d1199      17.184  11.613  -0.173  0.00  0.00     0.041 H 
ATOM     95  H   BDP d1199      17.867  10.730   1.179  0.00  0.00     0.041 H 
ATOM     96  H   BDP d1199      14.135   9.112   0.336  0.00  0.00     0.133 H 
ATOM     97  H   BDP d1199      15.715  10.359   2.104  0.00  0.00     0.100 H 
ATOM     98  H   BDP d1199      15.730  10.353  -1.827  0.00  0.00     0.094 H 
ATOM     99  H   BDP d1199      16.718   8.704   0.465  0.00  0.00     0.087 H 
ATOM    100  H   BDP d1199      15.223   7.649  -1.020  0.00  0.00     0.210 HD
ENDROOT
TORSDOF 25
ENDMDL
MODEL 6
REMARK VINA RESULT:      -5.2      2.832      4.813
REMARK  0 active torsions:
REMARK  status: ('A' for Active; 'I' for Inactive)
REMARK       I    between atoms: C5_1  and  C6_46 
REMARK       I    between atoms: O1_2  and  C4_60 
REMARK       I    between atoms: O1_2  and  C1_47 
REMARK       I    between atoms: S_3  and  O4_24 
REMARK       I    between atoms: C7_6  and  C8_11 
REMARK       I    between atoms: C7_6  and  N_48 
REMARK       I    between atoms: O3_7  and  C3_41 
REMARK       I    between atoms: O1_9  and  C3_31 
REMARK       I    between atoms: O1_9  and  C1_19 
REMARK       I    between atoms: C6_10  and  C5_34 
REMARK       I    between atoms: C6_10  and  O6_12 
REMARK       I    between atoms: C3_13  and  O1_16 
REMARK       I    between atoms: C2_14  and  N_20 
REMARK       I    between atoms: C1_15  and  O1_45 
REMARK       I    between atoms: O1_16  and  C1_29 
REMARK       I    between atoms: S_17  and  O4_30 
REMARK       I    between atoms: N_20  and  C7_40 
REMARK       I    between atoms: C4_22  and  O4_30 
REMARK       I    between atoms: O4_24  and  C4_28 
REMARK       I    between atoms: C5_25  and  C6_55 
REMARK       I    between atoms: C2_32  and  O2_39 
REMARK       I    between atoms: C5_33  and  C6_51 
REMARK       I    between atoms: C2_36  and  O2_56 
REMARK       I    between atoms: C8_37  and  C7_40 
REMARK       I    between atoms: C2_43  and  N_48 
REMARK       I    between atoms: C3_50  and  O3_53 
REMARK       I    between atoms: O6_54  and  C6_55 
ROOT
ATOM      1  C5  BDP d1197       7.904  10.280   0.158  0.00  0.00     0.152 C 
ATOM      2  O1  BDP d1197      10.868  12.203  -0.945  0.00  0.00    -0.348 OA
ATOM      3  C1  BDP d1197       9.666  11.969  -0.186  0.00  0.00     0.160 C 
ATOM      4  O5  BDP d1197       9.204  10.622  -0.351  0.00  0.00    -0.340 OA
ATOM      5  C2  BDP d1197       8.604  12.969  -0.648  0.00  0.00     0.110 C 
ATOM      6  O6A BDP d1197       7.305   7.995   0.399  0.00  0.00    -0.646 OA
ATOM      7  O2  BDP d1197       9.002  14.292  -0.265  0.00  0.00    -0.388 OA
ATOM      8  C6  BDP d1197       7.565   8.928  -0.393  0.00  0.00     0.206 C 
ATOM      9  C3  BDP d1197       7.200  12.681  -0.111  0.00  0.00     0.092 C 
ATOM     10  O6B BDP d1197       7.544   8.798  -1.637  0.00  0.00    -0.646 OA
ATOM     11  O3  BDP d1197       6.276  13.513  -0.827  0.00  0.00    -0.390 OA
ATOM     12  C4  BDP d1197       6.786  11.221  -0.288  0.00  0.00     0.103 C 
ATOM     13  H   BDP d1197       7.961  10.331   1.225  0.00  0.00     0.104 H 
ATOM     14  H   BDP d1197       9.867  12.106   0.857  0.00  0.00     0.133 H 
ATOM     15  H   BDP d1197       8.542  12.873  -1.712  0.00  0.00     0.094 H 
ATOM     16  H   BDP d1197       9.050  14.348   0.703  0.00  0.00     0.210 HD
ATOM     17  H   BDP d1197       7.197  12.885   0.939  0.00  0.00     0.091 H 
ATOM     18  H   BDP d1197       6.310  13.297  -1.772  0.00  0.00     0.210 HD
ATOM     19  H   BDP d1197       6.588  11.056  -1.326  0.00  0.00     0.092 H 
ATOM     20  O1  ASG d1198       5.597  10.944   0.483  0.00  0.00    -0.348 OA
ATOM     21  O7  ASG d1198       4.083   7.512   3.461  0.00  0.00    -0.274 OA
ATOM     22  OSB ASG d1198      -0.829  11.909   0.747  0.00  0.00    -0.572 OA
ATOM     23  C3  ASG d1198       2.063   9.536   0.331  0.00  0.00     0.094 C 
ATOM     24  C2  ASG d1198       3.408   9.958   0.942  0.00  0.00     0.087 C 
ATOM     25  S   ASG d1198       0.102  12.526  -0.224  0.00  0.00     0.252 S 
ATOM     26  N   ASG d1198       3.862   8.750   1.625  0.00  0.00    -0.349 N 
ATOM     27  OSA ASG d1198      -0.484  12.435  -1.580  0.00  0.00    -0.572 OA
ATOM     28  C4  ASG d1198       1.648  10.501  -0.772  0.00  0.00     0.114 C 
ATOM     29  C5  ASG d1198       2.785  10.598  -1.784  0.00  0.00     0.090 C 
ATOM     30  O4  ASG d1198       1.451  11.785  -0.172  0.00  0.00    -0.246 OA
ATOM     31  C8  ASG d1198       3.025   9.618   3.738  0.00  0.00    -0.003 C 
ATOM     32  C7  ASG d1198       3.694   8.540   2.934  0.00  0.00     0.214 C 
ATOM     33  C1  ASG d1198       4.477  10.279  -0.124  0.00  0.00     0.154 C 
ATOM     34  OSC ASG d1198       0.314  13.948   0.133  0.00  0.00    -0.572 OA
ATOM     35  O6  ASG d1198       1.024  11.250  -3.266  0.00  0.00    -0.398 OA
ATOM     36  C6  ASG d1198       2.409  11.451  -2.990  0.00  0.00     0.043 C 
ATOM     37  O5  ASG d1198       3.944  11.136  -1.139  0.00  0.00    -0.349 OA
ATOM     38  H   ASG d1198       2.207   8.561  -0.085  0.00  0.00     0.091 H 
ATOM     39  H   ASG d1198       3.284  10.830   1.549  0.00  0.00     0.084 H 
ATOM     40  H   ASG d1198       4.315   8.055   1.095  0.00  0.00     0.163 HD
ATOM     41  H   ASG d1198       0.755  10.168  -1.259  0.00  0.00     0.093 H 
ATOM     42  H   ASG d1198       2.991   9.614  -2.149  0.00  0.00     0.090 H 
ATOM     43  H   ASG d1198       2.960   9.311   4.761  0.00  0.00     0.040 H 
ATOM     44  H   ASG d1198       2.041   9.791   3.355  0.00  0.00     0.040 H 
ATOM     45  H   ASG d1198       3.597  10.520   3.673  0.00  0.00     0.040 H 
ATOM     46  H   ASG d1198       4.786   9.354  -0.563  0.00  0.00     0.132 H 
ATOM     47  H   ASG d1198       0.765  11.786  -4.032  0.00  0.00     0.209 HD
ATOM     48  H   ASG d1198       2.993  11.158  -3.837  0.00  0.00     0.078 H 
ATOM     49  H   ASG d1198       2.598  12.484  -2.783  0.00  0.00     0.078 H 
ATOM     50  S   ASG d1196      11.736  10.871  -4.364  0.00  0.00     0.252 S 
ATOM     51  OSB ASG d1196      11.718  12.213  -4.990  0.00  0.00    -0.572 OA
ATOM     52  C7  ASG d1196      13.715  14.300   0.131  0.00  0.00     0.214 C 
ATOM     53  C6  ASG d1196      13.297   8.189  -2.533  0.00  0.00     0.043 C 
ATOM     54  C8  ASG d1196      13.921  14.751  -1.284  0.00  0.00    -0.003 C 
ATOM     55  O6  ASG d1196      14.616   7.632  -2.492  0.00  0.00    -0.398 OA
ATOM     56  C1  ASG d1196      14.490  11.091  -0.578  0.00  0.00     0.151 C 
ATOM     57  O4  ASG d1196      12.430  10.999  -2.998  0.00  0.00    -0.246 OA
ATOM     58  C4  ASG d1196      12.052  10.284  -1.814  0.00  0.00     0.114 C 
ATOM     59  C3  ASG d1196      12.010  11.358  -0.734  0.00  0.00     0.094 C 
ATOM     60  C5  ASG d1196      13.226   9.345  -1.545  0.00  0.00     0.090 C 
ATOM     61  OSA ASG d1196      10.345  10.386  -4.208  0.00  0.00    -0.572 OA
ATOM     62  OSC ASG d1196      12.522   9.955  -5.227  0.00  0.00    -0.572 OA
ATOM     63  C2  ASG d1196      13.352  12.087  -0.813  0.00  0.00     0.087 C 
ATOM     64  O5  ASG d1196      14.448  10.086  -1.588  0.00  0.00    -0.349 OA
ATOM     65  O1  ASG d1196      15.749  11.764  -0.674  0.00  0.00    -0.369 OA
ATOM     66  N   ASG d1196      13.434  13.009   0.313  0.00  0.00    -0.349 N 
ATOM     67  O7  ASG d1196      13.795  15.081   1.064  0.00  0.00    -0.274 OA
ATOM     68  H   ASG d1196      13.087   8.545  -3.520  0.00  0.00     0.078 H 
ATOM     69  H   ASG d1196      12.577   7.442  -2.272  0.00  0.00     0.078 H 
ATOM     70  H   ASG d1196      13.809  13.916  -1.944  0.00  0.00     0.040 H 
ATOM     71  H   ASG d1196      14.904  15.159  -1.389  0.00  0.00     0.040 H 
ATOM     72  H   ASG d1196      13.197  15.500  -1.529  0.00  0.00     0.040 H 
ATOM     73  H   ASG d1196      15.263   8.315  -2.730  0.00  0.00     0.209 HD
ATOM     74  H   ASG d1196      14.377  10.656   0.392  0.00  0.00     0.132 H 
ATOM     75  H   ASG d1196      11.129   9.744  -1.868  0.00  0.00     0.093 H 
ATOM     76  H   ASG d1196      11.891  10.966   0.255  0.00  0.00     0.091 H 
ATOM     77  H   ASG d1196      13.074   8.922  -0.574  0.00  0.00     0.090 H 
ATOM     78  H   ASG d1196      13.428  12.569  -1.766  0.00  0.00     0.084 H 
ATOM     79  H   ASG d1196      15.841  12.155  -1.557  0.00  0.00     0.212 HD
ATOM     80  H   ASG d1196      13.278  12.673   1.225  0.00  0.00     0.163 HD
ATOM     81  O3  BDP d1199      -2.802   7.077   3.238  0.00  0.00    -0.393 OA
ATOM     82  O1  BDP d1199       1.018   9.431   1.313  0.00  0.00    -0.348 OA
ATOM     83  O6A BDP d1199      -1.107   6.438  -2.467  0.00  0.00    -0.646 OA
ATOM     84  C4  BDP d1199      -2.305   6.951   0.886  0.00  0.00    -0.005 C 
ATOM     85  O5  BDP d1199      -0.242   7.978   0.036  0.00  0.00    -0.343 OA
ATOM     86  C1  BDP d1199       0.294   8.193   1.348  0.00  0.00     0.159 C 
ATOM     87  C5  BDP d1199      -1.179   6.909  -0.142  0.00  0.00     0.127 C 
ATOM     88  C2  BDP d1199      -0.794   8.196   2.426  0.00  0.00     0.107 C 
ATOM     89  C3  BDP d1199      -1.729   6.996   2.292  0.00  0.00     0.068 C 
ATOM     90  C6  BDP d1199      -1.737   6.989  -1.536  0.00  0.00     0.203 C 
ATOM     91  O2  BDP d1199      -0.177   8.163   3.716  0.00  0.00    -0.388 OA
ATOM     92  O6B BDP d1199      -2.801   7.618  -1.725  0.00  0.00    -0.646 OA
ATOM     93  H   BDP d1199      -3.382   6.307   3.135  0.00  0.00     0.210 HD
ATOM     94  H   BDP d1199      -2.903   7.824   0.720  0.00  0.00     0.041 H 
ATOM     95  H   BDP d1199      -2.906   6.072   0.782  0.00  0.00     0.041 H 
ATOM     96  H   BDP d1199       0.947   7.387   1.613  0.00  0.00     0.133 H 
ATOM     97  H   BDP d1199      -0.668   5.981   0.002  0.00  0.00     0.100 H 
ATOM     98  H   BDP d1199      -1.376   9.086   2.306  0.00  0.00     0.094 H 
ATOM     99  H   BDP d1199      -1.164   6.108   2.486  0.00  0.00     0.087 H 
ATOM    100  H   BDP d1199       0.344   7.350   3.804  0.00  0.00     0.210 HD
ENDROOT
TORSDOF 25
ENDMDL
MODEL 7
REMARK VINA RESULT:      -5.2      1.013      1.037
REMARK  0 active torsions:
REMARK  status: ('A' for Active; 'I' for Inactive)
REMARK       I    between atoms: C5_1  and  C6_46 
REMARK       I    between atoms: O1_2  and  C4_60 
REMARK       I    between atoms: O1_2  and  C1_47 
REMARK       I    between atoms: S_3  and  O4_24 
REMARK       I    between atoms: C7_6  and  C8_11 
REMARK       I    between atoms: C7_6  and  N_48 
REMARK       I    between atoms: O3_7  and  C3_41 
REMARK       I    between atoms: O1_9  and  C3_31 
REMARK       I    between atoms: O1_9  and  C1_19 
REMARK       I    between atoms: C6_10  and  C5_34 
REMARK       I    between atoms: C6_10  and  O6_12 
REMARK       I    between atoms: C3_13  and  O1_16 
REMARK       I    between atoms: C2_14  and  N_20 
REMARK       I    between atoms: C1_15  and  O1_45 
REMARK       I    between atoms: O1_16  and  C1_29 
REMARK       I    between atoms: S_17  and  O4_30 
REMARK       I    between atoms: N_20  and  C7_40 
REMARK       I    between atoms: C4_22  and  O4_30 
REMARK       I    between atoms: O4_24  and  C4_28 
REMARK       I    between atoms: C5_25  and  C6_55 
REMARK       I    between atoms: C2_32  and  O2_39 
REMARK       I    between atoms: C5_33  and  C6_51 
REMARK       I    between atoms: C2_36  and  O2_56 
REMARK       I    between atoms: C8_37  and  C7_40 
REMARK       I    between atoms: C2_43  and  N_48 
REMARK       I    between atoms: C3_50  and  O3_53 
REMARK       I    between atoms: O6_54  and  C6_55 
ROOT
ATOM      1  C5  BDP d1197       6.208   8.984  -1.694  0.00  0.00     0.152 C 
ATOM      2  O1  BDP d1197       9.722   9.275  -0.570  0.00  0.00    -0.348 OA
ATOM      3  C1  BDP d1197       8.365   8.795  -0.516  0.00  0.00     0.160 C 
ATOM      4  O5  BDP d1197       7.631   9.188  -1.683  0.00  0.00    -0.340 OA
ATOM      5  C2  BDP d1197       7.710   9.348   0.751  0.00  0.00     0.110 C 
ATOM      6  O6A BDP d1197       5.024   9.107  -3.749  0.00  0.00    -0.646 OA
ATOM      7  O2  BDP d1197       8.331   8.757   1.901  0.00  0.00    -0.388 OA
ATOM      8  C6  BDP d1197       5.672   9.730  -2.879  0.00  0.00     0.206 C 
ATOM      9  C3  BDP d1197       6.197   9.131   0.818  0.00  0.00     0.092 C 
ATOM     10  O6B BDP d1197       5.890  10.960  -2.935  0.00  0.00    -0.646 OA
ATOM     11  O3  BDP d1197       5.686   9.922   1.900  0.00  0.00    -0.390 OA
ATOM     12  C4  BDP d1197       5.482   9.538  -0.470  0.00  0.00     0.103 C 
ATOM     13  H   BDP d1197       6.043   7.927  -1.715  0.00  0.00     0.104 H 
ATOM     14  H   BDP d1197       8.362   7.725  -0.491  0.00  0.00     0.133 H 
ATOM     15  H   BDP d1197       7.858  10.408   0.730  0.00  0.00     0.094 H 
ATOM     16  H   BDP d1197       8.180   7.799   1.893  0.00  0.00     0.210 HD
ATOM     17  H   BDP d1197       6.016   8.086   0.962  0.00  0.00     0.091 H 
ATOM     18  H   BDP d1197       5.869  10.860   1.730  0.00  0.00     0.210 HD
ATOM     19  H   BDP d1197       5.480  10.607  -0.523  0.00  0.00     0.092 H 
ATOM     20  O1  ASG d1198       4.124   9.050  -0.462  0.00  0.00    -0.348 OA
ATOM     21  O7  ASG d1198       1.198   6.806  -3.517  0.00  0.00    -0.274 OA
ATOM     22  OSB ASG d1198      -1.762   9.952   2.153  0.00  0.00    -0.572 OA
ATOM     23  C3  ASG d1198       0.471  10.040  -0.876  0.00  0.00     0.094 C 
ATOM     24  C2  ASG d1198       1.713   9.135  -0.856  0.00  0.00     0.087 C 
ATOM     25  S   ASG d1198      -0.520  10.651   2.551  0.00  0.00     0.252 S 
ATOM     26  N   ASG d1198       1.695   8.508  -2.174  0.00  0.00    -0.349 N 
ATOM     27  OSA ASG d1198      -0.801  12.097   2.687  0.00  0.00    -0.572 OA
ATOM     28  C4  ASG d1198       0.557  11.095   0.219  0.00  0.00     0.114 C 
ATOM     29  C5  ASG d1198       1.875  11.848   0.064  0.00  0.00     0.090 C 
ATOM     30  O4  ASG d1198       0.560  10.413   1.478  0.00  0.00    -0.246 OA
ATOM     31  C8  ASG d1198       0.660   6.521  -1.224  0.00  0.00    -0.003 C 
ATOM     32  C7  ASG d1198       1.199   7.287  -2.398  0.00  0.00     0.214 C 
ATOM     33  C1  ASG d1198       3.033   9.932  -0.775  0.00  0.00     0.154 C 
ATOM     34  OSC ASG d1198      -0.044  10.112   3.846  0.00  0.00    -0.572 OA
ATOM     35  O6  ASG d1198       0.695  13.570   1.233  0.00  0.00    -0.398 OA
ATOM     36  C6  ASG d1198       1.993  13.007   1.046  0.00  0.00     0.043 C 
ATOM     37  O5  ASG d1198       2.962  10.935   0.243  0.00  0.00    -0.349 OA
ATOM     38  H   ASG d1198       0.455  10.520  -1.831  0.00  0.00     0.091 H 
ATOM     39  H   ASG d1198       1.681   8.477  -0.014  0.00  0.00     0.084 H 
ATOM     40  H   ASG d1198       2.065   9.009  -2.936  0.00  0.00     0.163 HD
ATOM     41  H   ASG d1198      -0.263  11.780   0.160  0.00  0.00     0.093 H 
ATOM     42  H   ASG d1198       1.905  12.268  -0.920  0.00  0.00     0.090 H 
ATOM     43  H   ASG d1198       0.301   5.569  -1.555  0.00  0.00     0.040 H 
ATOM     44  H   ASG d1198      -0.143   7.070  -0.778  0.00  0.00     0.040 H 
ATOM     45  H   ASG d1198       1.438   6.378  -0.504  0.00  0.00     0.040 H 
ATOM     46  H   ASG d1198       3.191  10.396  -1.725  0.00  0.00     0.132 H 
ATOM     47  H   ASG d1198       0.750  14.311   1.856  0.00  0.00     0.209 HD
ATOM     48  H   ASG d1198       2.655  13.749   0.652  0.00  0.00     0.078 H 
ATOM     49  H   ASG d1198       2.382  12.660   1.981  0.00  0.00     0.078 H 
ATOM     50  S   ASG d1196      10.954  12.577  -1.908  0.00  0.00     0.252 S 
ATOM     51  OSB ASG d1196      11.405  13.049  -0.579  0.00  0.00    -0.572 OA
ATOM     52  C7  ASG d1196      12.697   7.446   0.642  0.00  0.00     0.214 C 
ATOM     53  C6  ASG d1196      11.366  10.768  -4.997  0.00  0.00     0.043 C 
ATOM     54  C8  ASG d1196      13.310   8.737   1.094  0.00  0.00    -0.003 C 
ATOM     55  O6  ASG d1196      12.465  10.528  -5.884  0.00  0.00    -0.398 OA
ATOM     56  C1  ASG d1196      12.787   8.323  -2.617  0.00  0.00     0.151 C 
ATOM     57  O4  ASG d1196      11.344  11.096  -2.038  0.00  0.00    -0.246 OA
ATOM     58  C4  ASG d1196      10.553  10.091  -2.687  0.00  0.00     0.114 C 
ATOM     59  C3  ASG d1196      10.546   8.933  -1.696  0.00  0.00     0.094 C 
ATOM     60  C5  ASG d1196      11.371   9.697  -3.915  0.00  0.00     0.090 C 
ATOM     61  OSA ASG d1196       9.487  12.749  -2.016  0.00  0.00    -0.572 OA
ATOM     62  OSC ASG d1196      11.656  13.360  -2.954  0.00  0.00    -0.572 OA
ATOM     63  C2  ASG d1196      12.011   8.671  -1.345  0.00  0.00     0.087 C 
ATOM     64  O5  ASG d1196      12.718   9.422  -3.523  0.00  0.00    -0.349 OA
ATOM     65  O1  ASG d1196      14.164   8.098  -2.296  0.00  0.00    -0.369 OA
ATOM     66  N   ASG d1196      12.072   7.459  -0.536  0.00  0.00    -0.349 N 
ATOM     67  O7  ASG d1196      12.763   6.438   1.326  0.00  0.00    -0.274 OA
ATOM     68  H   ASG d1196      11.471  11.734  -4.549  0.00  0.00     0.078 H 
ATOM     69  H   ASG d1196      10.445  10.734  -5.539  0.00  0.00     0.078 H 
ATOM     70  H   ASG d1196      13.140   9.490   0.354  0.00  0.00     0.040 H 
ATOM     71  H   ASG d1196      14.362   8.603   1.232  0.00  0.00     0.040 H 
ATOM     72  H   ASG d1196      12.865   9.039   2.019  0.00  0.00     0.040 H 
ATOM     73  H   ASG d1196      13.296  10.561  -5.385  0.00  0.00     0.209 HD
ATOM     74  H   ASG d1196      12.363   7.445  -3.056  0.00  0.00     0.132 H 
ATOM     75  H   ASG d1196       9.560  10.382  -2.961  0.00  0.00     0.093 H 
ATOM     76  H   ASG d1196      10.121   8.034  -2.093  0.00  0.00     0.091 H 
ATOM     77  H   ASG d1196      10.912   8.825  -4.332  0.00  0.00     0.090 H 
ATOM     78  H   ASG d1196      12.408   9.533  -0.852  0.00  0.00     0.084 H 
ATOM     79  H   ASG d1196      14.539   8.900  -1.899  0.00  0.00     0.212 HD
ATOM     80  H   ASG d1196      11.644   6.636  -0.864  0.00  0.00     0.163 HD
ATOM     81  O3  BDP d1199      -5.363   8.421  -2.105  0.00  0.00    -0.393 OA
ATOM     82  O1  BDP d1199      -0.755   9.299  -0.750  0.00  0.00    -0.348 OA
ATOM     83  O6A BDP d1199      -2.683  13.716  -2.879  0.00  0.00    -0.646 OA
ATOM     84  C4  BDP d1199      -4.414  10.629  -2.238  0.00  0.00    -0.005 C 
ATOM     85  O5  BDP d1199      -2.028  10.945  -1.752  0.00  0.00    -0.343 OA
ATOM     86  C1  BDP d1199      -1.753   9.537  -1.753  0.00  0.00     0.159 C 
ATOM     87  C5  BDP d1199      -3.138  11.415  -2.524  0.00  0.00     0.127 C 
ATOM     88  C2  BDP d1199      -3.013   8.700  -1.517  0.00  0.00     0.107 C 
ATOM     89  C3  BDP d1199      -4.164   9.140  -2.419  0.00  0.00     0.068 C 
ATOM     90  C6  BDP d1199      -3.343  12.874  -2.229  0.00  0.00     0.203 C 
ATOM     91  O2  BDP d1199      -2.718   7.324  -1.778  0.00  0.00    -0.388 OA
ATOM     92  O6B BDP d1199      -4.151  13.201  -1.332  0.00  0.00    -0.646 OA
ATOM     93  H   BDP d1199      -6.079   8.716  -2.689  0.00  0.00     0.210 HD
ATOM     94  H   BDP d1199      -4.727  10.816  -1.232  0.00  0.00     0.041 H 
ATOM     95  H   BDP d1199      -5.176  10.941  -2.921  0.00  0.00     0.041 H 
ATOM     96  H   BDP d1199      -1.393   9.235  -2.715  0.00  0.00     0.133 H 
ATOM     97  H   BDP d1199      -2.917  11.271  -3.561  0.00  0.00     0.100 H 
ATOM     98  H   BDP d1199      -3.316   8.838  -0.500  0.00  0.00     0.094 H 
ATOM     99  H   BDP d1199      -3.893   8.934  -3.434  0.00  0.00     0.087 H 
ATOM    100  H   BDP d1199      -2.447   7.222  -2.703  0.00  0.00     0.210 HD
ENDROOT
TORSDOF 25
ENDMDL
MODEL 8
REMARK VINA RESULT:      -5.1      2.919      4.900
REMARK  0 active torsions:
REMARK  status: ('A' for Active; 'I' for Inactive)
REMARK       I    between atoms: C5_1  and  C6_46 
REMARK       I    between atoms: O1_2  and  C4_60 
REMARK       I    between atoms: O1_2  and  C1_47 
REMARK       I    between atoms: S_3  and  O4_24 
REMARK       I    between atoms: C7_6  and  C8_11 
REMARK       I    between atoms: C7_6  and  N_48 
REMARK       I    between atoms: O3_7  and  C3_41 
REMARK       I    between atoms: O1_9  and  C3_31 
REMARK       I    between atoms: O1_9  and  C1_19 
REMARK       I    between atoms: C6_10  and  C5_34 
REMARK       I    between atoms: C6_10  and  O6_12 
REMARK       I    between atoms: C3_13  and  O1_16 
REMARK       I    between atoms: C2_14  and  N_20 
REMARK       I    between atoms: C1_15  and  O1_45 
REMARK       I    between atoms: O1_16  and  C1_29 
REMARK       I    between atoms: S_17  and  O4_30 
REMARK       I    between atoms: N_20  and  C7_40 
REMARK       I    between atoms: C4_22  and  O4_30 
REMARK       I    between atoms: O4_24  and  C4_28 
REMARK       I    between atoms: C5_25  and  C6_55 
REMARK       I    between atoms: C2_32  and  O2_39 
REMARK       I    between atoms: C5_33  and  C6_51 
REMARK       I    between atoms: C2_36  and  O2_56 
REMARK       I    between atoms: C8_37  and  C7_40 
REMARK       I    between atoms: C2_43  and  N_48 
REMARK       I    between atoms: C3_50  and  O3_53 
REMARK       I    between atoms: O6_54  and  C6_55 
ROOT
ATOM      1  C5  BDP d1197       8.249  10.108   0.530  0.00  0.00     0.152 C 
ATOM      2  O1  BDP d1197      11.369  11.774  -0.563  0.00  0.00    -0.348 OA
ATOM      3  C1  BDP d1197      10.193  11.598   0.252  0.00  0.00     0.160 C 
ATOM      4  O5  BDP d1197       9.550  10.348  -0.031  0.00  0.00    -0.340 OA
ATOM      5  C2  BDP d1197       9.247  12.769  -0.012  0.00  0.00     0.110 C 
ATOM      6  O6A BDP d1197       7.372   7.902   0.551  0.00  0.00    -0.646 OA
ATOM      7  O2  BDP d1197       9.836  13.977   0.490  0.00  0.00    -0.388 OA
ATOM      8  C6  BDP d1197       7.704   8.887  -0.146  0.00  0.00     0.206 C 
ATOM      9  C3  BDP d1197       7.851  12.593   0.591  0.00  0.00     0.092 C 
ATOM     10  O6B BDP d1197       7.593   8.915  -1.391  0.00  0.00    -0.646 OA
ATOM     11  O3  BDP d1197       7.004  13.614   0.046  0.00  0.00    -0.390 OA
ATOM     12  C4  BDP d1197       7.239  11.227   0.279  0.00  0.00     0.103 C 
ATOM     13  H   BDP d1197       8.375  10.020   1.588  0.00  0.00     0.104 H 
ATOM     14  H   BDP d1197      10.472  11.579   1.286  0.00  0.00     0.133 H 
ATOM     15  H   BDP d1197       9.110  12.814  -1.072  0.00  0.00     0.094 H 
ATOM     16  H   BDP d1197       9.948  13.907   1.451  0.00  0.00     0.210 HD
ATOM     17  H   BDP d1197       7.936  12.665   1.655  0.00  0.00     0.091 H 
ATOM     18  H   BDP d1197       6.953  13.513  -0.917  0.00  0.00     0.210 HD
ATOM     19  H   BDP d1197       6.960  11.218  -0.754  0.00  0.00     0.092 H 
ATOM     20  O1  ASG d1198       6.072  11.006   1.099  0.00  0.00    -0.348 OA
ATOM     21  O7  ASG d1198       4.300   7.446   3.768  0.00  0.00    -0.274 OA
ATOM     22  OSB ASG d1198      -0.145  12.714   1.948  0.00  0.00    -0.572 OA
ATOM     23  C3  ASG d1198       2.381  10.073   1.050  0.00  0.00     0.094 C 
ATOM     24  C2  ASG d1198       3.804  10.247   1.604  0.00  0.00     0.087 C 
ATOM     25  S   ASG d1198       0.799  13.327   0.989  0.00  0.00     0.252 S 
ATOM     26  N   ASG d1198       4.136   8.918   2.108  0.00  0.00    -0.349 N 
ATOM     27  OSA ASG d1198       0.128  13.476  -0.322  0.00  0.00    -0.572 OA
ATOM     28  C4  ASG d1198       2.032  11.210   0.098  0.00  0.00     0.114 C 
ATOM     29  C5  ASG d1198       3.110  11.290  -0.978  0.00  0.00     0.090 C 
ATOM     30  O4  ASG d1198       2.041  12.425   0.855  0.00  0.00    -0.246 OA
ATOM     31  C8  ASG d1198       3.545   9.615   4.363  0.00  0.00    -0.003 C 
ATOM     32  C7  ASG d1198       4.018   8.571   3.393  0.00  0.00     0.214 C 
ATOM     33  C1  ASG d1198       4.840  10.564   0.504  0.00  0.00     0.154 C 
ATOM     34  OSC ASG d1198       1.217  14.657   1.489  0.00  0.00    -0.572 OA
ATOM     35  O6  ASG d1198       1.365  12.332  -2.240  0.00  0.00    -0.398 OA
ATOM     36  C6  ASG d1198       2.779  12.325  -2.046  0.00  0.00     0.043 C 
ATOM     37  O5  ASG d1198       4.365  11.598  -0.363  0.00  0.00    -0.349 OA
ATOM     38  H   ASG d1198       2.371   9.146   0.515  0.00  0.00     0.091 H 
ATOM     39  H   ASG d1198       3.831  11.047   2.314  0.00  0.00     0.084 H 
ATOM     40  H   ASG d1198       4.462   8.244   1.469  0.00  0.00     0.163 HD
ATOM     41  H   ASG d1198       1.076  11.052  -0.356  0.00  0.00     0.093 H 
ATOM     42  H   ASG d1198       3.164  10.341  -1.468  0.00  0.00     0.090 H 
ATOM     43  H   ASG d1198       3.501   9.195   5.346  0.00  0.00     0.040 H 
ATOM     44  H   ASG d1198       2.571   9.954   4.076  0.00  0.00     0.040 H 
ATOM     45  H   ASG d1198       4.225  10.441   4.359  0.00  0.00     0.040 H 
ATOM     46  H   ASG d1198       4.999   9.669  -0.059  0.00  0.00     0.132 H 
ATOM     47  H   ASG d1198       1.134  12.986  -2.918  0.00  0.00     0.209 HD
ATOM     48  H   ASG d1198       3.268  12.069  -2.962  0.00  0.00     0.078 H 
ATOM     49  H   ASG d1198       3.113  13.294  -1.737  0.00  0.00     0.078 H 
ATOM     50  S   ASG d1196      11.852  10.777  -4.167  0.00  0.00     0.252 S 
ATOM     51  OSB ASG d1196      11.973  12.177  -4.631  0.00  0.00    -0.572 OA
ATOM     52  C7  ASG d1196      14.525  13.356   0.532  0.00  0.00     0.214 C 
ATOM     53  C6  ASG d1196      13.154   7.718  -2.776  0.00  0.00     0.043 C 
ATOM     54  C8  ASG d1196      14.704  13.949  -0.833  0.00  0.00    -0.003 C 
ATOM     55  O6  ASG d1196      14.388   7.002  -2.898  0.00  0.00    -0.398 OA
ATOM     56  C1  ASG d1196      14.829  10.188  -0.596  0.00  0.00     0.151 C 
ATOM     57  O4  ASG d1196      12.636  10.649  -2.851  0.00  0.00    -0.246 OA
ATOM     58  C4  ASG d1196      12.238   9.845  -1.731  0.00  0.00     0.114 C 
ATOM     59  C3  ASG d1196      12.401  10.775  -0.535  0.00  0.00     0.094 C 
ATOM     60  C5  ASG d1196      13.293   8.744  -1.659  0.00  0.00     0.090 C 
ATOM     61  OSA ASG d1196      10.421  10.450  -3.964  0.00  0.00    -0.572 OA
ATOM     62  OSC ASG d1196      12.459   9.884  -5.184  0.00  0.00    -0.572 OA
ATOM     63  C2  ASG d1196      13.820  11.338  -0.630  0.00  0.00     0.087 C 
ATOM     64  O5  ASG d1196      14.597   9.328  -1.708  0.00  0.00    -0.349 OA
ATOM     65  O1  ASG d1196      16.158  10.708  -0.707  0.00  0.00    -0.369 OA
ATOM     66  N   ASG d1196      14.088  12.097   0.586  0.00  0.00    -0.349 N 
ATOM     67  O7  ASG d1196      14.761  14.001   1.541  0.00  0.00    -0.274 OA
ATOM     68  H   ASG d1196      12.935   8.216  -3.698  0.00  0.00     0.078 H 
ATOM     69  H   ASG d1196      12.359   7.039  -2.550  0.00  0.00     0.078 H 
ATOM     70  H   ASG d1196      14.445  13.222  -1.574  0.00  0.00     0.040 H 
ATOM     71  H   ASG d1196      15.724  14.243  -0.963  0.00  0.00     0.040 H 
ATOM     72  H   ASG d1196      14.071  14.806  -0.936  0.00  0.00     0.040 H 
ATOM     73  H   ASG d1196      15.104   7.625  -3.102  0.00  0.00     0.209 HD
ATOM     74  H   ASG d1196      14.718   9.654   0.324  0.00  0.00     0.132 H 
ATOM     75  H   ASG d1196      11.251   9.433  -1.778  0.00  0.00     0.093 H 
ATOM     76  H   ASG d1196      12.290  10.282   0.408  0.00  0.00     0.091 H 
ATOM     77  H   ASG d1196      13.145   8.226  -0.735  0.00  0.00     0.090 H 
ATOM     78  H   ASG d1196      13.902  11.920  -1.523  0.00  0.00     0.084 H 
ATOM     79  H   ASG d1196      16.248  11.190  -1.544  0.00  0.00     0.212 HD
ATOM     80  H   ASG d1196      13.944  11.673   1.463  0.00  0.00     0.163 HD
ATOM     81  O3  BDP d1199      -2.584   7.891   4.008  0.00  0.00    -0.393 OA
ATOM     82  O1  BDP d1199       1.391   9.977   2.088  0.00  0.00    -0.348 OA
ATOM     83  O6A BDP d1199      -1.327   7.757  -1.842  0.00  0.00    -0.646 OA
ATOM     84  C4  BDP d1199      -2.247   7.996   1.627  0.00  0.00    -0.005 C 
ATOM     85  O5  BDP d1199      -0.122   8.858   0.750  0.00  0.00    -0.343 OA
ATOM     86  C1  BDP d1199       0.515   8.842   2.035  0.00  0.00     0.159 C 
ATOM     87  C5  BDP d1199      -1.199   7.943   0.520  0.00  0.00     0.127 C 
ATOM     88  C2  BDP d1199      -0.498   8.846   3.184  0.00  0.00     0.107 C 
ATOM     89  C3  BDP d1199      -1.588   7.797   2.983  0.00  0.00     0.068 C 
ATOM     90  C6  BDP d1199      -1.823   8.262  -0.810  0.00  0.00     0.203 C 
ATOM     91  O2  BDP d1199       0.185   8.579   4.412  0.00  0.00    -0.388 OA
ATOM     92  O6B BDP d1199      -2.805   9.036  -0.845  0.00  0.00    -0.646 OA
ATOM     93  H   BDP d1199      -3.265   7.217   3.861  0.00  0.00     0.210 HD
ATOM     94  H   BDP d1199      -2.734   8.949   1.608  0.00  0.00     0.041 H 
ATOM     95  H   BDP d1199      -2.963   7.217   1.468  0.00  0.00     0.041 H 
ATOM     96  H   BDP d1199       1.071   7.936   2.156  0.00  0.00     0.133 H 
ATOM     97  H   BDP d1199      -0.806   6.948   0.519  0.00  0.00     0.100 H 
ATOM     98  H   BDP d1199      -0.964   9.809   3.209  0.00  0.00     0.094 H 
ATOM     99  H   BDP d1199      -1.134   6.828   3.031  0.00  0.00     0.087 H 
ATOM    100  H   BDP d1199       0.599   7.703   4.367  0.00  0.00     0.210 HD
ENDROOT
TORSDOF 25
ENDMDL
MODEL 9
REMARK VINA RESULT:      -5.0      2.583     12.773
REMARK  0 active torsions:
REMARK  status: ('A' for Active; 'I' for Inactive)
REMARK       I    between atoms: C5_1  and  C6_46 
REMARK       I    between atoms: O1_2  and  C4_60 
REMARK       I    between atoms: O1_2  and  C1_47 
REMARK       I    between atoms: S_3  and  O4_24 
REMARK       I    between atoms: C7_6  and  C8_11 
REMARK       I    between atoms: C7_6  and  N_48 
REMARK       I    between atoms: O3_7  and  C3_41 
REMARK       I    between atoms: O1_9  and  C3_31 
REMARK       I    between atoms: O1_9  and  C1_19 
REMARK       I    between atoms: C6_10  and  C5_34 
REMARK       I    between atoms: C6_10  and  O6_12 
REMARK       I    between atoms: C3_13  and  O1_16 
REMARK       I    between atoms: C2_14  and  N_20 
REMARK       I    between atoms: C1_15  and  O1_45 
REMARK       I    between atoms: O1_16  and  C1_29 
REMARK       I    between atoms: S_17  and  O4_30 
REMARK       I    between atoms: N_20  and  C7_40 
REMARK       I    between atoms: C4_22  and  O4_30 
REMARK       I    between atoms: O4_24  and  C4_28 
REMARK       I    between atoms: C5_25  and  C6_55 
REMARK       I    between atoms: C2_32  and  O2_39 
REMARK       I    between atoms: C5_33  and  C6_51 
REMARK       I    between atoms: C2_36  and  O2_56 
REMARK       I    between atoms: C8_37  and  C7_40 
REMARK       I    between atoms: C2_43  and  N_48 
REMARK       I    between atoms: C3_50  and  O3_53 
REMARK       I    between atoms: O6_54  and  C6_55 
ROOT
ATOM      1  C5  BDP d1197       6.542   9.429  -1.694  0.00  0.00     0.152 C 
ATOM      2  O1  BDP d1197       3.068   9.630  -2.956  0.00  0.00    -0.348 OA
ATOM      3  C1  BDP d1197       4.492   9.437  -3.063  0.00  0.00     0.160 C 
ATOM      4  O5  BDP d1197       5.107   9.395  -1.769  0.00  0.00    -0.340 OA
ATOM      5  C2  BDP d1197       5.069  10.578  -3.903  0.00  0.00     0.110 C 
ATOM      6  O6A BDP d1197       7.623   8.832   0.334  0.00  0.00    -0.646 OA
ATOM      7  O2  BDP d1197       4.601  10.455  -5.253  0.00  0.00    -0.388 OA
ATOM      8  C6  BDP d1197       6.896   9.662  -0.256  0.00  0.00     0.206 C 
ATOM      9  C3  BDP d1197       6.597  10.649  -3.895  0.00  0.00     0.092 C 
ATOM     10  O6B BDP d1197       6.452  10.696   0.289  0.00  0.00    -0.646 OA
ATOM     11  O3  BDP d1197       6.984  11.899  -4.483  0.00  0.00    -0.390 OA
ATOM     12  C4  BDP d1197       7.187  10.564  -2.487  0.00  0.00     0.103 C 
ATOM     13  H   BDP d1197       6.899   8.507  -2.103  0.00  0.00     0.104 H 
ATOM     14  H   BDP d1197       4.693   8.499  -3.536  0.00  0.00     0.133 H 
ATOM     15  H   BDP d1197       4.726  11.487  -3.454  0.00  0.00     0.094 H 
ATOM     16  H   BDP d1197       4.927   9.624  -5.633  0.00  0.00     0.210 HD
ATOM     17  H   BDP d1197       6.972   9.811  -4.445  0.00  0.00     0.091 H 
ATOM     18  H   BDP d1197       6.625  12.629  -3.955  0.00  0.00     0.210 HD
ATOM     19  H   BDP d1197       6.990  11.490  -1.990  0.00  0.00     0.092 H 
ATOM     20  O1  ASG d1198       8.612  10.343  -2.557  0.00  0.00    -0.348 OA
ATOM     21  O7  ASG d1198      11.814   7.481  -0.439  0.00  0.00    -0.274 OA
ATOM     22  OSB ASG d1198      14.302  13.188  -3.912  0.00  0.00    -0.572 OA
ATOM     23  C3  ASG d1198      12.005  11.609  -1.382  0.00  0.00     0.094 C 
ATOM     24  C2  ASG d1198      10.953  10.622  -1.911  0.00  0.00     0.087 C 
ATOM     25  S   ASG d1198      12.963  13.788  -4.108  0.00  0.00     0.252 S 
ATOM     26  N   ASG d1198      11.049   9.497  -0.986  0.00  0.00    -0.349 N 
ATOM     27  OSA ASG d1198      12.976  15.175  -3.593  0.00  0.00    -0.572 OA
ATOM     28  C4  ASG d1198      11.756  13.007  -1.934  0.00  0.00     0.114 C 
ATOM     29  C5  ASG d1198      10.318  13.404  -1.616  0.00  0.00     0.090 C 
ATOM     30  O4  ASG d1198      11.916  12.945  -3.355  0.00  0.00    -0.246 OA
ATOM     31  C8  ASG d1198      12.461   8.303  -2.569  0.00  0.00    -0.003 C 
ATOM     32  C7  ASG d1198      11.756   8.392  -1.245  0.00  0.00     0.214 C 
ATOM     33  C1  ASG d1198       9.511  11.160  -1.789  0.00  0.00     0.154 C 
ATOM     34  OSC ASG d1198      12.633  13.796  -5.552  0.00  0.00    -0.572 OA
ATOM     35  O6  ASG d1198      11.192  15.622  -1.821  0.00  0.00    -0.398 OA
ATOM     36  C6  ASG d1198      10.016  14.841  -2.026  0.00  0.00     0.043 C 
ATOM     37  O5  ASG d1198       9.424  12.503  -2.276  0.00  0.00    -0.349 OA
ATOM     38  H   ASG d1198      11.904  11.624  -0.317  0.00  0.00     0.091 H 
ATOM     39  H   ASG d1198      11.131  10.406  -2.944  0.00  0.00     0.084 H 
ATOM     40  H   ASG d1198      10.571   9.555  -0.128  0.00  0.00     0.163 HD
ATOM     41  H   ASG d1198      12.433  13.716  -1.505  0.00  0.00     0.093 H 
ATOM     42  H   ASG d1198      10.183  13.346  -0.556  0.00  0.00     0.090 H 
ATOM     43  H   ASG d1198      12.980   7.371  -2.633  0.00  0.00     0.040 H 
ATOM     44  H   ASG d1198      13.161   9.108  -2.655  0.00  0.00     0.040 H 
ATOM     45  H   ASG d1198      11.744   8.368  -3.360  0.00  0.00     0.040 H 
ATOM     46  H   ASG d1198       9.243  11.137  -0.754  0.00  0.00     0.132 H 
ATOM     47  H   ASG d1198      11.019  16.541  -2.076  0.00  0.00     0.209 HD
ATOM     48  H   ASG d1198       9.217  15.227  -1.429  0.00  0.00     0.078 H 
ATOM     49  H   ASG d1198       9.724  14.876  -3.055  0.00  0.00     0.078 H 
ATOM     50  S   ASG d1196       1.208  11.794  -0.491  0.00  0.00     0.252 S 
ATOM     51  OSB ASG d1196       0.716  12.718  -1.537  0.00  0.00    -0.572 OA
ATOM     52  C7  ASG d1196       0.519   8.070  -5.132  0.00  0.00     0.214 C 
ATOM     53  C6  ASG d1196       1.050   8.786   1.488  0.00  0.00     0.043 C 
ATOM     54  C8  ASG d1196      -0.309   9.318  -5.060  0.00  0.00    -0.003 C 
ATOM     55  O6  ASG d1196      -0.010   8.020   2.070  0.00  0.00    -0.398 OA
ATOM     56  C1  ASG d1196       0.175   7.425  -1.835  0.00  0.00     0.151 C 
ATOM     57  O4  ASG d1196       1.095  10.362  -1.038  0.00  0.00    -0.246 OA
ATOM     58  C4  ASG d1196       2.040   9.311  -0.792  0.00  0.00     0.114 C 
ATOM     59  C3  ASG d1196       2.290   8.712  -2.171  0.00  0.00     0.094 C 
ATOM     60  C5  ASG d1196       1.274   8.303   0.062  0.00  0.00     0.090 C 
ATOM     61  OSA ASG d1196       2.615  12.127  -0.166  0.00  0.00    -0.572 OA
ATOM     62  OSC ASG d1196       0.343  11.928   0.707  0.00  0.00    -0.572 OA
ATOM     63  C2  ASG d1196       0.910   8.405  -2.753  0.00  0.00     0.087 C 
ATOM     64  O5  ASG d1196       0.013   8.019  -0.550  0.00  0.00    -0.349 OA
ATOM     65  O1  ASG d1196      -1.127   7.151  -2.364  0.00  0.00    -0.369 OA
ATOM     66  N   ASG d1196       1.097   7.669  -3.999  0.00  0.00    -0.349 N 
ATOM     67  O7  ASG d1196       0.660   7.461  -6.179  0.00  0.00    -0.274 OA
ATOM     68  H   ASG d1196       0.781   9.822   1.479  0.00  0.00     0.078 H 
ATOM     69  H   ASG d1196       1.945   8.664   2.060  0.00  0.00     0.078 H 
ATOM     70  H   ASG d1196      -0.303   9.693  -4.058  0.00  0.00     0.040 H 
ATOM     71  H   ASG d1196      -1.314   9.096  -5.352  0.00  0.00     0.040 H 
ATOM     72  H   ASG d1196       0.098  10.055  -5.719  0.00  0.00     0.040 H 
ATOM     73  H   ASG d1196      -0.819   8.136   1.547  0.00  0.00     0.209 HD
ATOM     74  H   ASG d1196       0.741   6.521  -1.765  0.00  0.00     0.132 H 
ATOM     75  H   ASG d1196       2.954   9.604  -0.319  0.00  0.00     0.093 H 
ATOM     76  H   ASG d1196       2.862   7.808  -2.148  0.00  0.00     0.091 H 
ATOM     77  H   ASG d1196       1.874   7.419   0.119  0.00  0.00     0.090 H 
ATOM     78  H   ASG d1196       0.373   9.322  -2.876  0.00  0.00     0.084 H 
ATOM     79  H   ASG d1196      -1.632   7.977  -2.424  0.00  0.00     0.212 HD
ATOM     80  H   ASG d1196       1.660   6.862  -4.004  0.00  0.00     0.163 HD
ATOM     81  O3  BDP d1199      18.000  10.541  -0.340  0.00  0.00    -0.393 OA
ATOM     82  O1  BDP d1199      13.350  11.195  -1.678  0.00  0.00    -0.348 OA
ATOM     83  O6A BDP d1199      14.366  14.495   2.302  0.00  0.00    -0.646 OA
ATOM     84  C4  BDP d1199      16.655  12.298   0.609  0.00  0.00    -0.005 C 
ATOM     85  O5  BDP d1199      14.267  12.420   0.051  0.00  0.00    -0.343 OA
ATOM     86  C1  BDP d1199      14.257  11.127  -0.568  0.00  0.00     0.159 C 
ATOM     87  C5  BDP d1199      15.249  12.675   1.063  0.00  0.00     0.127 C 
ATOM     88  C2  BDP d1199      15.657  10.680  -1.000  0.00  0.00     0.107 C 
ATOM     89  C3  BDP d1199      16.680  10.859   0.119  0.00  0.00     0.068 C 
ATOM     90  C6  BDP d1199      15.188  14.131   1.432  0.00  0.00     0.203 C 
ATOM     91  O2  BDP d1199      15.615   9.300  -1.375  0.00  0.00    -0.388 OA
ATOM     92  O6B BDP d1199      15.947  14.934   0.847  0.00  0.00    -0.646 OA
ATOM     93  H   BDP d1199      18.632  10.662   0.386  0.00  0.00     0.210 HD
ATOM     94  H   BDP d1199      16.957  12.948  -0.186  0.00  0.00     0.041 H 
ATOM     95  H   BDP d1199      17.327  12.398   1.436  0.00  0.00     0.041 H 
ATOM     96  H   BDP d1199      13.933  10.387   0.134  0.00  0.00     0.133 H 
ATOM     97  H   BDP d1199      15.028  12.064   1.913  0.00  0.00     0.100 H 
ATOM     98  H   BDP d1199      15.958  11.289  -1.826  0.00  0.00     0.094 H 
ATOM     99  H   BDP d1199      16.423  10.195   0.918  0.00  0.00     0.087 H 
ATOM    100  H   BDP d1199      15.341   8.767  -0.613  0.00  0.00     0.210 HD
ENDROOT
TORSDOF 25
ENDMDL
MODEL 10
REMARK VINA RESULT:      -4.9      3.285     12.697
REMARK  0 active torsions:
REMARK  status: ('A' for Active; 'I' for Inactive)
REMARK       I    between atoms: C5_1  and  C6_46 
REMARK       I    between atoms: O1_2  and  C4_60 
REMARK       I    between atoms: O1_2  and  C1_47 
REMARK       I    between atoms: S_3  and  O4_24 
REMARK       I    between atoms: C7_6  and  C8_11 
REMARK       I    between atoms: C7_6  and  N_48 
REMARK       I    between atoms: O3_7  and  C3_41 
REMARK       I    between atoms: O1_9  and  C3_31 
REMARK       I    between atoms: O1_9  and  C1_19 
REMARK       I    between atoms: C6_10  and  C5_34 
REMARK       I    between atoms: C6_10  and  O6_12 
REMARK       I    between atoms: C3_13  and  O1_16 
REMARK       I    between atoms: C2_14  and  N_20 
REMARK       I    between atoms: C1_15  and  O1_45 
REMARK       I    between atoms: O1_16  and  C1_29 
REMARK       I    between atoms: S_17  and  O4_30 
REMARK       I    between atoms: N_20  and  C7_40 
REMARK       I    between atoms: C4_22  and  O4_30 
REMARK       I    between atoms: O4_24  and  C4_28 
REMARK       I    between atoms: C5_25  and  C6_55 
REMARK       I    between atoms: C2_32  and  O2_39 
REMARK       I    between atoms: C5_33  and  C6_51 
REMARK       I    between atoms: C2_36  and  O2_56 
REMARK       I    between atoms: C8_37  and  C7_40 
REMARK       I    between atoms: C2_43  and  N_48 
REMARK       I    between atoms: C3_50  and  O3_53 
REMARK       I    between atoms: O6_54  and  C6_55 
ROOT
ATOM      1  C5  BDP d1197       6.042  11.430  -0.026  0.00  0.00     0.152 C 
ATOM      2  O1  BDP d1197       3.114   9.173   0.155  0.00  0.00    -0.348 OA
ATOM      3  C1  BDP d1197       4.378   9.718   0.584  0.00  0.00     0.160 C 
ATOM      4  O5  BDP d1197       4.719  10.888  -0.170  0.00  0.00    -0.340 OA
ATOM      5  C2  BDP d1197       5.446   8.635   0.422  0.00  0.00     0.110 C 
ATOM      6  O6A BDP d1197       6.499  13.625  -0.808  0.00  0.00    -0.646 OA
ATOM      7  O2  BDP d1197       5.192   7.576   1.356  0.00  0.00    -0.388 OA
ATOM      8  C6  BDP d1197       6.216  12.445  -1.115  0.00  0.00     0.206 C 
ATOM      9  C3  BDP d1197       6.880   9.141   0.599  0.00  0.00     0.092 C 
ATOM     10  O6B BDP d1197       6.080  12.057  -2.296  0.00  0.00    -0.646 OA
ATOM     11  O3  BDP d1197       7.769   8.106   0.160  0.00  0.00    -0.390 OA
ATOM     12  C4  BDP d1197       7.164  10.409  -0.204  0.00  0.00     0.103 C 
ATOM     13  H   BDP d1197       6.115  11.818   0.968  0.00  0.00     0.104 H 
ATOM     14  H   BDP d1197       4.311  10.015   1.610  0.00  0.00     0.133 H 
ATOM     15  H   BDP d1197       5.375   8.289  -0.588  0.00  0.00     0.094 H 
ATOM     16  H   BDP d1197       5.263   7.919   2.260  0.00  0.00     0.210 HD
ATOM     17  H   BDP d1197       7.022   9.383   1.632  0.00  0.00     0.091 H 
ATOM     18  H   BDP d1197       7.608   7.917  -0.778  0.00  0.00     0.210 HD
ATOM     19  H   BDP d1197       7.226  10.139  -1.238  0.00  0.00     0.092 H 
ATOM     20  O1  ASG d1198       8.412  10.997   0.219  0.00  0.00    -0.348 OA
ATOM     21  O7  ASG d1198      10.018  15.371   1.328  0.00  0.00    -0.274 OA
ATOM     22  OSB ASG d1198      14.878  10.336  -0.035  0.00  0.00    -0.572 OA
ATOM     23  C3  ASG d1198      11.794  12.282  -0.969  0.00  0.00     0.094 C 
ATOM     24  C2  ASG d1198      10.564  12.123  -0.062  0.00  0.00     0.087 C 
ATOM     25  S   ASG d1198      13.885   9.360  -0.538  0.00  0.00     0.252 S 
ATOM     26  N   ASG d1198      10.108  13.496   0.133  0.00  0.00    -0.349 N 
ATOM     27  OSA ASG d1198      14.298   8.900  -1.882  0.00  0.00    -0.572 OA
ATOM     28  C4  ASG d1198      12.144  10.958  -1.636  0.00  0.00     0.114 C 
ATOM     29  C5  ASG d1198      10.905  10.437  -2.358  0.00  0.00     0.090 C 
ATOM     30  O4  ASG d1198      12.502  10.034  -0.604  0.00  0.00    -0.246 OA
ATOM     31  C8  ASG d1198      11.250  13.581   2.281  0.00  0.00    -0.003 C 
ATOM     32  C7  ASG d1198      10.415  14.225   1.211  0.00  0.00     0.214 C 
ATOM     33  C1  ASG d1198       9.403  11.376  -0.752  0.00  0.00     0.154 C 
ATOM     34  OSC ASG d1198      13.819   8.204   0.386  0.00  0.00    -0.572 OA
ATOM     35  O6  ASG d1198      12.521   9.267  -3.678  0.00  0.00    -0.398 OA
ATOM     36  C6  ASG d1198      11.196   9.172  -3.157  0.00  0.00     0.043 C 
ATOM     37  O5  ASG d1198       9.872  10.189  -1.399  0.00  0.00    -0.349 OA
ATOM     38  H   ASG d1198      11.532  13.000  -1.718  0.00  0.00     0.091 H 
ATOM     39  H   ASG d1198      10.821  11.576   0.821  0.00  0.00     0.084 H 
ATOM     40  H   ASG d1198       9.547  13.906  -0.564  0.00  0.00     0.163 HD
ATOM     41  H   ASG d1198      12.947  11.079  -2.334  0.00  0.00     0.093 H 
ATOM     42  H   ASG d1198      10.587  11.183  -3.056  0.00  0.00     0.090 H 
ATOM     43  H   ASG d1198      11.413  14.279   3.074  0.00  0.00     0.040 H 
ATOM     44  H   ASG d1198      12.191  13.284   1.868  0.00  0.00     0.040 H 
ATOM     45  H   ASG d1198      10.740  12.721   2.662  0.00  0.00     0.040 H 
ATOM     46  H   ASG d1198       8.978  12.036  -1.478  0.00  0.00     0.132 H 
ATOM     47  H   ASG d1198      12.725   8.470  -4.192  0.00  0.00     0.209 HD
ATOM     48  H   ASG d1198      10.496   9.085  -3.962  0.00  0.00     0.078 H 
ATOM     49  H   ASG d1198      11.107   8.311  -2.529  0.00  0.00     0.078 H 
ATOM     50  S   ASG d1196       1.754   8.979  -3.356  0.00  0.00     0.252 S 
ATOM     51  OSB ASG d1196       1.794   7.499  -3.386  0.00  0.00    -0.572 OA
ATOM     52  C7  ASG d1196       0.571   7.648   2.363  0.00  0.00     0.214 C 
ATOM     53  C6  ASG d1196       0.232  12.147  -2.563  0.00  0.00     0.043 C 
ATOM     54  C8  ASG d1196       0.233   6.656   1.291  0.00  0.00    -0.003 C 
ATOM     55  O6  ASG d1196      -1.109  12.649  -2.569  0.00  0.00    -0.398 OA
ATOM     56  C1  ASG d1196      -0.510  10.275   0.537  0.00  0.00     0.151 C 
ATOM     57  O4  ASG d1196       1.238   9.407  -1.974  0.00  0.00    -0.246 OA
ATOM     58  C4  ASG d1196       1.701  10.550  -1.241  0.00  0.00     0.114 C 
ATOM     59  C3  ASG d1196       1.947  10.011   0.163  0.00  0.00     0.094 C 
ATOM     60  C5  ASG d1196       0.503  11.496  -1.213  0.00  0.00     0.090 C 
ATOM     61  OSA ASG d1196       3.116   9.510  -3.601  0.00  0.00    -0.572 OA
ATOM     62  OSC ASG d1196       0.808   9.449  -4.398  0.00  0.00    -0.572 OA
ATOM     63  C2  ASG d1196       0.661   9.289   0.568  0.00  0.00     0.087 C 
ATOM     64  O5  ASG d1196      -0.660  10.781  -0.787  0.00  0.00    -0.349 OA
ATOM     65  O1  ASG d1196      -1.720   9.599   0.893  0.00  0.00    -0.369 OA
ATOM     66  N   ASG d1196       0.779   8.906   1.970  0.00  0.00    -0.349 N 
ATOM     67  O7  ASG d1196       0.659   7.315   3.533  0.00  0.00    -0.274 OA
ATOM     68  H   ASG d1196       0.349  11.423  -3.342  0.00  0.00     0.078 H 
ATOM     69  H   ASG d1196       0.923  12.948  -2.726  0.00  0.00     0.078 H 
ATOM     70  H   ASG d1196       0.206   7.150   0.343  0.00  0.00     0.040 H 
ATOM     71  H   ASG d1196      -0.724   6.224   1.495  0.00  0.00     0.040 H 
ATOM     72  H   ASG d1196       0.974   5.885   1.271  0.00  0.00     0.040 H 
ATOM     73  H   ASG d1196      -1.728  11.917  -2.421  0.00  0.00     0.209 HD
ATOM     74  H   ASG d1196      -0.315  11.070   1.225  0.00  0.00     0.132 H 
ATOM     75  H   ASG d1196       2.570  11.037  -1.633  0.00  0.00     0.093 H 
ATOM     76  H   ASG d1196       2.154  10.774   0.884  0.00  0.00     0.091 H 
ATOM     77  H   ASG d1196       0.737  12.281  -0.525  0.00  0.00     0.090 H 
ATOM     78  H   ASG d1196       0.508   8.460  -0.089  0.00  0.00     0.084 H 
ATOM     79  H   ASG d1196      -1.887   8.880   0.264  0.00  0.00     0.212 HD
ATOM     80  H   ASG d1196       1.017   9.587   2.640  0.00  0.00     0.163 HD
ATOM     81  O3  BDP d1199      16.779  15.797   0.007  0.00  0.00    -0.393 OA
ATOM     82  O1  BDP d1199      12.937  12.797  -0.265  0.00  0.00    -0.348 OA
ATOM     83  O6A BDP d1199      14.381  14.023  -5.182  0.00  0.00    -0.646 OA
ATOM     84  C4  BDP d1199      16.000  14.944  -2.105  0.00  0.00    -0.005 C 
ATOM     85  O5  BDP d1199      13.930  13.624  -2.179  0.00  0.00    -0.343 OA
ATOM     86  C1  BDP d1199      13.570  13.954  -0.831  0.00  0.00     0.159 C 
ATOM     87  C5  BDP d1199      14.761  14.543  -2.898  0.00  0.00     0.127 C 
ATOM     88  C2  BDP d1199      14.775  14.410  -0.003  0.00  0.00     0.107 C 
ATOM     89  C3  BDP d1199      15.599  15.466  -0.735  0.00  0.00     0.068 C 
ATOM     90  C6  BDP d1199      15.154  13.911  -4.204  0.00  0.00     0.203 C 
ATOM     91  O2  BDP d1199      14.313  14.955   1.236  0.00  0.00    -0.388 OA
ATOM     92  O6B BDP d1199      16.231  13.278  -4.268  0.00  0.00    -0.646 OA
ATOM     93  H   BDP d1199      17.286  16.468  -0.476  0.00  0.00     0.210 HD
ATOM     94  H   BDP d1199      16.635  14.090  -1.986  0.00  0.00     0.041 H 
ATOM     95  H   BDP d1199      16.519  15.714  -2.635  0.00  0.00     0.041 H 
ATOM     96  H   BDP d1199      12.896  14.786  -0.825  0.00  0.00     0.133 H 
ATOM     97  H   BDP d1199      14.204  15.441  -3.070  0.00  0.00     0.100 H 
ATOM     98  H   BDP d1199      15.401  13.558   0.166  0.00  0.00     0.094 H 
ATOM     99  H   BDP d1199      14.999  16.347  -0.839  0.00  0.00     0.087 H 
ATOM    100  H   BDP d1199      13.750  15.725   1.060  0.00  0.00     0.210 HD
ENDROOT
TORSDOF 25
ENDMDL
MODEL 11
REMARK VINA RESULT:      -4.9      1.839      2.098
REMARK  0 active torsions:
REMARK  status: ('A' for Active; 'I' for Inactive)
REMARK       I    between atoms: C5_1  and  C6_46 
REMARK       I    between atoms: O1_2  and  C4_60 
REMARK       I    between atoms: O1_2  and  C1_47 
REMARK       I    between atoms: S_3  and  O4_24 
REMARK       I    between atoms: C7_6  and  C8_11 
REMARK       I    between atoms: C7_6  and  N_48 
REMARK       I    between atoms: O3_7  and  C3_41 
REMARK       I    between atoms: O1_9  and  C3_31 
REMARK       I    between atoms: O1_9  and  C1_19 
REMARK       I    between atoms: C6_10  and  C5_34 
REMARK       I    between atoms: C6_10  and  O6_12 
REMARK       I    between atoms: C3_13  and  O1_16 
REMARK       I    between atoms: C2_14  and  N_20 
REMARK       I    between atoms: C1_15  and  O1_45 
REMARK       I    between atoms: O1_16  and  C1_29 
REMARK       I    between atoms: S_17  and  O4_30 
REMARK       I    between atoms: N_20  and  C7_40 
REMARK       I    between atoms: C4_22  and  O4_30 
REMARK       I    between atoms: O4_24  and  C4_28 
REMARK       I    between atoms: C5_25  and  C6_55 
REMARK       I    between atoms: C2_32  and  O2_39 
REMARK       I    between atoms: C5_33  and  C6_51 
REMARK       I    between atoms: C2_36  and  O2_56 
REMARK       I    between atoms: C8_37  and  C7_40 
REMARK       I    between atoms: C2_43  and  N_48 
REMARK       I    between atoms: C3_50  and  O3_53 
REMARK       I    between atoms: O6_54  and  C6_55 
ROOT
ATOM      1  C5  BDP d1197       5.322   9.179  -2.277  0.00  0.00     0.152 C 
ATOM      2  O1  BDP d1197       8.280   9.313  -0.057  0.00  0.00    -0.348 OA
ATOM      3  C1  BDP d1197       6.925   8.979  -0.416  0.00  0.00     0.160 C 
ATOM      4  O5  BDP d1197       6.677   9.248  -1.802  0.00  0.00    -0.340 OA
ATOM      5  C2  BDP d1197       5.980   9.788   0.473  0.00  0.00     0.110 C 
ATOM      6  O6A BDP d1197       4.904   9.082  -4.612  0.00  0.00    -0.646 OA
ATOM      7  O2  BDP d1197       6.099   9.333   1.829  0.00  0.00    -0.388 OA
ATOM      8  C6  BDP d1197       5.315   9.773  -3.654  0.00  0.00     0.206 C 
ATOM      9  C3  BDP d1197       4.512   9.729   0.042  0.00  0.00     0.092 C 
ATOM     10  O6B BDP d1197       5.713  10.952  -3.778  0.00  0.00    -0.646 OA
ATOM     11  O3  BDP d1197       3.796  10.728   0.780  0.00  0.00    -0.390 OA
ATOM     12  C4  BDP d1197       4.324   9.989  -1.452  0.00  0.00     0.103 C 
ATOM     13  H   BDP d1197       5.023   8.153  -2.227  0.00  0.00     0.104 H 
ATOM     14  H   BDP d1197       6.761   7.932  -0.265  0.00  0.00     0.133 H 
ATOM     15  H   BDP d1197       6.277  10.812   0.378  0.00  0.00     0.094 H 
ATOM     16  H   BDP d1197       5.824   8.405   1.883  0.00  0.00     0.210 HD
ATOM     17  H   BDP d1197       4.147   8.742   0.239  0.00  0.00     0.091 H 
ATOM     18  H   BDP d1197       4.157  11.604   0.573  0.00  0.00     0.210 HD
ATOM     19  H   BDP d1197       4.492  11.031  -1.630  0.00  0.00     0.092 H 
ATOM     20  O1  ASG d1198       2.982   9.639  -1.853  0.00  0.00    -0.348 OA
ATOM     21  O7  ASG d1198       0.924   7.220  -5.437  0.00  0.00    -0.274 OA
ATOM     22  OSB ASG d1198      -3.242  11.502  -1.547  0.00  0.00    -0.572 OA
ATOM     23  C3  ASG d1198      -0.155  10.891  -3.612  0.00  0.00     0.094 C 
ATOM     24  C2  ASG d1198       0.871   9.888  -3.059  0.00  0.00     0.087 C 
ATOM     25  S   ASG d1198      -2.111  12.135  -0.833  0.00  0.00     0.252 S 
ATOM     26  N   ASG d1198       1.193   9.062  -4.218  0.00  0.00    -0.349 N 
ATOM     27  OSA ASG d1198      -2.211  13.605  -0.975  0.00  0.00    -0.572 OA
ATOM     28  C4  ASG d1198      -0.280  12.095  -2.688  0.00  0.00     0.114 C 
ATOM     29  C5  ASG d1198       1.110  12.686  -2.470  0.00  0.00     0.090 C 
ATOM     30  O4  ASG d1198      -0.786  11.627  -1.434  0.00  0.00    -0.246 OA
ATOM     31  C8  ASG d1198      -0.368   7.359  -3.452  0.00  0.00    -0.003 C 
ATOM     32  C7  ASG d1198       0.629   7.873  -4.452  0.00  0.00     0.214 C 
ATOM     33  C1  ASG d1198       2.191  10.559  -2.625  0.00  0.00     0.154 C 
ATOM     34  OSC ASG d1198      -2.166  11.768   0.601  0.00  0.00    -0.572 OA
ATOM     35  O6  ASG d1198      -0.128  14.676  -1.991  0.00  0.00    -0.398 OA
ATOM     36  C6  ASG d1198       1.066  13.971  -1.652  0.00  0.00     0.043 C 
ATOM     37  O5  ASG d1198       1.937  11.715  -1.821  0.00  0.00    -0.349 OA
ATOM     38  H   ASG d1198       0.212  11.210  -4.565  0.00  0.00     0.091 H 
ATOM     39  H   ASG d1198       0.471   9.379  -2.207  0.00  0.00     0.084 H 
ATOM     40  H   ASG d1198       1.860   9.397  -4.860  0.00  0.00     0.163 HD
ATOM     41  H   ASG d1198      -0.928  12.837  -3.107  0.00  0.00     0.093 H 
ATOM     42  H   ASG d1198       1.519  12.937  -3.426  0.00  0.00     0.090 H 
ATOM     43  H   ASG d1198      -0.732   6.405  -3.769  0.00  0.00     0.040 H 
ATOM     44  H   ASG d1198      -1.185   8.046  -3.378  0.00  0.00     0.040 H 
ATOM     45  H   ASG d1198       0.103   7.261  -2.496  0.00  0.00     0.040 H 
ATOM     46  H   ASG d1198       2.715  10.847  -3.511  0.00  0.00     0.132 H 
ATOM     47  H   ASG d1198      -0.174  15.500  -1.480  0.00  0.00     0.209 HD
ATOM     48  H   ASG d1198       1.919  14.574  -1.880  0.00  0.00     0.078 H 
ATOM     49  H   ASG d1198       1.075  13.743  -0.606  0.00  0.00     0.078 H 
ATOM     50  S   ASG d1196      10.341  12.227  -1.274  0.00  0.00     0.252 S 
ATOM     51  OSB ASG d1196      10.397  12.861   0.063  0.00  0.00    -0.572 OA
ATOM     52  C7  ASG d1196      10.402   7.430   2.313  0.00  0.00     0.214 C 
ATOM     53  C6  ASG d1196      11.475   9.915  -3.794  0.00  0.00     0.043 C 
ATOM     54  C8  ASG d1196      11.012   8.713   2.790  0.00  0.00    -0.003 C 
ATOM     55  O6  ASG d1196      12.756   9.433  -4.214  0.00  0.00    -0.398 OA
ATOM     56  C1  ASG d1196      11.676   7.760  -0.797  0.00  0.00     0.151 C 
ATOM     57  O4  ASG d1196      10.536  10.714  -1.084  0.00  0.00    -0.246 OA
ATOM     58  C4  ASG d1196       9.864   9.697  -1.841  0.00  0.00     0.114 C 
ATOM     59  C3  ASG d1196       9.368   8.720  -0.782  0.00  0.00     0.094 C 
ATOM     60  C5  ASG d1196      10.973   9.036  -2.656  0.00  0.00     0.090 C 
ATOM     61  OSA ASG d1196       9.029  12.517  -1.899  0.00  0.00    -0.572 OA
ATOM     62  OSC ASG d1196      11.451  12.762  -2.100  0.00  0.00    -0.572 OA
ATOM     63  C2  ASG d1196      10.584   8.379   0.080  0.00  0.00     0.087 C 
ATOM     64  O5  ASG d1196      12.064   8.701  -1.795  0.00  0.00    -0.349 OA
ATOM     65  O1  ASG d1196      12.825   7.461   0.001  0.00  0.00    -0.369 OA
ATOM     66  N   ASG d1196      10.204   7.313   0.999  0.00  0.00    -0.349 N 
ATOM     67  O7  ASG d1196      10.096   6.543   3.093  0.00  0.00    -0.274 OA
ATOM     68  H   ASG d1196      11.564  10.926  -3.455  0.00  0.00     0.078 H 
ATOM     69  H   ASG d1196      10.786   9.881  -4.611  0.00  0.00     0.078 H 
ATOM     70  H   ASG d1196      11.203   9.351   1.952  0.00  0.00     0.040 H 
ATOM     71  H   ASG d1196      11.931   8.505   3.296  0.00  0.00     0.040 H 
ATOM     72  H   ASG d1196      10.338   9.201   3.463  0.00  0.00     0.040 H 
ATOM     73  H   ASG d1196      13.375   9.466  -3.467  0.00  0.00     0.209 HD
ATOM     74  H   ASG d1196      11.296   6.867  -1.247  0.00  0.00     0.132 H 
ATOM     75  H   ASG d1196       9.067  10.033  -2.471  0.00  0.00     0.093 H 
ATOM     76  H   ASG d1196       8.972   7.813  -1.190  0.00  0.00     0.091 H 
ATOM     77  H   ASG d1196      10.555   8.155  -3.098  0.00  0.00     0.090 H 
ATOM     78  H   ASG d1196      10.919   9.268   0.572  0.00  0.00     0.084 H 
ATOM     79  H   ASG d1196      13.161   8.277   0.404  0.00  0.00     0.212 HD
ATOM     80  H   ASG d1196       9.793   6.492   0.644  0.00  0.00     0.163 HD
ATOM     81  O3  BDP d1199      -5.436   9.654  -6.569  0.00  0.00    -0.393 OA
ATOM     82  O1  BDP d1199      -1.447  10.299  -3.828  0.00  0.00    -0.348 OA
ATOM     83  O6A BDP d1199      -1.921  14.479  -7.000  0.00  0.00    -0.646 OA
ATOM     84  C4  BDP d1199      -4.189  11.713  -6.630  0.00  0.00    -0.005 C 
ATOM     85  O5  BDP d1199      -2.073  11.875  -5.394  0.00  0.00    -0.343 OA
ATOM     86  C1  BDP d1199      -2.018  10.466  -5.134  0.00  0.00     0.159 C 
ATOM     87  C5  BDP d1199      -2.792  12.318  -6.551  0.00  0.00     0.127 C 
ATOM     88  C2  BDP d1199      -3.392   9.800  -5.247  0.00  0.00     0.107 C 
ATOM     89  C3  BDP d1199      -4.110  10.197  -6.535  0.00  0.00     0.068 C 
ATOM     90  C6  BDP d1199      -2.870  13.819  -6.520  0.00  0.00     0.203 C 
ATOM     91  O2  BDP d1199      -3.229   8.380  -5.225  0.00  0.00    -0.388 OA
ATOM     92  O6B BDP d1199      -3.871  14.360  -6.002  0.00  0.00    -0.646 OA
ATOM     93  H   BDP d1199      -5.872   9.918  -7.393  0.00  0.00     0.210 HD
ATOM     94  H   BDP d1199      -4.783  12.087  -5.822  0.00  0.00     0.041 H 
ATOM     95  H   BDP d1199      -4.634  11.982  -7.565  0.00  0.00     0.041 H 
ATOM     96  H   BDP d1199      -1.411   9.981  -5.870  0.00  0.00     0.133 H 
ATOM     97  H   BDP d1199      -2.267  11.989  -7.424  0.00  0.00     0.100 H 
ATOM     98  H   BDP d1199      -3.987  10.128  -4.420  0.00  0.00     0.094 H 
ATOM     99  H   BDP d1199      -3.555   9.806  -7.362  0.00  0.00     0.087 H 
ATOM    100  H   BDP d1199      -2.688   8.105  -5.981  0.00  0.00     0.210 HD
ENDROOT
TORSDOF 25
ENDMDL
MODEL 12
REMARK VINA RESULT:      -4.8      3.660     13.160
REMARK  0 active torsions:
REMARK  status: ('A' for Active; 'I' for Inactive)
REMARK       I    between atoms: C5_1  and  C6_46 
REMARK       I    between atoms: O1_2  and  C4_60 
REMARK       I    between atoms: O1_2  and  C1_47 
REMARK       I    between atoms: S_3  and  O4_24 
REMARK       I    between atoms: C7_6  and  C8_11 
REMARK       I    between atoms: C7_6  and  N_48 
REMARK       I    between atoms: O3_7  and  C3_41 
REMARK       I    between atoms: O1_9  and  C3_31 
REMARK       I    between atoms: O1_9  and  C1_19 
REMARK       I    between atoms: C6_10  and  C5_34 
REMARK       I    between atoms: C6_10  and  O6_12 
REMARK       I    between atoms: C3_13  and  O1_16 
REMARK       I    between atoms: C2_14  and  N_20 
REMARK       I    between atoms: C1_15  and  O1_45 
REMARK       I    between atoms: O1_16  and  C1_29 
REMARK       I    between atoms: S_17  and  O4_30 
REMARK       I    between atoms: N_20  and  C7_40 
REMARK       I    between atoms: C4_22  and  O4_30 
REMARK       I    between atoms: O4_24  and  C4_28 
REMARK       I    between atoms: C5_25  and  C6_55 
REMARK       I    between atoms: C2_32  and  O2_39 
REMARK       I    between atoms: C5_33  and  C6_51 
REMARK       I    between atoms: C2_36  and  O2_56 
REMARK       I    between atoms: C8_37  and  C7_40 
REMARK       I    between atoms: C2_43  and  N_48 
REMARK       I    between atoms: C3_50  and  O3_53 
REMARK       I    between atoms: O6_54  and  C6_55 
ROOT
ATOM      1  C5  BDP d1197       6.832  10.677   1.677  0.00  0.00     0.152 C 
ATOM      2  O1  BDP d1197       3.663   8.773   1.494  0.00  0.00    -0.348 OA
ATOM      3  C1  BDP d1197       4.979   9.083   1.995  0.00  0.00     0.160 C 
ATOM      4  O5  BDP d1197       5.456  10.324   1.458  0.00  0.00    -0.340 OA
ATOM      5  C2  BDP d1197       5.916   7.933   1.625  0.00  0.00     0.110 C 
ATOM      6  O6A BDP d1197       7.543  12.909   1.295  0.00  0.00    -0.646 OA
ATOM      7  O2  BDP d1197       5.537   6.759   2.357  0.00  0.00    -0.388 OA
ATOM      8  C6  BDP d1197       7.128  11.845   0.785  0.00  0.00     0.206 C 
ATOM      9  C3  BDP d1197       7.398   8.232   1.869  0.00  0.00     0.092 C 
ATOM     10  O6B BDP d1197       6.955  11.693  -0.444  0.00  0.00    -0.646 OA
ATOM     11  O3  BDP d1197       8.165   7.198   1.237  0.00  0.00    -0.390 OA
ATOM     12  C4  BDP d1197       7.830   9.583   1.302  0.00  0.00     0.103 C 
ATOM     13  H   BDP d1197       6.944  10.869   2.724  0.00  0.00     0.104 H 
ATOM     14  H   BDP d1197       4.941   9.197   3.058  0.00  0.00     0.133 H 
ATOM     15  H   BDP d1197       5.812   7.785   0.571  0.00  0.00     0.094 H 
ATOM     16  H   BDP d1197       5.642   6.923   3.308  0.00  0.00     0.210 HD
ATOM     17  H   BDP d1197       7.561   8.266   2.926  0.00  0.00     0.091 H 
ATOM     18  H   BDP d1197       7.989   7.201   0.283  0.00  0.00     0.210 HD
ATOM     19  H   BDP d1197       7.867   9.498   0.236  0.00  0.00     0.092 H 
ATOM     20  O1  ASG d1198       9.136   9.939   1.805  0.00  0.00    -0.348 OA
ATOM     21  O7  ASG d1198      11.227  13.829   3.655  0.00  0.00    -0.274 OA
ATOM     22  OSB ASG d1198      15.483   8.601   1.338  0.00  0.00    -0.572 OA
ATOM     23  C3  ASG d1198      12.649  11.022   0.815  0.00  0.00     0.094 C 
ATOM     24  C2  ASG d1198      11.404  10.844   1.698  0.00  0.00     0.087 C 
ATOM     25  S   ASG d1198      14.388   7.852   0.683  0.00  0.00     0.252 S 
ATOM     26  N   ASG d1198      11.108  12.202   2.143  0.00  0.00    -0.349 N 
ATOM     27  OSA ASG d1198      14.753   7.597  -0.728  0.00  0.00    -0.572 OA
ATOM     28  C4  ASG d1198      12.848   9.809  -0.084  0.00  0.00     0.114 C 
ATOM     29  C5  ASG d1198      11.562   9.571  -0.869  0.00  0.00     0.090 C 
ATOM     30  O4  ASG d1198      13.092   8.680   0.761  0.00  0.00    -0.246 OA
ATOM     31  C8  ASG d1198      12.239  11.769   4.253  0.00  0.00    -0.003 C 
ATOM     32  C7  ASG d1198      11.490  12.686   3.329  0.00  0.00     0.214 C 
ATOM     33  C1  ASG d1198      10.169  10.371   0.903  0.00  0.00     0.154 C 
ATOM     34  OSC ASG d1198      14.184   6.564   1.385  0.00  0.00    -0.572 OA
ATOM     35  O6  ASG d1198      13.040   8.482  -2.402  0.00  0.00    -0.398 OA
ATOM     36  C6  ASG d1198      11.710   8.447  -1.886  0.00  0.00     0.043 C 
ATOM     37  O5  ASG d1198      10.502   9.274   0.046  0.00  0.00    -0.349 OA
ATOM     38  H   ASG d1198      12.476  11.888   0.211  0.00  0.00     0.091 H 
ATOM     39  H   ASG d1198      11.591  10.122   2.464  0.00  0.00     0.084 H 
ATOM     40  H   ASG d1198      10.602  12.792   1.539  0.00  0.00     0.163 HD
ATOM     41  H   ASG d1198      13.664   9.961  -0.761  0.00  0.00     0.093 H 
ATOM     42  H   ASG d1198      11.336  10.462  -1.417  0.00  0.00     0.090 H 
ATOM     43  H   ASG d1198      12.477  12.290   5.156  0.00  0.00     0.040 H 
ATOM     44  H   ASG d1198      13.143  11.445   3.779  0.00  0.00     0.040 H 
ATOM     45  H   ASG d1198      11.632  10.918   4.481  0.00  0.00     0.040 H 
ATOM     46  H   ASG d1198       9.827  11.195   0.313  0.00  0.00     0.132 H 
ATOM     47  H   ASG d1198      13.154   7.772  -3.053  0.00  0.00     0.209 HD
ATOM     48  H   ASG d1198      11.010   8.585  -2.683  0.00  0.00     0.078 H 
ATOM     49  H   ASG d1198      11.520   7.501  -1.422  0.00  0.00     0.078 H 
ATOM     50  S   ASG d1196       2.310   9.370  -1.974  0.00  0.00     0.252 S 
ATOM     51  OSB ASG d1196       2.180   7.925  -2.269  0.00  0.00    -0.572 OA
ATOM     52  C7  ASG d1196       0.950   7.176   3.431  0.00  0.00     0.214 C 
ATOM     53  C6  ASG d1196       1.158  12.496  -0.602  0.00  0.00     0.043 C 
ATOM     54  C8  ASG d1196       0.505   6.438   2.204  0.00  0.00    -0.003 C 
ATOM     55  O6  ASG d1196      -0.117  13.141  -0.498  0.00  0.00    -0.398 OA
ATOM     56  C1  ASG d1196       0.188  10.194   2.122  0.00  0.00     0.151 C 
ATOM     57  O4  ASG d1196       1.839   9.599  -0.529  0.00  0.00    -0.246 OA
ATOM     58  C4  ASG d1196       2.426  10.530   0.390  0.00  0.00     0.114 C 
ATOM     59  C3  ASG d1196       2.600   9.723   1.670  0.00  0.00     0.094 C 
ATOM     60  C5  ASG d1196       1.344  11.586   0.605  0.00  0.00     0.090 C 
ATOM     61  OSA ASG d1196       3.725   9.777  -2.140  0.00  0.00    -0.572 OA
ATOM     62  OSC ASG d1196       1.430  10.125  -2.899  0.00  0.00    -0.572 OA
ATOM     63  C2  ASG d1196       1.238   9.092   1.959  0.00  0.00     0.087 C 
ATOM     64  O5  ASG d1196       0.105  10.944   0.913  0.00  0.00    -0.349 OA
ATOM     65  O1  ASG d1196      -1.094   9.607   2.370  0.00  0.00    -0.369 OA
ATOM     66  N   ASG d1196       1.303   8.451   3.267  0.00  0.00    -0.349 N 
ATOM     67  O7  ASG d1196       0.992   6.629   4.521  0.00  0.00    -0.274 OA
ATOM     68  H   ASG d1196       1.195  11.916  -1.500  0.00  0.00     0.078 H 
ATOM     69  H   ASG d1196       1.936  13.229  -0.629  0.00  0.00     0.078 H 
ATOM     70  H   ASG d1196       0.541   7.094   1.360  0.00  0.00     0.040 H 
ATOM     71  H   ASG d1196      -0.496   6.088   2.341  0.00  0.00     0.040 H 
ATOM     72  H   ASG d1196       1.153   5.603   2.035  0.00  0.00     0.040 H 
ATOM     73  H   ASG d1196      -0.817  12.470  -0.474  0.00  0.00     0.209 HD
ATOM     74  H   ASG d1196       0.469  10.825   2.939  0.00  0.00     0.132 H 
ATOM     75  H   ASG d1196       3.347  10.978   0.078  0.00  0.00     0.093 H 
ATOM     76  H   ASG d1196       2.889  10.315   2.514  0.00  0.00     0.091 H 
ATOM     77  H   ASG d1196       1.663  12.203   1.419  0.00  0.00     0.090 H 
ATOM     78  H   ASG d1196       0.994   8.417   1.165  0.00  0.00     0.084 H 
ATOM     79  H   ASG d1196      -1.339   9.038   1.624  0.00  0.00     0.212 HD
ATOM     80  H   ASG d1196       1.614   8.969   4.044  0.00  0.00     0.163 HD
ATOM     81  O3  BDP d1199      18.000  13.713   2.330  0.00  0.00    -0.393 OA
ATOM     82  O1  BDP d1199      13.840  11.268   1.582  0.00  0.00    -0.348 OA
ATOM     83  O6A BDP d1199      15.443  13.187  -3.056  0.00  0.00    -0.646 OA
ATOM     84  C4  BDP d1199      17.139  13.348   0.112  0.00  0.00    -0.005 C 
ATOM     85  O5  BDP d1199      14.932  12.307  -0.167  0.00  0.00    -0.343 OA
ATOM     86  C1  BDP d1199      14.604  12.429   1.224  0.00  0.00     0.159 C 
ATOM     87  C5  BDP d1199      15.867  13.240  -0.722  0.00  0.00     0.127 C 
ATOM     88  C2  BDP d1199      15.849  12.587   2.102  0.00  0.00     0.107 C 
ATOM     89  C3  BDP d1199      16.793  13.658   1.559  0.00  0.00     0.068 C 
ATOM     90  C6  BDP d1199      16.193  12.813  -2.126  0.00  0.00     0.203 C 
ATOM     91  O2  BDP d1199      15.447  12.950   3.426  0.00  0.00    -0.388 OA
ATOM     92  O6B BDP d1199      17.190  12.084  -2.318  0.00  0.00    -0.646 OA
ATOM     93  H   BDP d1199      18.583  14.398   1.968  0.00  0.00     0.210 HD
ATOM     94  H   BDP d1199      17.672  12.420   0.066  0.00  0.00     0.041 H 
ATOM     95  H   BDP d1199      17.747  14.137  -0.279  0.00  0.00     0.041 H 
ATOM     96  H   BDP d1199      14.031  13.317   1.389  0.00  0.00     0.133 H 
ATOM     97  H   BDP d1199      15.418  14.212  -0.722  0.00  0.00     0.100 H 
ATOM     98  H   BDP d1199      16.372  11.654   2.106  0.00  0.00     0.094 H 
ATOM     99  H   BDP d1199      16.299  14.605   1.624  0.00  0.00     0.087 H 
ATOM    100  H   BDP d1199      14.976  13.798   3.399  0.00  0.00     0.210 HD
ENDROOT
TORSDOF 25
ENDMDL
MODEL 13
REMARK VINA RESULT:      -4.8      2.184     12.411
REMARK  0 active torsions:
REMARK  status: ('A' for Active; 'I' for Inactive)
REMARK       I    between atoms: C5_1  and  C6_46 
REMARK       I    between atoms: O1_2  and  C4_60 
REMARK       I    between atoms: O1_2  and  C1_47 
REMARK       I    between atoms: S_3  and  O4_24 
REMARK       I    between atoms: C7_6  and  C8_11 
REMARK       I    between atoms: C7_6  and  N_48 
REMARK       I    between atoms: O3_7  and  C3_41 
REMARK       I    between atoms: O1_9  and  C3_31 
REMARK       I    between atoms: O1_9  and  C1_19 
REMARK       I    between atoms: C6_10  and  C5_34 
REMARK       I    between atoms: C6_10  and  O6_12 
REMARK       I    between atoms: C3_13  and  O1_16 
REMARK       I    between atoms: C2_14  and  N_20 
REMARK       I    between atoms: C1_15  and  O1_45 
REMARK       I    between atoms: O1_16  and  C1_29 
REMARK       I    between atoms: S_17  and  O4_30 
REMARK       I    between atoms: N_20  and  C7_40 
REMARK       I    between atoms: C4_22  and  O4_30 
REMARK       I    between atoms: O4_24  and  C4_28 
REMARK       I    between atoms: C5_25  and  C6_55 
REMARK       I    between atoms: C2_32  and  O2_39 
REMARK       I    between atoms: C5_33  and  C6_51 
REMARK       I    between atoms: C2_36  and  O2_56 
REMARK       I    between atoms: C8_37  and  C7_40 
REMARK       I    between atoms: C2_43  and  N_48 
REMARK       I    between atoms: C3_50  and  O3_53 
REMARK       I    between atoms: O6_54  and  C6_55 
ROOT
ATOM      1  C5  BDP d1197       4.087   9.276  -0.264  0.00  0.00     0.152 C 
ATOM      2  O1  BDP d1197       0.623   9.565  -1.535  0.00  0.00    -0.348 OA
ATOM      3  C1  BDP d1197       1.968   9.048  -1.501  0.00  0.00     0.160 C 
ATOM      4  O5  BDP d1197       2.672   9.515  -0.343  0.00  0.00    -0.340 OA
ATOM      5  C2  BDP d1197       2.681   9.481  -2.783  0.00  0.00     0.110 C 
ATOM      6  O6A BDP d1197       5.203   9.534   1.816  0.00  0.00    -0.646 OA
ATOM      7  O2  BDP d1197       2.083   8.815  -3.904  0.00  0.00    -0.388 OA
ATOM      8  C6  BDP d1197       4.603  10.102   0.876  0.00  0.00     0.206 C 
ATOM      9  C3  BDP d1197       4.189   9.220  -2.778  0.00  0.00     0.092 C 
ATOM     10  O6B BDP d1197       4.419  11.337   0.827  0.00  0.00    -0.646 OA
ATOM     11  O3  BDP d1197       4.758   9.908  -3.900  0.00  0.00    -0.390 OA
ATOM     12  C4  BDP d1197       4.870   9.711  -1.501  0.00  0.00     0.103 C 
ATOM     13  H   BDP d1197       4.221   8.221  -0.153  0.00  0.00     0.104 H 
ATOM     14  H   BDP d1197       1.941   7.980  -1.441  0.00  0.00     0.133 H 
ATOM     15  H   BDP d1197       2.562  10.542  -2.852  0.00  0.00     0.094 H 
ATOM     16  H   BDP d1197       2.207   7.857  -3.815  0.00  0.00     0.210 HD
ATOM     17  H   BDP d1197       4.344   8.163  -2.831  0.00  0.00     0.091 H 
ATOM     18  H   BDP d1197       4.596  10.861  -3.812  0.00  0.00     0.210 HD
ATOM     19  H   BDP d1197       4.901  10.781  -1.533  0.00  0.00     0.092 H 
ATOM     20  O1  ASG d1198       6.213   9.189  -1.421  0.00  0.00    -0.348 OA
ATOM     21  O7  ASG d1198       8.968   7.125   1.908  0.00  0.00    -0.274 OA
ATOM     22  OSB ASG d1198      12.209   9.727  -3.884  0.00  0.00    -0.572 OA
ATOM     23  C3  ASG d1198       9.877  10.115  -0.955  0.00  0.00     0.094 C 
ATOM     24  C2  ASG d1198       8.611   9.245  -0.947  0.00  0.00     0.087 C 
ATOM     25  S   ASG d1198      11.001  10.422  -4.381  0.00  0.00     0.252 S 
ATOM     26  N   ASG d1198       8.566   8.725   0.416  0.00  0.00    -0.349 N 
ATOM     27  OSA ASG d1198      11.328  11.846  -4.622  0.00  0.00    -0.572 OA
ATOM     28  C4  ASG d1198       9.858  11.081  -2.133  0.00  0.00     0.114 C 
ATOM     29  C5  ASG d1198       8.558  11.878  -2.086  0.00  0.00     0.090 C 
ATOM     30  O4  ASG d1198       9.879  10.300  -3.332  0.00  0.00    -0.246 OA
ATOM     31  C8  ASG d1198       9.576   6.642  -0.334  0.00  0.00    -0.003 C 
ATOM     32  C7  ASG d1198       9.019   7.514   0.755  0.00  0.00     0.214 C 
ATOM     33  C1  ASG d1198       7.318  10.065  -1.140  0.00  0.00     0.154 C 
ATOM     34  OSC ASG d1198      10.555   9.793  -5.645  0.00  0.00    -0.572 OA
ATOM     35  O6  ASG d1198       9.826  13.469  -3.345  0.00  0.00    -0.398 OA
ATOM     36  C6  ASG d1198       8.507  12.956  -3.161  0.00  0.00     0.043 C 
ATOM     37  O5  ASG d1198       7.452  10.981  -2.231  0.00  0.00    -0.349 OA
ATOM     38  H   ASG d1198       9.873  10.670  -0.040  0.00  0.00     0.091 H 
ATOM     39  H   ASG d1198       8.653   8.520  -1.733  0.00  0.00     0.084 H 
ATOM     40  H   ASG d1198       8.184   9.295   1.122  0.00  0.00     0.163 HD
ATOM     41  H   ASG d1198      10.695  11.748  -2.098  0.00  0.00     0.093 H 
ATOM     42  H   ASG d1198       8.506  12.376  -1.140  0.00  0.00     0.090 H 
ATOM     43  H   ASG d1198       9.896   5.711   0.084  0.00  0.00     0.040 H 
ATOM     44  H   ASG d1198      10.409   7.132  -0.793  0.00  0.00     0.040 H 
ATOM     45  H   ASG d1198       8.819   6.461  -1.069  0.00  0.00     0.040 H 
ATOM     46  H   ASG d1198       7.141  10.609  -0.236  0.00  0.00     0.132 H 
ATOM     47  H   ASG d1198       9.813  14.158  -4.027  0.00  0.00     0.209 HD
ATOM     48  H   ASG d1198       7.852  13.745  -2.852  0.00  0.00     0.078 H 
ATOM     49  H   ASG d1198       8.140  12.545  -4.079  0.00  0.00     0.078 H 
ATOM     50  S   ASG d1196      -0.559  12.996  -0.509  0.00  0.00     0.252 S 
ATOM     51  OSB ASG d1196      -0.951  13.370  -1.887  0.00  0.00    -0.572 OA
ATOM     52  C7  ASG d1196      -2.359   7.722  -2.705  0.00  0.00     0.214 C 
ATOM     53  C6  ASG d1196      -1.128  11.453   2.697  0.00  0.00     0.043 C 
ATOM     54  C8  ASG d1196      -2.919   8.988  -3.280  0.00  0.00    -0.003 C 
ATOM     55  O6  ASG d1196      -2.262  11.314   3.560  0.00  0.00    -0.398 OA
ATOM     56  C1  ASG d1196      -2.536   8.861   0.469  0.00  0.00     0.151 C 
ATOM     57  O4  ASG d1196      -0.995  11.541  -0.276  0.00  0.00    -0.246 OA
ATOM     58  C4  ASG d1196      -0.256  10.571   0.479  0.00  0.00     0.114 C 
ATOM     59  C3  ASG d1196      -0.248   9.337  -0.415  0.00  0.00     0.094 C 
ATOM     60  C5  ASG d1196      -1.126  10.299   1.704  0.00  0.00     0.090 C 
ATOM     61  OSA ASG d1196       0.908  13.138  -0.362  0.00  0.00    -0.572 OA
ATOM     62  OSC ASG d1196      -1.274  13.878   0.445  0.00  0.00    -0.572 OA
ATOM     63  C2  ASG d1196      -1.706   9.085  -0.798  0.00  0.00     0.087 C 
ATOM     64  O5  ASG d1196      -2.466  10.027   1.286  0.00  0.00    -0.349 OA
ATOM     65  O1  ASG d1196      -3.906   8.646   0.118  0.00  0.00    -0.369 OA
ATOM     66  N   ASG d1196      -1.774   7.814  -1.510  0.00  0.00    -0.349 N 
ATOM     67  O7  ASG d1196      -2.431   6.664  -3.308  0.00  0.00    -0.274 OA
ATOM     68  H   ASG d1196      -1.189  12.382   2.169  0.00  0.00     0.078 H 
ATOM     69  H   ASG d1196      -0.227  11.439   3.273  0.00  0.00     0.078 H 
ATOM     70  H   ASG d1196      -2.754   9.794  -2.596  0.00  0.00     0.040 H 
ATOM     71  H   ASG d1196      -3.970   8.870  -3.445  0.00  0.00     0.040 H 
ATOM     72  H   ASG d1196      -2.435   9.203  -4.209  0.00  0.00     0.040 H 
ATOM     73  H   ASG d1196      -3.075  11.327   3.030  0.00  0.00     0.209 HD
ATOM     74  H   ASG d1196      -2.152   8.010   0.991  0.00  0.00     0.132 H 
ATOM     75  H   ASG d1196       0.735  10.857   0.765  0.00  0.00     0.093 H 
ATOM     76  H   ASG d1196       0.137   8.463   0.067  0.00  0.00     0.091 H 
ATOM     77  H   ASG d1196      -0.707   9.451   2.205  0.00  0.00     0.090 H 
ATOM     78  H   ASG d1196      -2.062   9.915  -1.371  0.00  0.00     0.084 H 
ATOM     79  H   ASG d1196      -4.244   9.423  -0.355  0.00  0.00     0.212 HD
ATOM     80  H   ASG d1196      -1.381   7.009  -1.101  0.00  0.00     0.163 HD
ATOM     81  O3  BDP d1199      15.617   8.452   0.611  0.00  0.00    -0.393 OA
ATOM     82  O1  BDP d1199      11.085   9.335  -0.976  0.00  0.00    -0.348 OA
ATOM     83  O6A BDP d1199      13.064  13.859   0.862  0.00  0.00    -0.646 OA
ATOM     84  C4  BDP d1199      14.727  10.687   0.533  0.00  0.00    -0.005 C 
ATOM     85  O5  BDP d1199      12.369  11.024  -0.064  0.00  0.00    -0.343 OA
ATOM     86  C1  BDP d1199      12.054   9.628   0.040  0.00  0.00     0.159 C 
ATOM     87  C5  BDP d1199      13.465  11.526   0.709  0.00  0.00     0.127 C 
ATOM     88  C2  BDP d1199      13.297   8.742  -0.082  0.00  0.00     0.107 C 
ATOM     89  C3  BDP d1199      14.429   9.225   0.823  0.00  0.00     0.068 C 
ATOM     90  C6  BDP d1199      13.722  12.951   0.306  0.00  0.00     0.203 C 
ATOM     91  O2  BDP d1199      12.955   7.401   0.276  0.00  0.00    -0.388 OA
ATOM     92  O6B BDP d1199      14.569  13.183  -0.584  0.00  0.00    -0.646 OA
ATOM     93  H   BDP d1199      16.320   8.774   1.195  0.00  0.00     0.210 HD
ATOM     94  H   BDP d1199      15.079  10.784  -0.473  0.00  0.00     0.041 H 
ATOM     95  H   BDP d1199      15.474  11.034   1.216  0.00  0.00     0.041 H 
ATOM     96  H   BDP d1199      11.653   9.414   1.010  0.00  0.00     0.133 H 
ATOM     97  H   BDP d1199      13.204  11.472   1.745  0.00  0.00     0.100 H 
ATOM     98  H   BDP d1199      13.639   8.790  -1.095  0.00  0.00     0.094 H 
ATOM     99  H   BDP d1199      14.118   9.108   1.840  0.00  0.00     0.087 H 
ATOM    100  H   BDP d1199      12.649   7.380   1.196  0.00  0.00     0.210 HD
ENDROOT
TORSDOF 25
ENDMDL
MODEL 14
REMARK VINA RESULT:      -4.8      2.667      3.322
REMARK  0 active torsions:
REMARK  status: ('A' for Active; 'I' for Inactive)
REMARK       I    between atoms: C5_1  and  C6_46 
REMARK       I    between atoms: O1_2  and  C4_60 
REMARK       I    between atoms: O1_2  and  C1_47 
REMARK       I    between atoms: S_3  and  O4_24 
REMARK       I    between atoms: C7_6  and  C8_11 
REMARK       I    between atoms: C7_6  and  N_48 
REMARK       I    between atoms: O3_7  and  C3_41 
REMARK       I    between atoms: O1_9  and  C3_31 
REMARK       I    between atoms: O1_9  and  C1_19 
REMARK       I    between atoms: C6_10  and  C5_34 
REMARK       I    between atoms: C6_10  and  O6_12 
REMARK       I    between atoms: C3_13  and  O1_16 
REMARK       I    between atoms: C2_14  and  N_20 
REMARK       I    between atoms: C1_15  and  O1_45 
REMARK       I    between atoms: O1_16  and  C1_29 
REMARK       I    between atoms: S_17  and  O4_30 
REMARK       I    between atoms: N_20  and  C7_40 
REMARK       I    between atoms: C4_22  and  O4_30 
REMARK       I    between atoms: O4_24  and  C4_28 
REMARK       I    between atoms: C5_25  and  C6_55 
REMARK       I    between atoms: C2_32  and  O2_39 
REMARK       I    between atoms: C5_33  and  C6_51 
REMARK       I    between atoms: C2_36  and  O2_56 
REMARK       I    between atoms: C8_37  and  C7_40 
REMARK       I    between atoms: C2_43  and  N_48 
REMARK       I    between atoms: C3_50  and  O3_53 
REMARK       I    between atoms: O6_54  and  C6_55 
ROOT
ATOM      1  C5  BDP d1197       5.461   9.959  -2.005  0.00  0.00     0.152 C 
ATOM      2  O1  BDP d1197       9.134  10.392  -1.860  0.00  0.00    -0.348 OA
ATOM      3  C1  BDP d1197       7.895   9.663  -1.756  0.00  0.00     0.160 C 
ATOM      4  O5  BDP d1197       6.794  10.444  -2.237  0.00  0.00    -0.340 OA
ATOM      5  C2  BDP d1197       7.689   9.275  -0.291  0.00  0.00     0.110 C 
ATOM      6  O6A BDP d1197       3.646  10.898  -3.214  0.00  0.00    -0.646 OA
ATOM      7  O2  BDP d1197       8.686   8.317   0.091  0.00  0.00    -0.388 OA
ATOM      8  C6  BDP d1197       4.526  11.080  -2.343  0.00  0.00     0.206 C 
ATOM      9  C3  BDP d1197       6.298   8.716   0.017  0.00  0.00     0.092 C 
ATOM     10  O6B BDP d1197       4.663  12.156  -1.720  0.00  0.00    -0.646 OA
ATOM     11  O3  BDP d1197       6.154   8.654   1.443  0.00  0.00    -0.390 OA
ATOM     12  C4  BDP d1197       5.173   9.578  -0.554  0.00  0.00     0.103 C 
ATOM     13  H   BDP d1197       5.341   9.077  -2.599  0.00  0.00     0.104 H 
ATOM     14  H   BDP d1197       7.944   8.783  -2.363  0.00  0.00     0.133 H 
ATOM     15  H   BDP d1197       7.779  10.178   0.277  0.00  0.00     0.094 H 
ATOM     16  H   BDP d1197       8.579   7.512  -0.439  0.00  0.00     0.210 HD
ATOM     17  H   BDP d1197       6.219   7.751  -0.439  0.00  0.00     0.091 H 
ATOM     18  H   BDP d1197       6.231   9.546   1.816  0.00  0.00     0.210 HD
ATOM     19  H   BDP d1197       5.110  10.471   0.032  0.00  0.00     0.092 H 
ATOM     20  O1  ASG d1198       3.919   8.866  -0.490  0.00  0.00    -0.348 OA
ATOM     21  O7  ASG d1198       0.220   8.032  -3.416  0.00  0.00    -0.274 OA
ATOM     22  OSB ASG d1198      -0.761   6.830   3.542  0.00  0.00    -0.572 OA
ATOM     23  C3  ASG d1198       0.306   9.052   0.697  0.00  0.00     0.094 C 
ATOM     24  C2  ASG d1198       1.516   8.596  -0.133  0.00  0.00     0.087 C 
ATOM     25  S   ASG d1198       0.514   7.466   3.943  0.00  0.00     0.252 S 
ATOM     26  N   ASG d1198       1.076   8.797  -1.510  0.00  0.00    -0.349 N 
ATOM     27  OSA ASG d1198       0.239   8.498   4.967  0.00  0.00    -0.572 OA
ATOM     28  C4  ASG d1198       0.717   9.334   2.137  0.00  0.00     0.114 C 
ATOM     29  C5  ASG d1198       1.873  10.330   2.125  0.00  0.00     0.090 C 
ATOM     30  O4  ASG d1198       1.174   8.102   2.705  0.00  0.00    -0.246 OA
ATOM     31  C8  ASG d1198       0.505   6.438  -1.682  0.00  0.00    -0.003 C 
ATOM     32  C7  ASG d1198       0.582   7.816  -2.273  0.00  0.00     0.214 C 
ATOM     33  C1  ASG d1198       2.752   9.499   0.062  0.00  0.00     0.154 C 
ATOM     34  OSC ASG d1198       1.422   6.438   4.503  0.00  0.00    -0.572 OA
ATOM     35  O6  ASG d1198       1.093  10.819   4.333  0.00  0.00    -0.398 OA
ATOM     36  C6  ASG d1198       2.271  10.763   3.531  0.00  0.00     0.043 C 
ATOM     37  O5  ASG d1198       2.991   9.744   1.452  0.00  0.00    -0.349 OA
ATOM     38  H   ASG d1198      -0.052   9.955   0.248  0.00  0.00     0.091 H 
ATOM     39  H   ASG d1198       1.797   7.600   0.137  0.00  0.00     0.084 H 
ATOM     40  H   ASG d1198       1.145   9.699  -1.896  0.00  0.00     0.163 HD
ATOM     41  H   ASG d1198      -0.101   9.732   2.701  0.00  0.00     0.093 H 
ATOM     42  H   ASG d1198       1.550  11.209   1.606  0.00  0.00     0.090 H 
ATOM     43  H   ASG d1198       0.093   5.764  -2.404  0.00  0.00     0.040 H 
ATOM     44  H   ASG d1198      -0.120   6.456  -0.814  0.00  0.00     0.040 H 
ATOM     45  H   ASG d1198       1.486   6.111  -1.409  0.00  0.00     0.040 H 
ATOM     46  H   ASG d1198       2.559  10.425  -0.436  0.00  0.00     0.132 H 
ATOM     47  H   ASG d1198       1.326  11.094   5.233  0.00  0.00     0.209 HD
ATOM     48  H   ASG d1198       2.731  11.729   3.495  0.00  0.00     0.078 H 
ATOM     49  H   ASG d1198       2.968  10.066   3.947  0.00  0.00     0.078 H 
ATOM     50  S   ASG d1196       9.706  14.071  -1.265  0.00  0.00     0.252 S 
ATOM     51  OSB ASG d1196      10.563  13.838  -0.080  0.00  0.00    -0.572 OA
ATOM     52  C7  ASG d1196      12.414   8.940  -2.753  0.00  0.00     0.214 C 
ATOM     53  C6  ASG d1196       9.116  14.373  -4.807  0.00  0.00     0.043 C 
ATOM     54  C8  ASG d1196      13.092   9.881  -1.803  0.00  0.00    -0.003 C 
ATOM     55  O6  ASG d1196       9.857  14.912  -5.908  0.00  0.00    -0.398 OA
ATOM     56  C1  ASG d1196      11.357  11.434  -4.769  0.00  0.00     0.151 C 
ATOM     57  O4  ASG d1196      10.087  13.033  -2.332  0.00  0.00    -0.246 OA
ATOM     58  C4  ASG d1196       9.163  12.389  -3.220  0.00  0.00     0.114 C 
ATOM     59  C3  ASG d1196       9.539  10.915  -3.135  0.00  0.00     0.094 C 
ATOM     60  C5  ASG d1196       9.531  12.923  -4.603  0.00  0.00     0.090 C 
ATOM     61  OSA ASG d1196       8.284  13.932  -0.875  0.00  0.00    -0.572 OA
ATOM     62  OSC ASG d1196       9.980  15.432  -1.788  0.00  0.00    -0.572 OA
ATOM     63  C2  ASG d1196      11.045  10.848  -3.390  0.00  0.00     0.087 C 
ATOM     64  O5  ASG d1196      10.940  12.797  -4.804  0.00  0.00    -0.349 OA
ATOM     65  O1  ASG d1196      12.768  11.395  -5.003  0.00  0.00    -0.369 OA
ATOM     66  N   ASG d1196      11.426   9.445  -3.493  0.00  0.00    -0.349 N 
ATOM     67  O7  ASG d1196      12.748   7.770  -2.834  0.00  0.00    -0.274 OA
ATOM     68  H   ASG d1196       9.328  14.937  -3.921  0.00  0.00     0.078 H 
ATOM     69  H   ASG d1196       8.068  14.428  -5.011  0.00  0.00     0.078 H 
ATOM     70  H   ASG d1196      12.651  10.852  -1.888  0.00  0.00     0.040 H 
ATOM     71  H   ASG d1196      14.133   9.940  -2.042  0.00  0.00     0.040 H 
ATOM     72  H   ASG d1196      12.976   9.523  -0.802  0.00  0.00     0.040 H 
ATOM     73  H   ASG d1196      10.806  14.859  -5.715  0.00  0.00     0.209 HD
ATOM     74  H   ASG d1196      10.844  10.863  -5.514  0.00  0.00     0.132 H 
ATOM     75  H   ASG d1196       8.126  12.544  -3.009  0.00  0.00     0.093 H 
ATOM     76  H   ASG d1196       9.041  10.304  -3.860  0.00  0.00     0.091 H 
ATOM     77  H   ASG d1196       8.993  12.337  -5.319  0.00  0.00     0.090 H 
ATOM     78  H   ASG d1196      11.552  11.371  -2.606  0.00  0.00     0.084 H 
ATOM     79  H   ASG d1196      13.223  11.915  -4.322  0.00  0.00     0.212 HD
ATOM     80  H   ASG d1196      10.944   8.858  -4.120  0.00  0.00     0.163 HD
ATOM     81  O3  BDP d1199      -5.530   7.068   0.280  0.00  0.00    -0.393 OA
ATOM     82  O1  BDP d1199      -0.774   8.104   0.670  0.00  0.00    -0.348 OA
ATOM     83  O6A BDP d1199      -3.484  12.387   2.111  0.00  0.00    -0.646 OA
ATOM     84  C4  BDP d1199      -4.771   9.145   1.232  0.00  0.00    -0.005 C 
ATOM     85  O5  BDP d1199      -2.375   9.685   1.187  0.00  0.00    -0.343 OA
ATOM     86  C1  BDP d1199      -2.062   8.610   0.291  0.00  0.00     0.159 C 
ATOM     87  C5  BDP d1199      -3.700  10.228   1.150  0.00  0.00     0.127 C 
ATOM     88  C2  BDP d1199      -3.133   7.515   0.300  0.00  0.00     0.107 C 
ATOM     89  C3  BDP d1199      -4.538   8.095   0.157  0.00  0.00     0.068 C 
ATOM     90  C6  BDP d1199      -3.850  11.202   2.285  0.00  0.00     0.203 C 
ATOM     91  O2  BDP d1199      -2.890   6.612  -0.781  0.00  0.00    -0.388 OA
ATOM     92  O6B BDP d1199      -4.318  10.796   3.371  0.00  0.00    -0.646 OA
ATOM     93  H   BDP d1199      -6.412   7.458   0.185  0.00  0.00     0.210 HD
ATOM     94  H   BDP d1199      -4.730   8.680   2.195  0.00  0.00     0.041 H 
ATOM     95  H   BDP d1199      -5.731   9.592   1.083  0.00  0.00     0.041 H 
ATOM     96  H   BDP d1199      -2.039   8.969  -0.718  0.00  0.00     0.133 H 
ATOM     97  H   BDP d1199      -3.838  10.724   0.211  0.00  0.00     0.100 H 
ATOM     98  H   BDP d1199      -3.078   7.007   1.240  0.00  0.00     0.094 H 
ATOM     99  H   BDP d1199      -4.620   8.539  -0.814  0.00  0.00     0.087 H 
ATOM    100  H   BDP d1199      -2.945   7.092  -1.622  0.00  0.00     0.210 HD
ENDROOT
TORSDOF 25
ENDMDL
MODEL 15
REMARK VINA RESULT:      -4.8      3.441      6.754
REMARK  0 active torsions:
REMARK  status: ('A' for Active; 'I' for Inactive)
REMARK       I    between atoms: C5_1  and  C6_46 
REMARK       I    between atoms: O1_2  and  C4_60 
REMARK       I    between atoms: O1_2  and  C1_47 
REMARK       I    between atoms: S_3  and  O4_24 
REMARK       I    between atoms: C7_6  and  C8_11 
REMARK       I    between atoms: C7_6  and  N_48 
REMARK       I    between atoms: O3_7  and  C3_41 
REMARK       I    between atoms: O1_9  and  C3_31 
REMARK       I    between atoms: O1_9  and  C1_19 
REMARK       I    between atoms: C6_10  and  C5_34 
REMARK       I    between atoms: C6_10  and  O6_12 
REMARK       I    between atoms: C3_13  and  O1_16 
REMARK       I    between atoms: C2_14  and  N_20 
REMARK       I    between atoms: C1_15  and  O1_45 
REMARK       I    between atoms: O1_16  and  C1_29 
REMARK       I    between atoms: S_17  and  O4_30 
REMARK       I    between atoms: N_20  and  C7_40 
REMARK       I    between atoms: C4_22  and  O4_30 
REMARK       I    between atoms: O4_24  and  C4_28 
REMARK       I    between atoms: C5_25  and  C6_55 
REMARK       I    between atoms: C2_32  and  O2_39 
REMARK       I    between atoms: C5_33  and  C6_51 
REMARK       I    between atoms: C2_36  and  O2_56 
REMARK       I    between atoms: C8_37  and  C7_40 
REMARK       I    between atoms: C2_43  and  N_48 
REMARK       I    between atoms: C3_50  and  O3_53 
REMARK       I    between atoms: O6_54  and  C6_55 
ROOT
ATOM      1  C5  BDP d1197      10.286  10.129   0.666  0.00  0.00     0.152 C 
ATOM      2  O1  BDP d1197      13.600  11.578   1.456  0.00  0.00    -0.348 OA
ATOM      3  C1  BDP d1197      12.160  11.557   1.392  0.00  0.00     0.160 C 
ATOM      4  O5  BDP d1197      11.679  10.267   0.993  0.00  0.00    -0.340 OA
ATOM      5  C2  BDP d1197      11.708  12.635   0.406  0.00  0.00     0.110 C 
ATOM      6  O6A BDP d1197       9.326   7.963   0.522  0.00  0.00    -0.646 OA
ATOM      7  O2  BDP d1197      12.010  13.928   0.948  0.00  0.00    -0.388 OA
ATOM      8  C6  BDP d1197      10.123   8.787   0.020  0.00  0.00     0.206 C 
ATOM      9  C3  BDP d1197      10.223  12.567   0.043  0.00  0.00     0.092 C 
ATOM     10  O6B BDP d1197      10.790   8.555  -1.012  0.00  0.00    -0.646 OA
ATOM     11  O3  BDP d1197      10.001  13.441  -1.072  0.00  0.00    -0.390 OA
ATOM     12  C4  BDP d1197       9.770  11.158  -0.338  0.00  0.00     0.103 C 
ATOM     13  H   BDP d1197       9.737  10.263   1.574  0.00  0.00     0.104 H 
ATOM     14  H   BDP d1197      11.754  11.756   2.362  0.00  0.00     0.133 H 
ATOM     15  H   BDP d1197      12.245  12.458  -0.502  0.00  0.00     0.094 H 
ATOM     16  H   BDP d1197      11.510  14.060   1.768  0.00  0.00     0.210 HD
ATOM     17  H   BDP d1197       9.656  12.858   0.903  0.00  0.00     0.091 H 
ATOM     18  H   BDP d1197      10.531  13.143  -1.828  0.00  0.00     0.210 HD
ATOM     19  H   BDP d1197      10.173  10.931  -1.304  0.00  0.00     0.092 H 
ATOM     20  O1  ASG d1198       8.329  11.093  -0.386  0.00  0.00    -0.348 OA
ATOM     21  O7  ASG d1198       4.909   8.136   1.191  0.00  0.00    -0.274 OA
ATOM     22  OSB ASG d1198       3.109  12.850  -3.845  0.00  0.00    -0.572 OA
ATOM     23  C3  ASG d1198       5.339  10.117  -2.532  0.00  0.00     0.094 C 
ATOM     24  C2  ASG d1198       6.148  10.423  -1.261  0.00  0.00     0.087 C 
ATOM     25  S   ASG d1198       4.504  13.265  -4.108  0.00  0.00     0.252 S 
ATOM     26  N   ASG d1198       5.951   9.231  -0.441  0.00  0.00    -0.349 N 
ATOM     27  OSA ASG d1198       4.783  13.132  -5.556  0.00  0.00    -0.572 OA
ATOM     28  C4  ASG d1198       5.769  11.028  -3.674  0.00  0.00     0.114 C 
ATOM     29  C5  ASG d1198       7.279  10.901  -3.854  0.00  0.00     0.090 C 
ATOM     30  O4  ASG d1198       5.460  12.373  -3.294  0.00  0.00    -0.246 OA
ATOM     31  C8  ASG d1198       4.205  10.370   0.813  0.00  0.00    -0.003 C 
ATOM     32  C7  ASG d1198       5.043   9.155   0.536  0.00  0.00     0.214 C 
ATOM     33  C1  ASG d1198       7.665  10.520  -1.525  0.00  0.00     0.154 C 
ATOM     34  OSC ASG d1198       4.686  14.676  -3.695  0.00  0.00    -0.572 OA
ATOM     35  O6  ASG d1198       6.784  11.634  -6.077  0.00  0.00    -0.398 OA
ATOM     36  C6  ASG d1198       7.782  11.688  -5.058  0.00  0.00     0.043 C 
ATOM     37  O5  ASG d1198       7.934  11.346  -2.662  0.00  0.00    -0.349 OA
ATOM     38  H   ASG d1198       5.547   9.100  -2.791  0.00  0.00     0.091 H 
ATOM     39  H   ASG d1198       5.833  11.352  -0.834  0.00  0.00     0.084 H 
ATOM     40  H   ASG d1198       6.516   8.444  -0.617  0.00  0.00     0.163 HD
ATOM     41  H   ASG d1198       5.271  10.766  -4.584  0.00  0.00     0.093 H 
ATOM     42  H   ASG d1198       7.507   9.871  -4.036  0.00  0.00     0.090 H 
ATOM     43  H   ASG d1198       3.529  10.161   1.615  0.00  0.00     0.040 H 
ATOM     44  H   ASG d1198       3.649  10.628  -0.064  0.00  0.00     0.040 H 
ATOM     45  H   ASG d1198       4.839  11.187   1.086  0.00  0.00     0.040 H 
ATOM     46  H   ASG d1198       8.027   9.531  -1.708  0.00  0.00     0.132 H 
ATOM     47  H   ASG d1198       7.087  12.130  -6.853  0.00  0.00     0.209 HD
ATOM     48  H   ASG d1198       8.691  11.255  -5.419  0.00  0.00     0.078 H 
ATOM     49  H   ASG d1198       7.971  12.704  -4.780  0.00  0.00     0.078 H 
ATOM     50  S   ASG d1196      16.041   9.866  -0.851  0.00  0.00     0.252 S 
ATOM     51  OSB ASG d1196      16.579  11.142  -1.375  0.00  0.00    -0.572 OA
ATOM     52  C7  ASG d1196      15.611  13.397   3.967  0.00  0.00     0.214 C 
ATOM     53  C6  ASG d1196      15.875   7.179   1.544  0.00  0.00     0.043 C 
ATOM     54  C8  ASG d1196      16.645  13.699   2.924  0.00  0.00    -0.003 C 
ATOM     55  O6  ASG d1196      16.839   6.472   2.331  0.00  0.00    -0.398 OA
ATOM     56  C1  ASG d1196      16.166  10.070   3.829  0.00  0.00     0.151 C 
ATOM     57  O4  ASG d1196      15.850  10.024   0.665  0.00  0.00    -0.246 OA
ATOM     58  C4  ASG d1196      14.767   9.463   1.421  0.00  0.00     0.114 C 
ATOM     59  C3  ASG d1196      14.282  10.622   2.283  0.00  0.00     0.094 C 
ATOM     60  C5  ASG d1196      15.429   8.415   2.313  0.00  0.00     0.090 C 
ATOM     61  OSA ASG d1196      14.752   9.568  -1.519  0.00  0.00    -0.572 OA
ATOM     62  OSC ASG d1196      17.031   8.792  -1.110  0.00  0.00    -0.572 OA
ATOM     63  C2  ASG d1196      15.523  11.173   2.985  0.00  0.00     0.087 C 
ATOM     64  O5  ASG d1196      16.555   8.995   2.976  0.00  0.00    -0.349 OA
ATOM     65  O1  ASG d1196      17.341  10.575   4.470  0.00  0.00    -0.369 OA
ATOM     66  N   ASG d1196      15.089  12.171   3.956  0.00  0.00    -0.349 N 
ATOM     67  O7  ASG d1196      15.264  14.240   4.779  0.00  0.00    -0.274 OA
ATOM     68  H   ASG d1196      16.315   7.473   0.614  0.00  0.00     0.078 H 
ATOM     69  H   ASG d1196      15.032   6.550   1.346  0.00  0.00     0.078 H 
ATOM     70  H   ASG d1196      16.804  12.831   2.319  0.00  0.00     0.040 H 
ATOM     71  H   ASG d1196      17.563  13.974   3.400  0.00  0.00     0.040 H 
ATOM     72  H   ASG d1196      16.308  14.506   2.309  0.00  0.00     0.040 H 
ATOM     73  H   ASG d1196      17.599   7.049   2.506  0.00  0.00     0.209 HD
ATOM     74  H   ASG d1196      15.462   9.735   4.561  0.00  0.00     0.132 H 
ATOM     75  H   ASG d1196      13.970   9.036   0.849  0.00  0.00     0.093 H 
ATOM     76  H   ASG d1196      13.568  10.332   3.026  0.00  0.00     0.091 H 
ATOM     77  H   ASG d1196      14.694   8.097   3.023  0.00  0.00     0.090 H 
ATOM     78  H   ASG d1196      16.195  11.560   2.248  0.00  0.00     0.084 H 
ATOM     79  H   ASG d1196      17.973  10.875   3.798  0.00  0.00     0.212 HD
ATOM     80  H   ASG d1196      14.397  11.935   4.615  0.00  0.00     0.163 HD
ATOM     81  O3  BDP d1199      -0.616   8.522  -2.930  0.00  0.00    -0.393 OA
ATOM     82  O1  BDP d1199       3.921  10.223  -2.324  0.00  0.00    -0.348 OA
ATOM     83  O6A BDP d1199       3.891   7.201  -6.640  0.00  0.00    -0.646 OA
ATOM     84  C4  BDP d1199       1.100   8.138  -4.574  0.00  0.00    -0.005 C 
ATOM     85  O5  BDP d1199       3.406   8.831  -4.092  0.00  0.00    -0.343 OA
ATOM     86  C1  BDP d1199       3.130   9.089  -2.709  0.00  0.00     0.159 C 
ATOM     87  C5  BDP d1199       2.588   7.873  -4.774  0.00  0.00     0.127 C 
ATOM     88  C2  BDP d1199       1.638   9.316  -2.447  0.00  0.00     0.107 C 
ATOM     89  C3  BDP d1199       0.778   8.232  -3.091  0.00  0.00     0.068 C 
ATOM     90  C6  BDP d1199       2.936   7.902  -6.236  0.00  0.00     0.203 C 
ATOM     91  O2  BDP d1199       1.405   9.317  -1.036  0.00  0.00    -0.388 OA
ATOM     92  O6B BDP d1199       2.272   8.637  -7.000  0.00  0.00    -0.646 OA
ATOM     93  H   BDP d1199      -1.142   7.822  -3.345  0.00  0.00     0.210 HD
ATOM     94  H   BDP d1199       0.837   9.059  -5.052  0.00  0.00     0.041 H 
ATOM     95  H   BDP d1199       0.541   7.332  -5.003  0.00  0.00     0.041 H 
ATOM     96  H   BDP d1199       3.391   8.236  -2.118  0.00  0.00     0.133 H 
ATOM     97  H   BDP d1199       2.784   6.904  -4.363  0.00  0.00     0.100 H 
ATOM     98  H   BDP d1199       1.366  10.256  -2.879  0.00  0.00     0.094 H 
ATOM     99  H   BDP d1199       0.995   7.301  -2.609  0.00  0.00     0.087 H 
ATOM    100  H   BDP d1199       1.657   8.457  -0.666  0.00  0.00     0.210 HD
ENDROOT
TORSDOF 25
ENDMDL
MODEL 16
REMARK VINA RESULT:      -4.7      2.798      4.838
REMARK  0 active torsions:
REMARK  status: ('A' for Active; 'I' for Inactive)
REMARK       I    between atoms: C5_1  and  C6_46 
REMARK       I    between atoms: O1_2  and  C4_60 
REMARK       I    between atoms: O1_2  and  C1_47 
REMARK       I    between atoms: S_3  and  O4_24 
REMARK       I    between atoms: C7_6  and  C8_11 
REMARK       I    between atoms: C7_6  and  N_48 
REMARK       I    between atoms: O3_7  and  C3_41 
REMARK       I    between atoms: O1_9  and  C3_31 
REMARK       I    between atoms: O1_9  and  C1_19 
REMARK       I    between atoms: C6_10  and  C5_34 
REMARK       I    between atoms: C6_10  and  O6_12 
REMARK       I    between atoms: C3_13  and  O1_16 
REMARK       I    between atoms: C2_14  and  N_20 
REMARK       I    between atoms: C1_15  and  O1_45 
REMARK       I    between atoms: O1_16  and  C1_29 
REMARK       I    between atoms: S_17  and  O4_30 
REMARK       I    between atoms: N_20  and  C7_40 
REMARK       I    between atoms: C4_22  and  O4_30 
REMARK       I    between atoms: O4_24  and  C4_28 
REMARK       I    between atoms: C5_25  and  C6_55 
REMARK       I    between atoms: C2_32  and  O2_39 
REMARK       I    between atoms: C5_33  and  C6_51 
REMARK       I    between atoms: C2_36  and  O2_56 
REMARK       I    between atoms: C8_37  and  C7_40 
REMARK       I    between atoms: C2_43  and  N_48 
REMARK       I    between atoms: C3_50  and  O3_53 
REMARK       I    between atoms: O6_54  and  C6_55 
ROOT
ATOM      1  C5  BDP d1197       7.806   9.779   0.956  0.00  0.00     0.152 C 
ATOM      2  O1  BDP d1197      11.056  11.383   0.206  0.00  0.00    -0.348 OA
ATOM      3  C1  BDP d1197       9.739  11.298   0.784  0.00  0.00     0.160 C 
ATOM      4  O5  BDP d1197       9.192   9.982   0.633  0.00  0.00    -0.340 OA
ATOM      5  C2  BDP d1197       8.848  12.339   0.104  0.00  0.00     0.110 C 
ATOM      6  O6A BDP d1197       6.982   7.570   1.242  0.00  0.00    -0.646 OA
ATOM      7  O2  BDP d1197       9.298  13.653   0.462  0.00  0.00    -0.388 OA
ATOM      8  C6  BDP d1197       7.436   8.420   0.443  0.00  0.00     0.206 C 
ATOM      9  C3  BDP d1197       7.360  12.200   0.435  0.00  0.00     0.092 C 
ATOM     10  O6B BDP d1197       7.589   8.200  -0.778  0.00  0.00    -0.646 OA
ATOM     11  O3  BDP d1197       6.629  13.045  -0.463  0.00  0.00    -0.390 OA
ATOM     12  C4  BDP d1197       6.852  10.767   0.287  0.00  0.00     0.103 C 
ATOM     13  H   BDP d1197       7.709   9.903   2.014  0.00  0.00     0.104 H 
ATOM     14  H   BDP d1197       9.795  11.496   1.835  0.00  0.00     0.133 H 
ATOM     15  H   BDP d1197       8.936  12.171  -0.949  0.00  0.00     0.094 H 
ATOM     16  H   BDP d1197       9.207  13.777   1.420  0.00  0.00     0.210 HD
ATOM     17  H   BDP d1197       7.219  12.481   1.458  0.00  0.00     0.091 H 
ATOM     18  H   BDP d1197       6.783  12.758  -1.377  0.00  0.00     0.210 HD
ATOM     19  H   BDP d1197       6.796  10.542  -0.757  0.00  0.00     0.092 H 
ATOM     20  O1  ASG d1198       5.543  10.639   0.882  0.00  0.00    -0.348 OA
ATOM     21  O7  ASG d1198       3.312   7.562   3.796  0.00  0.00    -0.274 OA
ATOM     22  OSB ASG d1198      -0.743  12.109   0.095  0.00  0.00    -0.572 OA
ATOM     23  C3  ASG d1198       1.961   9.498   0.275  0.00  0.00     0.094 C 
ATOM     24  C2  ASG d1198       3.233   9.860   1.059  0.00  0.00     0.087 C 
ATOM     25  S   ASG d1198       0.371  12.580  -0.757  0.00  0.00     0.252 S 
ATOM     26  N   ASG d1198       3.475   8.675   1.876  0.00  0.00    -0.349 N 
ATOM     27  OSA ASG d1198      -0.013  12.435  -2.179  0.00  0.00    -0.572 OA
ATOM     28  C4  ASG d1198       1.800  10.408  -0.936  0.00  0.00     0.114 C 
ATOM     29  C5  ASG d1198       3.079  10.343  -1.765  0.00  0.00     0.090 C 
ATOM     30  O4  ASG d1198       1.628  11.744  -0.452  0.00  0.00    -0.246 OA
ATOM     31  C8  ASG d1198       2.412   9.757   3.778  0.00  0.00    -0.003 C 
ATOM     32  C7  ASG d1198       3.096   8.575   3.154  0.00  0.00     0.214 C 
ATOM     33  C1  ASG d1198       4.471  10.019   0.151  0.00  0.00     0.154 C 
ATOM     34  OSC ASG d1198       0.651  14.004  -0.460  0.00  0.00    -0.572 OA
ATOM     35  O6  ASG d1198       1.619  11.017  -3.537  0.00  0.00    -0.398 OA
ATOM     36  C6  ASG d1198       2.961  11.131  -3.064  0.00  0.00     0.043 C 
ATOM     37  O5  ASG d1198       4.171  10.837  -0.984  0.00  0.00    -0.349 OA
ATOM     38  H   ASG d1198       2.080   8.487  -0.053  0.00  0.00     0.091 H 
ATOM     39  H   ASG d1198       3.097  10.781   1.584  0.00  0.00     0.084 H 
ATOM     40  H   ASG d1198       3.939   7.910   1.465  0.00  0.00     0.163 HD
ATOM     41  H   ASG d1198       0.963  10.109  -1.533  0.00  0.00     0.093 H 
ATOM     42  H   ASG d1198       3.250   9.321  -2.033  0.00  0.00     0.090 H 
ATOM     43  H   ASG d1198       2.170   9.533   4.796  0.00  0.00     0.040 H 
ATOM     44  H   ASG d1198       1.514   9.976   3.238  0.00  0.00     0.040 H 
ATOM     45  H   ASG d1198       3.063  10.605   3.746  0.00  0.00     0.040 H 
ATOM     46  H   ASG d1198       4.761   9.043  -0.177  0.00  0.00     0.132 H 
ATOM     47  H   ASG d1198       1.524  11.513  -4.365  0.00  0.00     0.209 HD
ATOM     48  H   ASG d1198       3.636  10.732  -3.792  0.00  0.00     0.078 H 
ATOM     49  H   ASG d1198       3.206  12.159  -2.895  0.00  0.00     0.078 H 
ATOM     50  S   ASG d1196      12.302   9.740  -2.951  0.00  0.00     0.252 S 
ATOM     51  OSB ASG d1196      12.494  11.030  -3.653  0.00  0.00    -0.572 OA
ATOM     52  C7  ASG d1196      13.884  13.330   1.575  0.00  0.00     0.214 C 
ATOM     53  C6  ASG d1196      13.337   7.089  -0.741  0.00  0.00     0.043 C 
ATOM     54  C8  ASG d1196      14.335  13.658   0.184  0.00  0.00    -0.003 C 
ATOM     55  O6  ASG d1196      14.581   6.438  -0.464  0.00  0.00    -0.398 OA
ATOM     56  C1  ASG d1196      14.474  10.028   1.192  0.00  0.00     0.151 C 
ATOM     57  O4  ASG d1196      12.795   9.915  -1.505  0.00  0.00    -0.246 OA
ATOM     58  C4  ASG d1196      12.185   9.320  -0.352  0.00  0.00     0.114 C 
ATOM     59  C3  ASG d1196      12.077  10.471   0.641  0.00  0.00     0.094 C 
ATOM     60  C5  ASG d1196      13.220   8.317   0.152  0.00  0.00     0.090 C 
ATOM     61  OSA ASG d1196      10.867   9.375  -2.981  0.00  0.00    -0.572 OA
ATOM     62  OSC ASG d1196      13.125   8.706  -3.625  0.00  0.00    -0.572 OA
ATOM     63  C2  ASG d1196      13.474  11.088   0.724  0.00  0.00     0.087 C 
ATOM     64  O5  ASG d1196      14.495   8.957   0.251  0.00  0.00    -0.349 OA
ATOM     65  O1  ASG d1196      15.787  10.594   1.250  0.00  0.00    -0.369 OA
ATOM     66  N   ASG d1196      13.467  12.082   1.791  0.00  0.00    -0.349 N 
ATOM     67  O7  ASG d1196      13.892  14.170   2.460  0.00  0.00    -0.274 OA
ATOM     68  H   ASG d1196      13.307   7.386  -1.768  0.00  0.00     0.078 H 
ATOM     69  H   ASG d1196      12.524   6.421  -0.548  0.00  0.00     0.078 H 
ATOM     70  H   ASG d1196      14.250  12.788  -0.433  0.00  0.00     0.040 H 
ATOM     71  H   ASG d1196      15.355  13.981   0.207  0.00  0.00     0.040 H 
ATOM     72  H   ASG d1196      13.723  14.440  -0.215  0.00  0.00     0.040 H 
ATOM     73  H   ASG d1196      15.313   7.050  -0.641  0.00  0.00     0.209 HD
ATOM     74  H   ASG d1196      14.182   9.675   2.159  0.00  0.00     0.132 H 
ATOM     75  H   ASG d1196      11.237   8.850  -0.513  0.00  0.00     0.093 H 
ATOM     76  H   ASG d1196      11.779  10.163   1.622  0.00  0.00     0.091 H 
ATOM     77  H   ASG d1196      12.890   7.980   1.112  0.00  0.00     0.090 H 
ATOM     78  H   ASG d1196      13.732  11.491  -0.233  0.00  0.00     0.084 H 
ATOM     79  H   ASG d1196      16.042  10.910   0.369  0.00  0.00     0.212 HD
ATOM     80  H   ASG d1196      13.150  11.827   2.688  0.00  0.00     0.163 HD
ATOM     81  O3  BDP d1199      -3.475   7.639   2.545  0.00  0.00    -0.393 OA
ATOM     82  O1  BDP d1199       0.777   9.546   1.090  0.00  0.00    -0.348 OA
ATOM     83  O6A BDP d1199      -1.016   6.453  -2.781  0.00  0.00    -0.646 OA
ATOM     84  C4  BDP d1199      -2.648   7.303   0.310  0.00  0.00    -0.005 C 
ATOM     85  O5  BDP d1199      -0.401   8.103  -0.275  0.00  0.00    -0.343 OA
ATOM     86  C1  BDP d1199      -0.048   8.372   1.089  0.00  0.00     0.159 C 
ATOM     87  C5  BDP d1199      -1.390   7.099  -0.529  0.00  0.00     0.127 C 
ATOM     88  C2  BDP d1199      -1.280   8.538   1.985  0.00  0.00     0.107 C 
ATOM     89  C3  BDP d1199      -2.284   7.407   1.782  0.00  0.00     0.068 C 
ATOM     90  C6  BDP d1199      -1.726   7.119  -1.994  0.00  0.00     0.203 C 
ATOM     91  O2  BDP d1199      -0.865   8.553   3.354  0.00  0.00    -0.388 OA
ATOM     92  O6B BDP d1199      -2.692   7.811  -2.382  0.00  0.00    -0.646 OA
ATOM     93  H   BDP d1199      -4.098   6.910   2.402  0.00  0.00     0.210 HD
ATOM     94  H   BDP d1199      -3.137   8.204   0.001  0.00  0.00     0.041 H 
ATOM     95  H   BDP d1199      -3.300   6.467   0.169  0.00  0.00     0.041 H 
ATOM     96  H   BDP d1199       0.486   7.541   1.500  0.00  0.00     0.133 H 
ATOM     97  H   BDP d1199      -0.988   6.147  -0.250  0.00  0.00     0.100 H 
ATOM     98  H   BDP d1199      -1.758   9.459   1.722  0.00  0.00     0.094 H 
ATOM     99  H   BDP d1199      -1.834   6.495   2.115  0.00  0.00     0.087 H 
ATOM    100  H   BDP d1199      -0.436   7.712   3.570  0.00  0.00     0.210 HD
ENDROOT
TORSDOF 25
ENDMDL
MODEL 17
REMARK VINA RESULT:      -4.7      3.050     12.353
REMARK  0 active torsions:
REMARK  status: ('A' for Active; 'I' for Inactive)
REMARK       I    between atoms: C5_1  and  C6_46 
REMARK       I    between atoms: O1_2  and  C4_60 
REMARK       I    between atoms: O1_2  and  C1_47 
REMARK       I    between atoms: S_3  and  O4_24 
REMARK       I    between atoms: C7_6  and  C8_11 
REMARK       I    between atoms: C7_6  and  N_48 
REMARK       I    between atoms: O3_7  and  C3_41 
REMARK       I    between atoms: O1_9  and  C3_31 
REMARK       I    between atoms: O1_9  and  C1_19 
REMARK       I    between atoms: C6_10  and  C5_34 
REMARK       I    between atoms: C6_10  and  O6_12 
REMARK       I    between atoms: C3_13  and  O1_16 
REMARK       I    between atoms: C2_14  and  N_20 
REMARK       I    between atoms: C1_15  and  O1_45 
REMARK       I    between atoms: O1_16  and  C1_29 
REMARK       I    between atoms: S_17  and  O4_30 
REMARK       I    between atoms: N_20  and  C7_40 
REMARK       I    between atoms: C4_22  and  O4_30 
REMARK       I    between atoms: O4_24  and  C4_28 
REMARK       I    between atoms: C5_25  and  C6_55 
REMARK       I    between atoms: C2_32  and  O2_39 
REMARK       I    between atoms: C5_33  and  C6_51 
REMARK       I    between atoms: C2_36  and  O2_56 
REMARK       I    between atoms: C8_37  and  C7_40 
REMARK       I    between atoms: C2_43  and  N_48 
REMARK       I    between atoms: C3_50  and  O3_53 
REMARK       I    between atoms: O6_54  and  C6_55 
ROOT
ATOM      1  C5  BDP d1197       4.864  10.778  -0.856  0.00  0.00     0.152 C 
ATOM      2  O1  BDP d1197       1.590   9.220  -1.603  0.00  0.00    -0.348 OA
ATOM      3  C1  BDP d1197       2.643   9.714  -0.751  0.00  0.00     0.160 C 
ATOM      4  O5  BDP d1197       3.638  10.412  -1.511  0.00  0.00    -0.340 OA
ATOM      5  C2  BDP d1197       3.258   8.525  -0.012  0.00  0.00     0.110 C 
ATOM      6  O6A BDP d1197       6.303  12.372  -1.870  0.00  0.00    -0.646 OA
ATOM      7  O2  BDP d1197       2.295   7.989   0.906  0.00  0.00    -0.388 OA
ATOM      8  C6  BDP d1197       5.813  11.222  -1.928  0.00  0.00     0.206 C 
ATOM      9  C3  BDP d1197       4.551   8.856   0.739  0.00  0.00     0.092 C 
ATOM     10  O6B BDP d1197       6.085  10.405  -2.835  0.00  0.00    -0.646 OA
ATOM     11  O3  BDP d1197       5.151   7.621   1.149  0.00  0.00    -0.390 OA
ATOM     12  C4  BDP d1197       5.551   9.630  -0.119  0.00  0.00     0.103 C 
ATOM     13  H   BDP d1197       4.621  11.526  -0.131  0.00  0.00     0.104 H 
ATOM     14  H   BDP d1197       2.239  10.412  -0.048  0.00  0.00     0.133 H 
ATOM     15  H   BDP d1197       3.524   7.808  -0.760  0.00  0.00     0.094 H 
ATOM     16  H   BDP d1197       2.074   8.660   1.571  0.00  0.00     0.210 HD
ATOM     17  H   BDP d1197       4.301   9.480   1.572  0.00  0.00     0.091 H 
ATOM     18  H   BDP d1197       5.362   7.088   0.366  0.00  0.00     0.210 HD
ATOM     19  H   BDP d1197       5.963   8.954  -0.838  0.00  0.00     0.092 H 
ATOM     20  O1  ASG d1198       6.608  10.163   0.708  0.00  0.00    -0.348 OA
ATOM     21  O7  ASG d1198       8.901  14.339   1.190  0.00  0.00    -0.274 OA
ATOM     22  OSB ASG d1198      11.934   8.574   4.086  0.00  0.00    -0.572 OA
ATOM     23  C3  ASG d1198      10.383  10.368   1.163  0.00  0.00     0.094 C 
ATOM     24  C2  ASG d1198       8.904  10.766   1.290  0.00  0.00     0.087 C 
ATOM     25  S   ASG d1198      11.001   7.624   3.440  0.00  0.00     0.252 S 
ATOM     26  N   ASG d1198       8.884  12.146   0.815  0.00  0.00    -0.349 N 
ATOM     27  OSA ASG d1198      11.781   6.600   2.710  0.00  0.00    -0.572 OA
ATOM     28  C4  ASG d1198      10.535   8.853   1.189  0.00  0.00     0.114 C 
ATOM     29  C5  ASG d1198       9.637   8.256   0.109  0.00  0.00     0.090 C 
ATOM     30  O4  ASG d1198      10.086   8.395   2.469  0.00  0.00    -0.246 OA
ATOM     31  C8  ASG d1198       8.939  12.948   3.112  0.00  0.00    -0.003 C 
ATOM     32  C7  ASG d1198       8.912  13.204   1.632  0.00  0.00     0.214 C 
ATOM     33  C1  ASG d1198       7.984   9.969   0.341  0.00  0.00     0.154 C 
ATOM     34  OSC ASG d1198      10.168   6.971   4.476  0.00  0.00    -0.572 OA
ATOM     35  O6  ASG d1198      11.186   6.438   0.232  0.00  0.00    -0.398 OA
ATOM     36  C6  ASG d1198       9.816   6.748  -0.018  0.00  0.00     0.043 C 
ATOM     37  O5  ASG d1198       8.273   8.569   0.407  0.00  0.00    -0.349 OA
ATOM     38  H   ASG d1198      10.722  10.743   0.220  0.00  0.00     0.091 H 
ATOM     39  H   ASG d1198       8.559  10.601   2.289  0.00  0.00     0.084 H 
ATOM     40  H   ASG d1198       8.849  12.306  -0.155  0.00  0.00     0.163 HD
ATOM     41  H   ASG d1198      11.551   8.564   1.017  0.00  0.00     0.093 H 
ATOM     42  H   ASG d1198       9.916   8.685  -0.830  0.00  0.00     0.090 H 
ATOM     43  H   ASG d1198       8.959  13.881   3.635  0.00  0.00     0.040 H 
ATOM     44  H   ASG d1198       9.812  12.382   3.360  0.00  0.00     0.040 H 
ATOM     45  H   ASG d1198       8.066  12.400   3.396  0.00  0.00     0.040 H 
ATOM     46  H   ASG d1198       8.158  10.324  -0.653  0.00  0.00     0.132 H 
ATOM     47  H   ASG d1198      11.321   5.480   0.155  0.00  0.00     0.209 HD
ATOM     48  H   ASG d1198       9.549   6.434  -1.006  0.00  0.00     0.078 H 
ATOM     49  H   ASG d1198       9.189   6.242   0.685  0.00  0.00     0.078 H 
ATOM     50  S   ASG d1196       1.908   7.789  -5.077  0.00  0.00     0.252 S 
ATOM     51  OSB ASG d1196       1.472   6.438  -4.657  0.00  0.00    -0.572 OA
ATOM     52  C7  ASG d1196      -2.000   9.103  -0.731  0.00  0.00     0.214 C 
ATOM     53  C6  ASG d1196       1.317  11.180  -6.144  0.00  0.00     0.043 C 
ATOM     54  C8  ASG d1196      -2.143   7.814  -1.485  0.00  0.00    -0.003 C 
ATOM     55  O6  ASG d1196       0.357  11.814  -6.996  0.00  0.00    -0.398 OA
ATOM     56  C1  ASG d1196      -1.260  10.868  -3.513  0.00  0.00     0.151 C 
ATOM     57  O4  ASG d1196       1.014   8.815  -4.361  0.00  0.00    -0.246 OA
ATOM     58  C4  ASG d1196       1.457  10.082  -3.857  0.00  0.00     0.114 C 
ATOM     59  C3  ASG d1196       0.879  10.139  -2.448  0.00  0.00     0.094 C 
ATOM     60  C5  ASG d1196       0.747  11.110  -4.734  0.00  0.00     0.090 C 
ATOM     61  OSA ASG d1196       3.330   7.980  -4.710  0.00  0.00    -0.572 OA
ATOM     62  OSC ASG d1196       1.718   7.915  -6.542  0.00  0.00    -0.572 OA
ATOM     63  C2  ASG d1196      -0.612   9.832  -2.592  0.00  0.00     0.087 C 
ATOM     64  O5  ASG d1196      -0.647  10.801  -4.798  0.00  0.00    -0.349 OA
ATOM     65  O1  ASG d1196      -2.652  10.572  -3.669  0.00  0.00    -0.369 OA
ATOM     66  N   ASG d1196      -1.245  10.046  -1.296  0.00  0.00    -0.349 N 
ATOM     67  O7  ASG d1196      -2.543   9.271   0.348  0.00  0.00    -0.274 OA
ATOM     68  H   ASG d1196       1.517  10.191  -6.501  0.00  0.00     0.078 H 
ATOM     69  H   ASG d1196       2.229  11.740  -6.141  0.00  0.00     0.078 H 
ATOM     70  H   ASG d1196      -1.593   7.874  -2.400  0.00  0.00     0.040 H 
ATOM     71  H   ASG d1196      -3.176   7.640  -1.700  0.00  0.00     0.040 H 
ATOM     72  H   ASG d1196      -1.762   7.010  -0.892  0.00  0.00     0.040 H 
ATOM     73  H   ASG d1196      -0.466  11.300  -6.993  0.00  0.00     0.209 HD
ATOM     74  H   ASG d1196      -1.136  11.841  -3.086  0.00  0.00     0.132 H 
ATOM     75  H   ASG d1196       2.516  10.240  -3.855  0.00  0.00     0.093 H 
ATOM     76  H   ASG d1196       0.989  11.095  -1.979  0.00  0.00     0.091 H 
ATOM     77  H   ASG d1196       0.901  12.068  -4.283  0.00  0.00     0.090 H 
ATOM     78  H   ASG d1196      -0.726   8.835  -2.963  0.00  0.00     0.084 H 
ATOM     79  H   ASG d1196      -2.753   9.688  -4.057  0.00  0.00     0.212 HD
ATOM     80  H   ASG d1196      -1.114  10.903  -0.829  0.00  0.00     0.163 HD
ATOM     81  O3  BDP d1199      15.293  13.252   3.557  0.00  0.00    -0.393 OA
ATOM     82  O1  BDP d1199      11.206  10.964   2.180  0.00  0.00    -0.348 OA
ATOM     83  O6A BDP d1199      14.951   9.851  -1.355  0.00  0.00    -0.646 OA
ATOM     84  C4  BDP d1199      15.276  11.722   1.699  0.00  0.00    -0.005 C 
ATOM     85  O5  BDP d1199      13.139  10.786   0.931  0.00  0.00    -0.343 OA
ATOM     86  C1  BDP d1199      12.359  11.688   1.728  0.00  0.00     0.159 C 
ATOM     87  C5  BDP d1199      14.448  11.205   0.527  0.00  0.00     0.127 C 
ATOM     88  C2  BDP d1199      13.161  12.273   2.894  0.00  0.00     0.107 C 
ATOM     89  C3  BDP d1199      14.515  12.811   2.438  0.00  0.00     0.068 C 
ATOM     90  C6  BDP d1199      15.139  10.045  -0.133  0.00  0.00     0.203 C 
ATOM     91  O2  BDP d1199      12.414  13.337   3.490  0.00  0.00    -0.388 OA
ATOM     92  O6B BDP d1199      15.865   9.301   0.561  0.00  0.00    -0.646 OA
ATOM     93  H   BDP d1199      16.147  13.589   3.245  0.00  0.00     0.210 HD
ATOM     94  H   BDP d1199      15.480  10.915   2.371  0.00  0.00     0.041 H 
ATOM     95  H   BDP d1199      16.193  12.127   1.326  0.00  0.00     0.041 H 
ATOM     96  H   BDP d1199      12.062  12.532   1.142  0.00  0.00     0.133 H 
ATOM     97  H   BDP d1199      14.348  12.020  -0.160  0.00  0.00     0.100 H 
ATOM     98  H   BDP d1199      13.336  11.489   3.601  0.00  0.00     0.094 H 
ATOM     99  H   BDP d1199      14.343  13.644   1.788  0.00  0.00     0.087 H 
ATOM    100  H   BDP d1199      12.267  14.036   2.833  0.00  0.00     0.210 HD
ENDROOT
TORSDOF 25
ENDMDL
MODEL 18
REMARK VINA RESULT:      -4.7      3.050     12.479
REMARK  0 active torsions:
REMARK  status: ('A' for Active; 'I' for Inactive)
REMARK       I    between atoms: C5_1  and  C6_46 
REMARK       I    between atoms: O1_2  and  C4_60 
REMARK       I    between atoms: O1_2  and  C1_47 
REMARK       I    between atoms: S_3  and  O4_24 
REMARK       I    between atoms: C7_6  and  C8_11 
REMARK       I    between atoms: C7_6  and  N_48 
REMARK       I    between atoms: O3_7  and  C3_41 
REMARK       I    between atoms: O1_9  and  C3_31 
REMARK       I    between atoms: O1_9  and  C1_19 
REMARK       I    between atoms: C6_10  and  C5_34 
REMARK       I    between atoms: C6_10  and  O6_12 
REMARK       I    between atoms: C3_13  and  O1_16 
REMARK       I    between atoms: C2_14  and  N_20 
REMARK       I    between atoms: C1_15  and  O1_45 
REMARK       I    between atoms: O1_16  and  C1_29 
REMARK       I    between atoms: S_17  and  O4_30 
REMARK       I    between atoms: N_20  and  C7_40 
REMARK       I    between atoms: C4_22  and  O4_30 
REMARK       I    between atoms: O4_24  and  C4_28 
REMARK       I    between atoms: C5_25  and  C6_55 
REMARK       I    between atoms: C2_32  and  O2_39 
REMARK       I    between atoms: C5_33  and  C6_51 
REMARK       I    between atoms: C2_36  and  O2_56 
REMARK       I    between atoms: C8_37  and  C7_40 
REMARK       I    between atoms: C2_43  and  N_48 
REMARK       I    between atoms: C3_50  and  O3_53 
REMARK       I    between atoms: O6_54  and  C6_55 
ROOT
ATOM      1  C5  BDP d1197       5.294  11.640  -1.893  0.00  0.00     0.152 C 
ATOM      2  O1  BDP d1197       2.513   9.247  -1.405  0.00  0.00    -0.348 OA
ATOM      3  C1  BDP d1197       3.658  10.025  -1.004  0.00  0.00     0.160 C 
ATOM      4  O5  BDP d1197       4.045  10.943  -2.034  0.00  0.00    -0.340 OA
ATOM      5  C2  BDP d1197       4.800   9.062  -0.676  0.00  0.00     0.110 C 
ATOM      6  O6A BDP d1197       5.740  13.533  -3.254  0.00  0.00    -0.646 OA
ATOM      7  O2  BDP d1197       4.464   8.312   0.500  0.00  0.00    -0.388 OA
ATOM      8  C6  BDP d1197       5.579  12.293  -3.211  0.00  0.00     0.206 C 
ATOM      9  C3  BDP d1197       6.155   9.746  -0.477  0.00  0.00     0.092 C 
ATOM     10  O6B BDP d1197       5.655  11.556  -4.218  0.00  0.00    -0.646 OA
ATOM     11  O3  BDP d1197       7.163   8.726  -0.448  0.00  0.00    -0.390 OA
ATOM     12  C4  BDP d1197       6.488  10.737  -1.591  0.00  0.00     0.103 C 
ATOM     13  H   BDP d1197       5.185  12.314  -1.069  0.00  0.00     0.104 H 
ATOM     14  H   BDP d1197       3.412  10.608  -0.141  0.00  0.00     0.133 H 
ATOM     15  H   BDP d1197       4.911   8.423  -1.527  0.00  0.00     0.094 H 
ATOM     16  H   BDP d1197       4.370   8.917   1.253  0.00  0.00     0.210 HD
ATOM     17  H   BDP d1197       6.117  10.301   0.438  0.00  0.00     0.091 H 
ATOM     18  H   BDP d1197       7.164   8.248  -1.292  0.00  0.00     0.210 HD
ATOM     19  H   BDP d1197       6.729  10.176  -2.470  0.00  0.00     0.092 H 
ATOM     20  O1  ASG d1198       7.617  11.552  -1.211  0.00  0.00    -0.348 OA
ATOM     21  O7  ASG d1198       8.766  16.200  -1.324  0.00  0.00    -0.274 OA
ATOM     22  OSB ASG d1198      14.068  11.528  -0.384  0.00  0.00    -0.572 OA
ATOM     23  C3  ASG d1198      11.063  12.768  -2.281  0.00  0.00     0.094 C 
ATOM     24  C2  ASG d1198       9.715  12.761  -1.542  0.00  0.00     0.087 C 
ATOM     25  S   ASG d1198      13.227  10.348  -0.684  0.00  0.00     0.252 S 
ATOM     26  N   ASG d1198       9.155  14.073  -1.849  0.00  0.00    -0.349 N 
ATOM     27  OSA ASG d1198      13.875   9.551  -1.749  0.00  0.00    -0.572 OA
ATOM     28  C4  ASG d1198      11.591  11.350  -2.448  0.00  0.00     0.114 C 
ATOM     29  C5  ASG d1198      10.516  10.508  -3.128  0.00  0.00     0.090 C 
ATOM     30  O4  ASG d1198      11.834  10.822  -1.140  0.00  0.00    -0.246 OA
ATOM     31  C8  ASG d1198       9.934  14.919   0.296  0.00  0.00    -0.003 C 
ATOM     32  C7  ASG d1198       9.243  15.120  -1.023  0.00  0.00     0.214 C 
ATOM     33  C1  ASG d1198       8.725  11.723  -2.111  0.00  0.00     0.154 C 
ATOM     34  OSC ASG d1198      13.083   9.523   0.538  0.00  0.00    -0.572 OA
ATOM     35  O6  ASG d1198      12.387   9.173  -3.790  0.00  0.00    -0.398 OA
ATOM     36  C6  ASG d1198      11.004   9.100  -3.446  0.00  0.00     0.043 C 
ATOM     37  O5  ASG d1198       9.360  10.453  -2.286  0.00  0.00    -0.349 OA
ATOM     38  H   ASG d1198      10.882  13.196  -3.245  0.00  0.00     0.091 H 
ATOM     39  H   ASG d1198       9.861  12.535  -0.506  0.00  0.00     0.084 H 
ATOM     40  H   ASG d1198       8.688  14.193  -2.707  0.00  0.00     0.163 HD
ATOM     41  H   ASG d1198      12.487  11.339  -3.035  0.00  0.00     0.093 H 
ATOM     42  H   ASG d1198      10.269  10.972  -4.061  0.00  0.00     0.090 H 
ATOM     43  H   ASG d1198       9.927  15.837   0.845  0.00  0.00     0.040 H 
ATOM     44  H   ASG d1198      10.945  14.612   0.126  0.00  0.00     0.040 H 
ATOM     45  H   ASG d1198       9.421  14.165   0.856  0.00  0.00     0.040 H 
ATOM     46  H   ASG d1198       8.383  12.086  -3.058  0.00  0.00     0.132 H 
ATOM     47  H   ASG d1198      12.717   8.284  -3.996  0.00  0.00     0.209 HD
ATOM     48  H   ASG d1198      10.448   8.701  -4.268  0.00  0.00     0.078 H 
ATOM     49  H   ASG d1198      10.868   8.463  -2.597  0.00  0.00     0.078 H 
ATOM     50  S   ASG d1196       1.742   7.864  -4.827  0.00  0.00     0.252 S 
ATOM     51  OSB ASG d1196       1.873   6.457  -4.386  0.00  0.00    -0.572 OA
ATOM     52  C7  ASG d1196      -0.254   8.198   0.810  0.00  0.00     0.214 C 
ATOM     53  C6  ASG d1196      -0.071  10.946  -5.274  0.00  0.00     0.043 C 
ATOM     54  C8  ASG d1196      -0.359   6.900   0.068  0.00  0.00    -0.003 C 
ATOM     55  O6  ASG d1196      -1.421  11.279  -5.616  0.00  0.00    -0.398 OA
ATOM     56  C1  ASG d1196      -1.184  10.025  -1.872  0.00  0.00     0.151 C 
ATOM     57  O4  ASG d1196       0.988   8.632  -3.729  0.00  0.00    -0.246 OA
ATOM     58  C4  ASG d1196       1.261   9.984  -3.336  0.00  0.00     0.114 C 
ATOM     59  C3  ASG d1196       1.312   9.921  -1.814  0.00  0.00     0.094 C 
ATOM     60  C5  ASG d1196       0.020  10.763  -3.766  0.00  0.00     0.090 C 
ATOM     61  OSA ASG d1196       3.091   8.437  -5.042  0.00  0.00    -0.572 OA
ATOM     62  OSC ASG d1196       0.947   7.898  -6.079  0.00  0.00    -0.572 OA
ATOM     63  C2  ASG d1196       0.023   9.224  -1.378  0.00  0.00     0.087 C 
ATOM     64  O5  ASG d1196      -1.152  10.091  -3.296  0.00  0.00    -0.349 OA
ATOM     65  O1  ASG d1196      -2.394   9.365  -1.486  0.00  0.00    -0.369 OA
ATOM     66  N   ASG d1196      -0.061   9.294   0.076  0.00  0.00    -0.349 N 
ATOM     67  O7  ASG d1196      -0.334   8.243   2.027  0.00  0.00    -0.274 OA
ATOM     68  H   ASG d1196       0.211  10.038  -5.765  0.00  0.00     0.078 H 
ATOM     69  H   ASG d1196       0.588  11.729  -5.587  0.00  0.00     0.078 H 
ATOM     70  H   ASG d1196      -0.264   7.081  -0.982  0.00  0.00     0.040 H 
ATOM     71  H   ASG d1196      -1.309   6.451   0.268  0.00  0.00     0.040 H 
ATOM     72  H   ASG d1196       0.420   6.241   0.389  0.00  0.00     0.040 H 
ATOM     73  H   ASG d1196      -2.012  10.565  -5.330  0.00  0.00     0.209 HD
ATOM     74  H   ASG d1196      -1.148  11.006  -1.448  0.00  0.00     0.132 H 
ATOM     75  H   ASG d1196       2.150  10.419  -3.742  0.00  0.00     0.093 H 
ATOM     76  H   ASG d1196       1.356  10.883  -1.348  0.00  0.00     0.091 H 
ATOM     77  H   ASG d1196       0.095  11.739  -3.333  0.00  0.00     0.090 H 
ATOM     78  H   ASG d1196       0.025   8.223  -1.758  0.00  0.00     0.084 H 
ATOM     79  H   ASG d1196      -2.416   8.477  -1.876  0.00  0.00     0.212 HD
ATOM     80  H   ASG d1196       0.027  10.166   0.523  0.00  0.00     0.163 HD
ATOM     81  O3  BDP d1199      15.614  16.918  -1.802  0.00  0.00    -0.393 OA
ATOM     82  O1  BDP d1199      12.047  13.588  -1.629  0.00  0.00    -0.348 OA
ATOM     83  O6A BDP d1199      14.179  13.425  -6.445  0.00  0.00    -0.646 OA
ATOM     84  C4  BDP d1199      15.231  15.392  -3.624  0.00  0.00    -0.005 C 
ATOM     85  O5  BDP d1199      13.281  13.901  -3.555  0.00  0.00    -0.343 OA
ATOM     86  C1  BDP d1199      12.692  14.582  -2.439  0.00  0.00     0.159 C 
ATOM     87  C5  BDP d1199      14.160  14.643  -4.409  0.00  0.00     0.127 C 
ATOM     88  C2  BDP d1199      13.722  15.389  -1.643  0.00  0.00     0.107 C 
ATOM     89  C3  BDP d1199      14.587  16.257  -2.552  0.00  0.00     0.068 C 
ATOM     90  C6  BDP d1199      14.792  13.693  -5.387  0.00  0.00     0.203 C 
ATOM     91  O2  BDP d1199      13.038  16.230  -0.710  0.00  0.00    -0.388 OA
ATOM     92  O6B BDP d1199      15.901  13.188  -5.106  0.00  0.00    -0.646 OA
ATOM     93  H   BDP d1199      16.151  17.463  -2.398  0.00  0.00     0.210 HD
ATOM     94  H   BDP d1199      15.889  14.686  -3.160  0.00  0.00     0.041 H 
ATOM     95  H   BDP d1199      15.782  16.018  -4.294  0.00  0.00     0.041 H 
ATOM     96  H   BDP d1199      11.979  15.301  -2.783  0.00  0.00     0.133 H 
ATOM     97  H   BDP d1199      13.586  15.384  -4.926  0.00  0.00     0.100 H 
ATOM     98  H   BDP d1199      14.362  14.699  -1.134  0.00  0.00     0.094 H 
ATOM     99  H   BDP d1199      13.961  16.997  -3.005  0.00  0.00     0.087 H 
ATOM    100  H   BDP d1199      12.465  16.847  -1.191  0.00  0.00     0.210 HD
ENDROOT
TORSDOF 25
ENDMDL
MODEL 19
REMARK VINA RESULT:      -4.7      2.887     12.243
REMARK  0 active torsions:
REMARK  status: ('A' for Active; 'I' for Inactive)
REMARK       I    between atoms: C5_1  and  C6_46 
REMARK       I    between atoms: O1_2  and  C4_60 
REMARK       I    between atoms: O1_2  and  C1_47 
REMARK       I    between atoms: S_3  and  O4_24 
REMARK       I    between atoms: C7_6  and  C8_11 
REMARK       I    between atoms: C7_6  and  N_48 
REMARK       I    between atoms: O3_7  and  C3_41 
REMARK       I    between atoms: O1_9  and  C3_31 
REMARK       I    between atoms: O1_9  and  C1_19 
REMARK       I    between atoms: C6_10  and  C5_34 
REMARK       I    between atoms: C6_10  and  O6_12 
REMARK       I    between atoms: C3_13  and  O1_16 
REMARK       I    between atoms: C2_14  and  N_20 
REMARK       I    between atoms: C1_15  and  O1_45 
REMARK       I    between atoms: O1_16  and  C1_29 
REMARK       I    between atoms: S_17  and  O4_30 
REMARK       I    between atoms: N_20  and  C7_40 
REMARK       I    between atoms: C4_22  and  O4_30 
REMARK       I    between atoms: O4_24  and  C4_28 
REMARK       I    between atoms: C5_25  and  C6_55 
REMARK       I    between atoms: C2_32  and  O2_39 
REMARK       I    between atoms: C5_33  and  C6_51 
REMARK       I    between atoms: C2_36  and  O2_56 
REMARK       I    between atoms: C8_37  and  C7_40 
REMARK       I    between atoms: C2_43  and  N_48 
REMARK       I    between atoms: C3_50  and  O3_53 
REMARK       I    between atoms: O6_54  and  C6_55 
ROOT
ATOM      1  C5  BDP d1197       3.887  10.902  -1.002  0.00  0.00     0.152 C 
ATOM      2  O1  BDP d1197       0.542   9.405  -1.521  0.00  0.00    -0.348 OA
ATOM      3  C1  BDP d1197       1.646   9.909  -0.743  0.00  0.00     0.160 C 
ATOM      4  O5  BDP d1197       2.623  10.539  -1.582  0.00  0.00    -0.340 OA
ATOM      5  C2  BDP d1197       2.263   8.740   0.027  0.00  0.00     0.110 C 
ATOM      6  O6A BDP d1197       5.319  12.401  -2.158  0.00  0.00    -0.646 OA
ATOM      7  O2  BDP d1197       1.329   8.278   1.013  0.00  0.00    -0.388 OA
ATOM      8  C6  BDP d1197       4.797  11.264  -2.136  0.00  0.00     0.206 C 
ATOM      9  C3  BDP d1197       3.597   9.070   0.700  0.00  0.00     0.092 C 
ATOM     10  O6B BDP d1197       5.004  10.397  -3.013  0.00  0.00    -0.646 OA
ATOM     11  O3  BDP d1197       4.183   7.839   1.144  0.00  0.00    -0.390 OA
ATOM     12  C4  BDP d1197       4.577   9.772  -0.239  0.00  0.00     0.103 C 
ATOM     13  H   BDP d1197       3.698  11.691  -0.305  0.00  0.00     0.104 H 
ATOM     14  H   BDP d1197       1.294  10.652  -0.059  0.00  0.00     0.133 H 
ATOM     15  H   BDP d1197       2.474   7.980  -0.696  0.00  0.00     0.094 H 
ATOM     16  H   BDP d1197       1.157   8.987   1.653  0.00  0.00     0.210 HD
ATOM     17  H   BDP d1197       3.403   9.741   1.512  0.00  0.00     0.091 H 
ATOM     18  H   BDP d1197       4.342   7.262   0.381  0.00  0.00     0.210 HD
ATOM     19  H   BDP d1197       4.937   9.049  -0.941  0.00  0.00     0.092 H 
ATOM     20  O1  ASG d1198       5.685  10.313   0.511  0.00  0.00    -0.348 OA
ATOM     21  O7  ASG d1198       8.109  14.440   0.679  0.00  0.00    -0.274 OA
ATOM     22  OSB ASG d1198      11.118   8.738   3.721  0.00  0.00    -0.572 OA
ATOM     23  C3  ASG d1198       9.481  10.431   0.784  0.00  0.00     0.094 C 
ATOM     24  C2  ASG d1198       8.021  10.878   0.958  0.00  0.00     0.087 C 
ATOM     25  S   ASG d1198      10.130   7.785   3.166  0.00  0.00     0.252 S 
ATOM     26  N   ASG d1198       8.016  12.233   0.416  0.00  0.00    -0.349 N 
ATOM     27  OSA ASG d1198      10.848   6.704   2.454  0.00  0.00    -0.572 OA
ATOM     28  C4  ASG d1198       9.593   8.914   0.880  0.00  0.00     0.114 C 
ATOM     29  C5  ASG d1198       8.630   8.292  -0.127  0.00  0.00     0.090 C 
ATOM     30  O4  ASG d1198       9.193   8.533   2.200  0.00  0.00    -0.246 OA
ATOM     31  C8  ASG d1198       8.199  13.144   2.665  0.00  0.00    -0.003 C 
ATOM     32  C7  ASG d1198       8.110  13.328   1.177  0.00  0.00     0.214 C 
ATOM     33  C1  ASG d1198       7.037  10.062   0.093  0.00  0.00     0.154 C 
ATOM     34  OSC ASG d1198       9.329   7.208   4.270  0.00  0.00    -0.572 OA
ATOM     35  O6  ASG d1198      10.135   6.438   0.017  0.00  0.00    -0.398 OA
ATOM     36  C6  ASG d1198       8.763   6.775  -0.187  0.00  0.00     0.043 C 
ATOM     37  O5  ASG d1198       7.290   8.659   0.216  0.00  0.00    -0.349 OA
ATOM     38  H   ASG d1198       9.785  10.749  -0.190  0.00  0.00     0.091 H 
ATOM     39  H   ASG d1198       7.718  10.771   1.979  0.00  0.00     0.084 H 
ATOM     40  H   ASG d1198       7.939  12.346  -0.559  0.00  0.00     0.163 HD
ATOM     41  H   ASG d1198      10.592   8.589   0.676  0.00  0.00     0.093 H 
ATOM     42  H   ASG d1198       8.877   8.667  -1.099  0.00  0.00     0.090 H 
ATOM     43  H   ASG d1198       8.269  14.101   3.138  0.00  0.00     0.040 H 
ATOM     44  H   ASG d1198       9.068  12.565   2.901  0.00  0.00     0.040 H 
ATOM     45  H   ASG d1198       7.325  12.636   3.015  0.00  0.00     0.040 H 
ATOM     46  H   ASG d1198       7.174  10.362  -0.925  0.00  0.00     0.132 H 
ATOM     47  H   ASG d1198      10.240   5.474  -0.018  0.00  0.00     0.209 HD
ATOM     48  H   ASG d1198       8.442   6.422  -1.144  0.00  0.00     0.078 H 
ATOM     49  H   ASG d1198       8.156   6.322   0.569  0.00  0.00     0.078 H 
ATOM     50  S   ASG d1196       0.659   7.797  -4.929  0.00  0.00     0.252 S 
ATOM     51  OSB ASG d1196       0.207   6.481  -4.422  0.00  0.00    -0.572 OA
ATOM     52  C7  ASG d1196      -3.006   9.435  -0.483  0.00  0.00     0.214 C 
ATOM     53  C6  ASG d1196       0.110  11.147  -6.137  0.00  0.00     0.043 C 
ATOM     54  C8  ASG d1196      -3.219   8.116  -1.164  0.00  0.00    -0.003 C 
ATOM     55  O6  ASG d1196      -0.871  11.766  -6.976  0.00  0.00    -0.398 OA
ATOM     56  C1  ASG d1196      -2.350  11.039  -3.380  0.00  0.00     0.151 C 
ATOM     57  O4  ASG d1196      -0.173   8.882  -4.226  0.00  0.00    -0.246 OA
ATOM     58  C4  ASG d1196       0.327  10.159  -3.807  0.00  0.00     0.114 C 
ATOM     59  C3  ASG d1196      -0.183  10.301  -2.378  0.00  0.00     0.094 C 
ATOM     60  C5  ASG d1196      -0.395  11.163  -4.701  0.00  0.00     0.090 C 
ATOM     61  OSA ASG d1196       2.101   7.964  -4.637  0.00  0.00    -0.572 OA
ATOM     62  OSC ASG d1196       0.404   7.856  -6.389  0.00  0.00    -0.572 OA
ATOM     63  C2  ASG d1196      -1.687  10.031  -2.439  0.00  0.00     0.087 C 
ATOM     64  O5  ASG d1196      -1.799  10.892  -4.687  0.00  0.00    -0.349 OA
ATOM     65  O1  ASG d1196      -3.754  10.777  -3.458  0.00  0.00    -0.369 OA
ATOM     66  N   ASG d1196      -2.254  10.327  -1.128  0.00  0.00    -0.349 N 
ATOM     67  O7  ASG d1196      -3.493   9.671   0.610  0.00  0.00    -0.274 OA
ATOM     68  H   ASG d1196       0.267  10.136  -6.453  0.00  0.00     0.078 H 
ATOM     69  H   ASG d1196       1.035  11.680  -6.204  0.00  0.00     0.078 H 
ATOM     70  H   ASG d1196      -2.710   8.115  -2.105  0.00  0.00     0.040 H 
ATOM     71  H   ASG d1196      -4.265   7.961  -1.323  0.00  0.00     0.040 H 
ATOM     72  H   ASG d1196      -2.833   7.330  -0.549  0.00  0.00     0.040 H 
ATOM     73  H   ASG d1196      -1.707  11.277  -6.910  0.00  0.00     0.209 HD
ATOM     74  H   ASG d1196      -2.180  12.028  -3.009  0.00  0.00     0.132 H 
ATOM     75  H   ASG d1196       1.388  10.286  -3.861  0.00  0.00     0.093 H 
ATOM     76  H   ASG d1196      -0.026  11.276  -1.963  0.00  0.00     0.091 H 
ATOM     77  H   ASG d1196      -0.195  12.137  -4.307  0.00  0.00     0.090 H 
ATOM     78  H   ASG d1196      -1.845   9.021  -2.754  0.00  0.00     0.084 H 
ATOM     79  H   ASG d1196      -3.897   9.878  -3.796  0.00  0.00     0.212 HD
ATOM     80  H   ASG d1196      -2.077  11.201  -0.711  0.00  0.00     0.163 HD
ATOM     81  O3  BDP d1199      14.573  13.284   2.807  0.00  0.00    -0.393 OA
ATOM     82  O1  BDP d1199      10.366  11.051   1.732  0.00  0.00    -0.348 OA
ATOM     83  O6A BDP d1199      13.911   9.658  -1.909  0.00  0.00    -0.646 OA
ATOM     84  C4  BDP d1199      14.428  11.666   1.030  0.00  0.00    -0.005 C 
ATOM     85  O5  BDP d1199      12.234  10.757   0.407  0.00  0.00    -0.343 OA
ATOM     86  C1  BDP d1199      11.516  11.718   1.192  0.00  0.00     0.159 C 
ATOM     87  C5  BDP d1199      13.533  11.117  -0.076  0.00  0.00     0.127 C 
ATOM     88  C2  BDP d1199      12.387  12.336   2.290  0.00  0.00     0.107 C 
ATOM     89  C3  BDP d1199      13.732  12.812   1.747  0.00  0.00     0.068 C 
ATOM     90  C6  BDP d1199      14.162   9.906  -0.708  0.00  0.00     0.203 C 
ATOM     91  O2  BDP d1199      11.697  13.450   2.865  0.00  0.00    -0.388 OA
ATOM     92  O6B BDP d1199      14.899   9.176  -0.010  0.00  0.00    -0.646 OA
ATOM     93  H   BDP d1199      15.420  13.581   2.440  0.00  0.00     0.210 HD
ATOM     94  H   BDP d1199      14.642  10.887   1.732  0.00  0.00     0.041 H 
ATOM     95  H   BDP d1199      15.338  12.026   0.597  0.00  0.00     0.041 H 
ATOM     96  H   BDP d1199      11.215  12.542   0.578  0.00  0.00     0.133 H 
ATOM     97  H   BDP d1199      13.423  11.900  -0.797  0.00  0.00     0.100 H 
ATOM     98  H   BDP d1199      12.574  11.583   3.027  0.00  0.00     0.094 H 
ATOM     99  H   BDP d1199      13.552  13.617   1.065  0.00  0.00     0.087 H 
ATOM    100  H   BDP d1199      11.539  14.119   2.181  0.00  0.00     0.210 HD
ENDROOT
TORSDOF 25
ENDMDL
MODEL 20
REMARK VINA RESULT:      -4.6      3.600     12.847
REMARK  0 active torsions:
REMARK  status: ('A' for Active; 'I' for Inactive)
REMARK       I    between atoms: C5_1  and  C6_46 
REMARK       I    between atoms: O1_2  and  C4_60 
REMARK       I    between atoms: O1_2  and  C1_47 
REMARK       I    between atoms: S_3  and  O4_24 
REMARK       I    between atoms: C7_6  and  C8_11 
REMARK       I    between atoms: C7_6  and  N_48 
REMARK       I    between atoms: O3_7  and  C3_41 
REMARK       I    between atoms: O1_9  and  C3_31 
REMARK       I    between atoms: O1_9  and  C1_19 
REMARK       I    between atoms: C6_10  and  C5_34 
REMARK       I    between atoms: C6_10  and  O6_12 
REMARK       I    between atoms: C3_13  and  O1_16 
REMARK       I    between atoms: C2_14  and  N_20 
REMARK       I    between atoms: C1_15  and  O1_45 
REMARK       I    between atoms: O1_16  and  C1_29 
REMARK       I    between atoms: S_17  and  O4_30 
REMARK       I    between atoms: N_20  and  C7_40 
REMARK       I    between atoms: C4_22  and  O4_30 
REMARK       I    between atoms: O4_24  and  C4_28 
REMARK       I    between atoms: C5_25  and  C6_55 
REMARK       I    between atoms: C2_32  and  O2_39 
REMARK       I    between atoms: C5_33  and  C6_51 
REMARK       I    between atoms: C2_36  and  O2_56 
REMARK       I    between atoms: C8_37  and  C7_40 
REMARK       I    between atoms: C2_43  and  N_48 
REMARK       I    between atoms: C3_50  and  O3_53 
REMARK       I    between atoms: O6_54  and  C6_55 
ROOT
ATOM      1  C5  BDP d1197       7.211  10.977  -2.728  0.00  0.00     0.152 C 
ATOM      2  O1  BDP d1197       3.550  10.857  -2.193  0.00  0.00    -0.348 OA
ATOM      3  C1  BDP d1197       4.758  10.991  -2.968  0.00  0.00     0.160 C 
ATOM      4  O5  BDP d1197       5.915  10.684  -2.180  0.00  0.00    -0.340 OA
ATOM      5  C2  BDP d1197       4.828  12.421  -3.504  0.00  0.00     0.110 C 
ATOM      6  O6A BDP d1197       9.145  10.025  -1.734  0.00  0.00    -0.646 OA
ATOM      7  O2  BDP d1197       3.779  12.620  -4.462  0.00  0.00    -0.388 OA
ATOM      8  C6  BDP d1197       8.198  10.833  -1.610  0.00  0.00     0.206 C 
ATOM      9  C3  BDP d1197       6.173  12.787  -4.135  0.00  0.00     0.092 C 
ATOM     10  O6B BDP d1197       8.033  11.546  -0.596  0.00  0.00    -0.646 OA
ATOM     11  O3  BDP d1197       6.191  14.206  -4.341  0.00  0.00    -0.390 OA
ATOM     12  C4  BDP d1197       7.363  12.401  -3.258  0.00  0.00     0.103 C 
ATOM     13  H   BDP d1197       7.361  10.310  -3.551  0.00  0.00     0.104 H 
ATOM     14  H   BDP d1197       4.741  10.296  -3.782  0.00  0.00     0.133 H 
ATOM     15  H   BDP d1197       4.710  13.067  -2.659  0.00  0.00     0.094 H 
ATOM     16  H   BDP d1197       3.912  12.023  -5.215  0.00  0.00     0.210 HD
ATOM     17  H   BDP d1197       6.268  12.245  -5.053  0.00  0.00     0.091 H 
ATOM     18  H   BDP d1197       6.103  14.659  -3.488  0.00  0.00     0.210 HD
ATOM     19  H   BDP d1197       7.396  13.078  -2.429  0.00  0.00     0.092 H 
ATOM     20  O1  ASG d1198       8.590  12.499  -4.012  0.00  0.00    -0.348 OA
ATOM     21  O7  ASG d1198      12.507   9.824  -4.675  0.00  0.00    -0.274 OA
ATOM     22  OSB ASG d1198      12.853  16.684  -6.583  0.00  0.00    -0.572 OA
ATOM     23  C3  ASG d1198      12.090  13.997  -4.060  0.00  0.00     0.094 C 
ATOM     24  C2  ASG d1198      10.946  13.027  -4.394  0.00  0.00     0.087 C 
ATOM     25  S   ASG d1198      11.563  17.038  -5.949  0.00  0.00     0.252 S 
ATOM     26  N   ASG d1198      11.508  11.719  -4.073  0.00  0.00    -0.349 N 
ATOM     27  OSA ASG d1198      11.773  18.181  -5.032  0.00  0.00    -0.572 OA
ATOM     28  C4  ASG d1198      11.562  15.418  -3.908  0.00  0.00     0.114 C 
ATOM     29  C5  ASG d1198      10.436  15.410  -2.879  0.00  0.00     0.090 C 
ATOM     30  O4  ASG d1198      11.029  15.819  -5.174  0.00  0.00    -0.246 OA
ATOM     31  C8  ASG d1198      12.036  11.359  -6.422  0.00  0.00    -0.003 C 
ATOM     32  C7  ASG d1198      12.042  10.906  -4.990  0.00  0.00     0.214 C 
ATOM     33  C1  ASG d1198       9.719  13.208  -3.475  0.00  0.00     0.154 C 
ATOM     34  OSC ASG d1198      10.586  17.414  -6.997  0.00  0.00    -0.572 OA
ATOM     35  O6  ASG d1198      11.033  17.713  -2.633  0.00  0.00    -0.398 OA
ATOM     36  C6  ASG d1198       9.927  16.813  -2.572  0.00  0.00     0.043 C 
ATOM     37  O5  ASG d1198       9.366  14.590  -3.359  0.00  0.00    -0.349 OA
ATOM     38  H   ASG d1198      12.507  13.672  -3.130  0.00  0.00     0.091 H 
ATOM     39  H   ASG d1198      10.618  13.172  -5.402  0.00  0.00     0.084 H 
ATOM     40  H   ASG d1198      11.493  11.421  -3.135  0.00  0.00     0.163 HD
ATOM     41  H   ASG d1198      12.337  16.086  -3.593  0.00  0.00     0.093 H 
ATOM     42  H   ASG d1198      10.823  15.010  -1.964  0.00  0.00     0.090 H 
ATOM     43  H   ASG d1198      12.492  10.611  -7.034  0.00  0.00     0.040 H 
ATOM     44  H   ASG d1198      12.583  12.274  -6.508  0.00  0.00     0.040 H 
ATOM     45  H   ASG d1198      11.027  11.515  -6.742  0.00  0.00     0.040 H 
ATOM     46  H   ASG d1198       9.976  12.822  -2.511  0.00  0.00     0.132 H 
ATOM     47  H   ASG d1198      10.729  18.614  -2.440  0.00  0.00     0.209 HD
ATOM     48  H   ASG d1198       9.496  16.836  -1.593  0.00  0.00     0.078 H 
ATOM     49  H   ASG d1198       9.181  17.098  -3.284  0.00  0.00     0.078 H 
ATOM     50  S   ASG d1196       3.016  11.767   1.427  0.00  0.00     0.252 S 
ATOM     51  OSB ASG d1196       2.055  12.847   1.106  0.00  0.00    -0.572 OA
ATOM     52  C7  ASG d1196       0.327   9.551  -3.444  0.00  0.00     0.214 C 
ATOM     53  C6  ASG d1196       3.917   8.336   2.055  0.00  0.00     0.043 C 
ATOM     54  C8  ASG d1196      -0.408  10.530  -2.579  0.00  0.00    -0.003 C 
ATOM     55  O6  ASG d1196       3.288   7.236   2.722  0.00  0.00    -0.398 OA
ATOM     56  C1  ASG d1196       1.613   7.891  -0.801  0.00  0.00     0.151 C 
ATOM     57  O4  ASG d1196       2.704  10.573   0.511  0.00  0.00    -0.246 OA
ATOM     58  C4  ASG d1196       3.686   9.706  -0.072  0.00  0.00     0.114 C 
ATOM     59  C3  ASG d1196       3.270   9.611  -1.535  0.00  0.00     0.094 C 
ATOM     60  C5  ASG d1196       3.453   8.358   0.605  0.00  0.00     0.090 C 
ATOM     61  OSA ASG d1196       4.396  12.259   1.204  0.00  0.00    -0.572 OA
ATOM     62  OSC ASG d1196       2.821  11.362   2.840  0.00  0.00    -0.572 OA
ATOM     63  C2  ASG d1196       1.790   9.226  -1.528  0.00  0.00     0.087 C 
ATOM     64  O5  ASG d1196       2.063   8.027   0.545  0.00  0.00    -0.349 OA
ATOM     65  O1  ASG d1196       0.227   7.536  -0.771  0.00  0.00    -0.369 OA
ATOM     66  N   ASG d1196       1.387   8.950  -2.902  0.00  0.00    -0.349 N 
ATOM     67  O7  ASG d1196      -0.027   9.324  -4.590  0.00  0.00    -0.274 OA
ATOM     68  H   ASG d1196       3.643   9.252   2.535  0.00  0.00     0.078 H 
ATOM     69  H   ASG d1196       4.981   8.227   2.095  0.00  0.00     0.078 H 
ATOM     70  H   ASG d1196       0.061  10.580  -1.619  0.00  0.00     0.040 H 
ATOM     71  H   ASG d1196      -1.423  10.212  -2.464  0.00  0.00     0.040 H 
ATOM     72  H   ASG d1196      -0.388  11.496  -3.037  0.00  0.00     0.040 H 
ATOM     73  H   ASG d1196       2.325   7.342   2.681  0.00  0.00     0.209 HD
ATOM     74  H   ASG d1196       2.175   7.138  -1.312  0.00  0.00     0.132 H 
ATOM     75  H   ASG d1196       4.705  10.018   0.028  0.00  0.00     0.093 H 
ATOM     76  H   ASG d1196       3.814   8.873  -2.087  0.00  0.00     0.091 H 
ATOM     77  H   ASG d1196       4.037   7.634   0.076  0.00  0.00     0.090 H 
ATOM     78  H   ASG d1196       1.230  10.012  -1.068  0.00  0.00     0.084 H 
ATOM     79  H   ASG d1196      -0.273   8.225  -0.306  0.00  0.00     0.212 HD
ATOM     80  H   ASG d1196       1.907   8.310  -3.439  0.00  0.00     0.163 HD
ATOM     81  O3  BDP d1199      17.891  13.873  -6.180  0.00  0.00    -0.393 OA
ATOM     82  O1  BDP d1199      13.145  13.965  -5.036  0.00  0.00    -0.348 OA
ATOM     83  O6A BDP d1199      15.821  16.051  -1.004  0.00  0.00    -0.646 OA
ATOM     84  C4  BDP d1199      17.102  14.962  -4.183  0.00  0.00    -0.005 C 
ATOM     85  O5  BDP d1199      14.733  14.771  -3.565  0.00  0.00    -0.343 OA
ATOM     86  C1  BDP d1199      14.473  13.748  -4.536  0.00  0.00     0.159 C 
ATOM     87  C5  BDP d1199      16.068  14.899  -3.063  0.00  0.00     0.127 C 
ATOM     88  C2  BDP d1199      15.513  13.738  -5.660  0.00  0.00     0.107 C 
ATOM     89  C3  BDP d1199      16.938  13.771  -5.115  0.00  0.00     0.068 C 
ATOM     90  C6  BDP d1199      16.142  16.135  -2.211  0.00  0.00     0.203 C 
ATOM     91  O2  BDP d1199      15.343  12.555  -6.446  0.00  0.00    -0.388 OA
ATOM     92  O6B BDP d1199      16.504  17.210  -2.736  0.00  0.00    -0.646 OA
ATOM     93  H   BDP d1199      18.787  13.893  -5.811  0.00  0.00     0.210 HD
ATOM     94  H   BDP d1199      16.967  15.867  -4.739  0.00  0.00     0.041 H 
ATOM     95  H   BDP d1199      18.082  14.940  -3.755  0.00  0.00     0.041 H 
ATOM     96  H   BDP d1199      14.545  12.783  -4.080  0.00  0.00     0.133 H 
ATOM     97  H   BDP d1199      16.299  14.030  -2.483  0.00  0.00     0.100 H 
ATOM     98  H   BDP d1199      15.364  14.614  -6.256  0.00  0.00     0.094 H 
ATOM     99  H   BDP d1199      17.114  12.861  -4.581  0.00  0.00     0.087 H 
ATOM    100  H   BDP d1199      15.482  11.774  -5.888  0.00  0.00     0.210 HD
ENDROOT
TORSDOF 25
ENDMDL
MODEL 21
REMARK VINA RESULT:      -4.6      2.318     12.472
REMARK  0 active torsions:
REMARK  status: ('A' for Active; 'I' for Inactive)
REMARK       I    between atoms: C5_1  and  C6_46 
REMARK       I    between atoms: O1_2  and  C4_60 
REMARK       I    between atoms: O1_2  and  C1_47 
REMARK       I    between atoms: S_3  and  O4_24 
REMARK       I    between atoms: C7_6  and  C8_11 
REMARK       I    between atoms: C7_6  and  N_48 
REMARK       I    between atoms: O3_7  and  C3_41 
REMARK       I    between atoms: O1_9  and  C3_31 
REMARK       I    between atoms: O1_9  and  C1_19 
REMARK       I    between atoms: C6_10  and  C5_34 
REMARK       I    between atoms: C6_10  and  O6_12 
REMARK       I    between atoms: C3_13  and  O1_16 
REMARK       I    between atoms: C2_14  and  N_20 
REMARK       I    between atoms: C1_15  and  O1_45 
REMARK       I    between atoms: O1_16  and  C1_29 
REMARK       I    between atoms: S_17  and  O4_30 
REMARK       I    between atoms: N_20  and  C7_40 
REMARK       I    between atoms: C4_22  and  O4_30 
REMARK       I    between atoms: O4_24  and  C4_28 
REMARK       I    between atoms: C5_25  and  C6_55 
REMARK       I    between atoms: C2_32  and  O2_39 
REMARK       I    between atoms: C5_33  and  C6_51 
REMARK       I    between atoms: C2_36  and  O2_56 
REMARK       I    between atoms: C8_37  and  C7_40 
REMARK       I    between atoms: C2_43  and  N_48 
REMARK       I    between atoms: C3_50  and  O3_53 
REMARK       I    between atoms: O6_54  and  C6_55 
ROOT
ATOM      1  C5  BDP d1197       5.212   9.048  -1.330  0.00  0.00     0.152 C 
ATOM      2  O1  BDP d1197       2.225   9.659  -3.429  0.00  0.00    -0.348 OA
ATOM      3  C1  BDP d1197       3.576   9.233  -3.165  0.00  0.00     0.160 C 
ATOM      4  O5  BDP d1197       3.853   9.234  -1.758  0.00  0.00    -0.340 OA
ATOM      5  C2  BDP d1197       4.529  10.171  -3.907  0.00  0.00     0.110 C 
ATOM      6  O6A BDP d1197       5.663   8.511   0.938  0.00  0.00    -0.646 OA
ATOM      7  O2  BDP d1197       4.377   9.978  -5.321  0.00  0.00    -0.388 OA
ATOM      8  C6  BDP d1197       5.256   9.376   0.132  0.00  0.00     0.206 C 
ATOM      9  C3  BDP d1197       6.000  10.000  -3.523  0.00  0.00     0.092 C 
ATOM     10  O6B BDP d1197       4.890  10.520   0.479  0.00  0.00    -0.646 OA
ATOM     11  O3  BDP d1197       6.732  11.101  -4.078  0.00  0.00    -0.390 OA
ATOM     12  C4  BDP d1197       6.219   9.974  -2.011  0.00  0.00     0.103 C 
ATOM     13  H   BDP d1197       5.483   8.043  -1.575  0.00  0.00     0.104 H 
ATOM     14  H   BDP d1197       3.710   8.229  -3.509  0.00  0.00     0.133 H 
ATOM     15  H   BDP d1197       4.260  11.166  -3.619  0.00  0.00     0.094 H 
ATOM     16  H   BDP d1197       4.627   9.070  -5.552  0.00  0.00     0.210 HD
ATOM     17  H   BDP d1197       6.337   9.058  -3.906  0.00  0.00     0.091 H 
ATOM     18  H   BDP d1197       6.397  11.932  -3.706  0.00  0.00     0.210 HD
ATOM     19  H   BDP d1197       6.081  10.969  -1.640  0.00  0.00     0.092 H 
ATOM     20  O1  ASG d1198       7.557   9.525  -1.709  0.00  0.00    -0.348 OA
ATOM     21  O7  ASG d1198       9.605   6.438   1.326  0.00  0.00    -0.274 OA
ATOM     22  OSB ASG d1198      13.822  11.270  -1.787  0.00  0.00    -0.572 OA
ATOM     23  C3  ASG d1198      10.751  10.357   0.189  0.00  0.00     0.094 C 
ATOM     24  C2  ASG d1198       9.692   9.498  -0.519  0.00  0.00     0.087 C 
ATOM     25  S   ASG d1198      12.697  12.050  -2.350  0.00  0.00     0.252 S 
ATOM     26  N   ASG d1198       9.365   8.479   0.473  0.00  0.00    -0.349 N 
ATOM     27  OSA ASG d1198      12.837  13.465  -1.940  0.00  0.00    -0.572 OA
ATOM     28  C4  ASG d1198      10.894  11.709  -0.499  0.00  0.00     0.114 C 
ATOM     29  C5  ASG d1198       9.517  12.361  -0.576  0.00  0.00     0.090 C 
ATOM     30  O4  ASG d1198      11.368  11.470  -1.827  0.00  0.00    -0.246 OA
ATOM     31  C8  ASG d1198      10.870   6.913  -0.625  0.00  0.00    -0.003 C 
ATOM     32  C7  ASG d1198       9.902   7.255   0.472  0.00  0.00     0.214 C 
ATOM     33  C1  ASG d1198       8.383  10.267  -0.796  0.00  0.00     0.154 C 
ATOM     34  OSC ASG d1198      12.721  11.954  -3.827  0.00  0.00    -0.572 OA
ATOM     35  O6  ASG d1198      10.798  14.377  -0.703  0.00  0.00    -0.398 OA
ATOM     36  C6  ASG d1198       9.582  13.774  -1.143  0.00  0.00     0.043 C 
ATOM     37  O5  ASG d1198       8.655  11.546  -1.377  0.00  0.00    -0.349 OA
ATOM     38  H   ASG d1198      10.408  10.503   1.192  0.00  0.00     0.091 H 
ATOM     39  H   ASG d1198      10.065   9.147  -1.458  0.00  0.00     0.084 H 
ATOM     40  H   ASG d1198       8.717   8.704   1.179  0.00  0.00     0.163 HD
ATOM     41  H   ASG d1198      11.568  12.345   0.037  0.00  0.00     0.093 H 
ATOM     42  H   ASG d1198       9.129  12.440   0.418  0.00  0.00     0.090 H 
ATOM     43  H   ASG d1198      11.213   5.908  -0.497  0.00  0.00     0.040 H 
ATOM     44  H   ASG d1198      11.703   7.583  -0.587  0.00  0.00     0.040 H 
ATOM     45  H   ASG d1198      10.382   7.004  -1.573  0.00  0.00     0.040 H 
ATOM     46  H   ASG d1198       7.880  10.399   0.139  0.00  0.00     0.132 H 
ATOM     47  H   ASG d1198      10.858  15.280  -1.054  0.00  0.00     0.209 HD
ATOM     48  H   ASG d1198       8.748  14.344  -0.790  0.00  0.00     0.078 H 
ATOM     49  H   ASG d1198       9.551  13.745  -2.212  0.00  0.00     0.078 H 
ATOM     50  S   ASG d1196       0.260  12.343  -1.654  0.00  0.00     0.252 S 
ATOM     51  OSB ASG d1196       0.200  13.215  -2.849  0.00  0.00    -0.572 OA
ATOM     52  C7  ASG d1196       0.019   8.296  -6.063  0.00  0.00     0.214 C 
ATOM     53  C6  ASG d1196      -0.896   9.630   0.417  0.00  0.00     0.043 C 
ATOM     54  C8  ASG d1196      -0.565   9.660  -6.283  0.00  0.00    -0.003 C 
ATOM     55  O6  ASG d1196      -2.183   9.108   0.766  0.00  0.00    -0.398 OA
ATOM     56  C1  ASG d1196      -1.198   8.073  -2.922  0.00  0.00     0.151 C 
ATOM     57  O4  ASG d1196       0.023  10.896  -2.116  0.00  0.00    -0.246 OA
ATOM     58  C4  ASG d1196       0.679   9.742  -1.574  0.00  0.00     0.114 C 
ATOM     59  C3  ASG d1196       1.133   8.966  -2.804  0.00  0.00     0.094 C 
ATOM     60  C5  ASG d1196      -0.434   8.966  -0.873  0.00  0.00     0.090 C 
ATOM     61  OSA ASG d1196       1.588  12.482  -1.012  0.00  0.00    -0.572 OA
ATOM     62  OSC ASG d1196      -0.823  12.741  -0.721  0.00  0.00    -0.572 OA
ATOM     63  C2  ASG d1196      -0.105   8.819  -3.690  0.00  0.00     0.087 C 
ATOM     64  O5  ASG d1196      -1.546   8.821  -1.759  0.00  0.00    -0.349 OA
ATOM     65  O1  ASG d1196      -2.367   7.953  -3.739  0.00  0.00    -0.369 OA
ATOM     66  N   ASG d1196       0.234   7.934  -4.798  0.00  0.00    -0.349 N 
ATOM     67  O7  ASG d1196       0.290   7.563  -7.000  0.00  0.00    -0.274 OA
ATOM     68  H   ASG d1196      -0.964  10.688   0.273  0.00  0.00     0.078 H 
ATOM     69  H   ASG d1196      -0.196   9.430   1.201  0.00  0.00     0.078 H 
ATOM     70  H   ASG d1196      -0.726  10.135  -5.338  0.00  0.00     0.040 H 
ATOM     71  H   ASG d1196      -1.496   9.569  -6.801  0.00  0.00     0.040 H 
ATOM     72  H   ASG d1196       0.112  10.248  -6.867  0.00  0.00     0.040 H 
ATOM     73  H   ASG d1196      -2.812   9.293   0.051  0.00  0.00     0.209 HD
ATOM     74  H   ASG d1196      -0.836   7.104  -2.652  0.00  0.00     0.132 H 
ATOM     75  H   ASG d1196       1.494   9.936  -0.908  0.00  0.00     0.093 H 
ATOM     76  H   ASG d1196       1.511   7.990  -2.579  0.00  0.00     0.091 H 
ATOM     77  H   ASG d1196      -0.033   8.010  -0.610  0.00  0.00     0.090 H 
ATOM     78  H   ASG d1196      -0.423   9.791  -4.003  0.00  0.00     0.084 H 
ATOM     79  H   ASG d1196      -2.687   8.837  -3.977  0.00  0.00     0.212 HD
ATOM     80  H   ASG d1196       0.628   7.052  -4.609  0.00  0.00     0.163 HD
ATOM     81  O3  BDP d1199      16.042   8.474   2.762  0.00  0.00    -0.393 OA
ATOM     82  O1  BDP d1199      12.030   9.706   0.266  0.00  0.00    -0.348 OA
ATOM     83  O6A BDP d1199      12.662  13.215   4.147  0.00  0.00    -0.646 OA
ATOM     84  C4  BDP d1199      14.851  10.513   3.227  0.00  0.00    -0.005 C 
ATOM     85  O5  BDP d1199      12.722  10.950   2.085  0.00  0.00    -0.343 OA
ATOM     86  C1  BDP d1199      12.625   9.616   1.569  0.00  0.00     0.159 C 
ATOM     87  C5  BDP d1199      13.469  11.155   3.289  0.00  0.00     0.127 C 
ATOM     88  C2  BDP d1199      13.984   8.909   1.530  0.00  0.00     0.107 C 
ATOM     89  C3  BDP d1199      14.731   9.044   2.855  0.00  0.00     0.068 C 
ATOM     90  C6  BDP d1199      13.586  12.633   3.535  0.00  0.00     0.203 C 
ATOM     91  O2  BDP d1199      13.783   7.521   1.249  0.00  0.00    -0.388 OA
ATOM     92  O6B BDP d1199      14.593  13.238   3.106  0.00  0.00    -0.646 OA
ATOM     93  H   BDP d1199      16.498   8.570   3.612  0.00  0.00     0.210 HD
ATOM     94  H   BDP d1199      15.442  11.018   2.491  0.00  0.00     0.041 H 
ATOM     95  H   BDP d1199      15.317  10.594   4.187  0.00  0.00     0.041 H 
ATOM     96  H   BDP d1199      12.017   9.017   2.215  0.00  0.00     0.133 H 
ATOM     97  H   BDP d1199      12.949  10.682   4.097  0.00  0.00     0.100 H 
ATOM     98  H   BDP d1199      14.574   9.371   0.767  0.00  0.00     0.094 H 
ATOM     99  H   BDP d1199      14.179   8.519   3.606  0.00  0.00     0.087 H 
ATOM    100  H   BDP d1199      13.247   7.123   1.952  0.00  0.00     0.210 HD
ENDROOT
TORSDOF 25
ENDMDL
MODEL 22
REMARK VINA RESULT:      -4.5      2.388     12.334
REMARK  0 active torsions:
REMARK  status: ('A' for Active; 'I' for Inactive)
REMARK       I    between atoms: C5_1  and  C6_46 
REMARK       I    between atoms: O1_2  and  C4_60 
REMARK       I    between atoms: O1_2  and  C1_47 
REMARK       I    between atoms: S_3  and  O4_24 
REMARK       I    between atoms: C7_6  and  C8_11 
REMARK       I    between atoms: C7_6  and  N_48 
REMARK       I    between atoms: O3_7  and  C3_41 
REMARK       I    between atoms: O1_9  and  C3_31 
REMARK       I    between atoms: O1_9  and  C1_19 
REMARK       I    between atoms: C6_10  and  C5_34 
REMARK       I    between atoms: C6_10  and  O6_12 
REMARK       I    between atoms: C3_13  and  O1_16 
REMARK       I    between atoms: C2_14  and  N_20 
REMARK       I    between atoms: C1_15  and  O1_45 
REMARK       I    between atoms: O1_16  and  C1_29 
REMARK       I    between atoms: S_17  and  O4_30 
REMARK       I    between atoms: N_20  and  C7_40 
REMARK       I    between atoms: C4_22  and  O4_30 
REMARK       I    between atoms: O4_24  and  C4_28 
REMARK       I    between atoms: C5_25  and  C6_55 
REMARK       I    between atoms: C2_32  and  O2_39 
REMARK       I    between atoms: C5_33  and  C6_51 
REMARK       I    between atoms: C2_36  and  O2_56 
REMARK       I    between atoms: C8_37  and  C7_40 
REMARK       I    between atoms: C2_43  and  N_48 
REMARK       I    between atoms: C3_50  and  O3_53 
REMARK       I    between atoms: O6_54  and  C6_55 
ROOT
ATOM      1  C5  BDP d1197       4.273   9.711  -1.669  0.00  0.00     0.152 C 
ATOM      2  O1  BDP d1197       1.512  10.503  -4.004  0.00  0.00    -0.348 OA
ATOM      3  C1  BDP d1197       2.707   9.825  -3.569  0.00  0.00     0.160 C 
ATOM      4  O5  BDP d1197       3.003  10.125  -2.199  0.00  0.00    -0.340 OA
ATOM      5  C2  BDP d1197       3.858  10.251  -4.481  0.00  0.00     0.110 C 
ATOM      6  O6A BDP d1197       4.611   9.693   0.681  0.00  0.00    -0.646 OA
ATOM      7  O2  BDP d1197       3.632   9.738  -5.801  0.00  0.00    -0.388 OA
ATOM      8  C6  BDP d1197       4.432  10.390  -0.343  0.00  0.00     0.206 C 
ATOM      9  C3  BDP d1197       5.240   9.809  -3.991  0.00  0.00     0.092 C 
ATOM     10  O6B BDP d1197       4.390  11.640  -0.323  0.00  0.00    -0.646 OA
ATOM     11  O3  BDP d1197       6.225  10.495  -4.775  0.00  0.00    -0.390 OA
ATOM     12  C4  BDP d1197       5.475  10.128  -2.515  0.00  0.00     0.103 C 
ATOM     13  H   BDP d1197       4.262   8.642  -1.630  0.00  0.00     0.104 H 
ATOM     14  H   BDP d1197       2.563   8.766  -3.633  0.00  0.00     0.133 H 
ATOM     15  H   BDP d1197       3.869  11.321  -4.475  0.00  0.00     0.094 H 
ATOM     16  H   BDP d1197       3.628   8.768  -5.775  0.00  0.00     0.210 HD
ATOM     17  H   BDP d1197       5.306   8.746  -4.098  0.00  0.00     0.091 H 
ATOM     18  H   BDP d1197       6.131  11.452  -4.649  0.00  0.00     0.210 HD
ATOM     19  H   BDP d1197       5.613  11.185  -2.423  0.00  0.00     0.092 H 
ATOM     20  O1  ASG d1198       6.651   9.442  -2.039  0.00  0.00    -0.348 OA
ATOM     21  O7  ASG d1198       7.870   6.842   1.794  0.00  0.00    -0.274 OA
ATOM     22  OSB ASG d1198      13.152   9.405  -2.249  0.00  0.00    -0.572 OA
ATOM     23  C3  ASG d1198       9.991   9.881  -0.263  0.00  0.00     0.094 C 
ATOM     24  C2  ASG d1198       8.727   9.173  -0.776  0.00  0.00     0.087 C 
ATOM     25  S   ASG d1198      12.262  10.274  -3.052  0.00  0.00     0.252 S 
ATOM     26  N   ASG d1198       8.162   8.574   0.430  0.00  0.00    -0.349 N 
ATOM     27  OSA ASG d1198      12.782  11.660  -3.018  0.00  0.00    -0.572 OA
ATOM     28  C4  ASG d1198      10.472  10.918  -1.270  0.00  0.00     0.114 C 
ATOM     29  C5  ASG d1198       9.316  11.862  -1.585  0.00  0.00     0.090 C 
ATOM     30  O4  ASG d1198      10.839  10.221  -2.465  0.00  0.00    -0.246 OA
ATOM     31  C8  ASG d1198       9.175   6.438  -0.146  0.00  0.00    -0.003 C 
ATOM     32  C7  ASG d1198       8.355   7.297   0.774  0.00  0.00     0.214 C 
ATOM     33  C1  ASG d1198       7.664  10.156  -1.309  0.00  0.00     0.154 C 
ATOM     34  OSC ASG d1198      12.230   9.789  -4.450  0.00  0.00    -0.572 OA
ATOM     35  O6  ASG d1198      11.084  13.366  -2.165  0.00  0.00    -0.398 OA
ATOM     36  C6  ASG d1198       9.742  13.008  -2.495  0.00  0.00     0.043 C 
ATOM     37  O5  ASG d1198       8.253  11.119  -2.189  0.00  0.00    -0.349 OA
ATOM     38  H   ASG d1198       9.719  10.372   0.649  0.00  0.00     0.091 H 
ATOM     39  H   ASG d1198       8.974   8.502  -1.571  0.00  0.00     0.084 H 
ATOM     40  H   ASG d1198       7.612   9.139   1.019  0.00  0.00     0.163 HD
ATOM     41  H   ASG d1198      11.302  11.474  -0.884  0.00  0.00     0.093 H 
ATOM     42  H   ASG d1198       8.984  12.299  -0.666  0.00  0.00     0.090 H 
ATOM     43  H   ASG d1198       9.242   5.449   0.257  0.00  0.00     0.040 H 
ATOM     44  H   ASG d1198      10.157   6.852  -0.241  0.00  0.00     0.040 H 
ATOM     45  H   ASG d1198       8.709   6.399  -1.108  0.00  0.00     0.040 H 
ATOM     46  H   ASG d1198       7.233  10.656  -0.468  0.00  0.00     0.132 H 
ATOM     47  H   ASG d1198      11.373  14.096  -2.735  0.00  0.00     0.209 HD
ATOM     48  H   ASG d1198       9.097  13.848  -2.346  0.00  0.00     0.078 H 
ATOM     49  H   ASG d1198       9.683  12.705  -3.520  0.00  0.00     0.078 H 
ATOM     50  S   ASG d1196       0.366  13.977  -3.090  0.00  0.00     0.252 S 
ATOM     51  OSB ASG d1196       0.515  14.487  -4.472  0.00  0.00    -0.572 OA
ATOM     52  C7  ASG d1196      -1.030   9.118  -6.302  0.00  0.00     0.214 C 
ATOM     53  C6  ASG d1196      -1.425  12.307  -0.446  0.00  0.00     0.043 C 
ATOM     54  C8  ASG d1196      -1.236  10.478  -6.898  0.00  0.00    -0.003 C 
ATOM     55  O6  ASG d1196      -2.797  12.251  -0.039  0.00  0.00    -0.398 OA
ATOM     56  C1  ASG d1196      -2.198  10.059  -3.276  0.00  0.00     0.151 C 
ATOM     57  O4  ASG d1196      -0.256  12.574  -3.171  0.00  0.00    -0.246 OA
ATOM     58  C4  ASG d1196       0.081  11.474  -2.315  0.00  0.00     0.114 C 
ATOM     59  C3  ASG d1196       0.288  10.310  -3.277  0.00  0.00     0.094 C 
ATOM     60  C5  ASG d1196      -1.182  11.229  -1.494  0.00  0.00     0.090 C 
ATOM     61  OSA ASG d1196       1.696  13.930  -2.440  0.00  0.00    -0.572 OA
ATOM     62  OSC ASG d1196      -0.553  14.876  -2.349  0.00  0.00    -0.572 OA
ATOM     63  C2  ASG d1196      -0.962  10.263  -4.156  0.00  0.00     0.087 C 
ATOM     64  O5  ASG d1196      -2.312  11.151  -2.367  0.00  0.00    -0.349 OA
ATOM     65  O1  ASG d1196      -3.373  10.036  -4.092  0.00  0.00    -0.369 OA
ATOM     66  N   ASG d1196      -0.894   9.059  -4.976  0.00  0.00    -0.349 N 
ATOM     67  O7  ASG d1196      -0.983   8.119  -7.000  0.00  0.00    -0.274 OA
ATOM     68  H   ASG d1196      -1.213  13.270  -0.863  0.00  0.00     0.078 H 
ATOM     69  H   ASG d1196      -0.787  12.146   0.397  0.00  0.00     0.078 H 
ATOM     70  H   ASG d1196      -1.246  11.211  -6.118  0.00  0.00     0.040 H 
ATOM     71  H   ASG d1196      -2.169  10.501  -7.421  0.00  0.00     0.040 H 
ATOM     72  H   ASG d1196      -0.440  10.693  -7.580  0.00  0.00     0.040 H 
ATOM     73  H   ASG d1196      -3.368  12.398  -0.809  0.00  0.00     0.209 HD
ATOM     74  H   ASG d1196      -2.100   9.135  -2.746  0.00  0.00     0.132 H 
ATOM     75  H   ASG d1196       0.932  11.618  -1.682  0.00  0.00     0.093 H 
ATOM     76  H   ASG d1196       0.399   9.365  -2.786  0.00  0.00     0.091 H 
ATOM     77  H   ASG d1196      -1.044  10.306  -0.971  0.00  0.00     0.090 H 
ATOM     78  H   ASG d1196      -1.018  11.166  -4.726  0.00  0.00     0.084 H 
ATOM     79  H   ASG d1196      -3.453  10.878  -4.569  0.00  0.00     0.212 HD
ATOM     80  H   ASG d1196      -0.743   8.188  -4.545  0.00  0.00     0.163 HD
ATOM     81  O3  BDP d1199      14.645   7.431   2.977  0.00  0.00    -0.393 OA
ATOM     82  O1  BDP d1199      11.053   8.963   0.047  0.00  0.00    -0.348 OA
ATOM     83  O6A BDP d1199      12.672  13.081   2.908  0.00  0.00    -0.646 OA
ATOM     84  C4  BDP d1199      14.047   9.759   2.835  0.00  0.00    -0.005 C 
ATOM     85  O5  BDP d1199      12.087  10.419   1.511  0.00  0.00    -0.343 OA
ATOM     86  C1  BDP d1199      11.629   9.068   1.356  0.00  0.00     0.159 C 
ATOM     87  C5  BDP d1199      12.886  10.731   2.658  0.00  0.00     0.127 C 
ATOM     88  C2  BDP d1199      12.750   8.048   1.572  0.00  0.00     0.107 C 
ATOM     89  C3  BDP d1199      13.534   8.328   2.852  0.00  0.00     0.068 C 
ATOM     90  C6  BDP d1199      13.396  12.138   2.516  0.00  0.00     0.203 C 
ATOM     91  O2  BDP d1199      12.183   6.737   1.651  0.00  0.00    -0.388 OA
ATOM     92  O6B BDP d1199      14.518  12.324   1.996  0.00  0.00    -0.646 OA
ATOM     93  H   BDP d1199      15.127   7.627   3.795  0.00  0.00     0.210 HD
ATOM     94  H   BDP d1199      14.736   9.878   2.024  0.00  0.00     0.041 H 
ATOM     95  H   BDP d1199      14.538   9.966   3.763  0.00  0.00     0.041 H 
ATOM     96  H   BDP d1199      10.898   8.841   2.104  0.00  0.00     0.133 H 
ATOM     97  H   BDP d1199      12.276  10.642   3.533  0.00  0.00     0.100 H 
ATOM     98  H   BDP d1199      13.427   8.120   0.746  0.00  0.00     0.094 H 
ATOM     99  H   BDP d1199      12.878   8.183   3.685  0.00  0.00     0.087 H 
ATOM    100  H   BDP d1199      11.575   6.693   2.405  0.00  0.00     0.210 HD
ENDROOT
TORSDOF 25
ENDMDL
MODEL 23
REMARK VINA RESULT:      -4.5      3.204     12.488
REMARK  0 active torsions:
REMARK  status: ('A' for Active; 'I' for Inactive)
REMARK       I    between atoms: C5_1  and  C6_46 
REMARK       I    between atoms: O1_2  and  C4_60 
REMARK       I    between atoms: O1_2  and  C1_47 
REMARK       I    between atoms: S_3  and  O4_24 
REMARK       I    between atoms: C7_6  and  C8_11 
REMARK       I    between atoms: C7_6  and  N_48 
REMARK       I    between atoms: O3_7  and  C3_41 
REMARK       I    between atoms: O1_9  and  C3_31 
REMARK       I    between atoms: O1_9  and  C1_19 
REMARK       I    between atoms: C6_10  and  C5_34 
REMARK       I    between atoms: C6_10  and  O6_12 
REMARK       I    between atoms: C3_13  and  O1_16 
REMARK       I    between atoms: C2_14  and  N_20 
REMARK       I    between atoms: C1_15  and  O1_45 
REMARK       I    between atoms: O1_16  and  C1_29 
REMARK       I    between atoms: S_17  and  O4_30 
REMARK       I    between atoms: N_20  and  C7_40 
REMARK       I    between atoms: C4_22  and  O4_30 
REMARK       I    between atoms: O4_24  and  C4_28 
REMARK       I    between atoms: C5_25  and  C6_55 
REMARK       I    between atoms: C2_32  and  O2_39 
REMARK       I    between atoms: C5_33  and  C6_51 
REMARK       I    between atoms: C2_36  and  O2_56 
REMARK       I    between atoms: C8_37  and  C7_40 
REMARK       I    between atoms: C2_43  and  N_48 
REMARK       I    between atoms: C3_50  and  O3_53 
REMARK       I    between atoms: O6_54  and  C6_55 
ROOT
ATOM      1  C5  BDP d1197       5.751  11.316   0.196  0.00  0.00     0.152 C 
ATOM      2  O1  BDP d1197       3.076   8.922   1.099  0.00  0.00    -0.348 OA
ATOM      3  C1  BDP d1197       4.315   9.635   1.285  0.00  0.00     0.160 C 
ATOM      4  O5  BDP d1197       4.478  10.656   0.293  0.00  0.00    -0.340 OA
ATOM      5  C2  BDP d1197       5.463   8.627   1.223  0.00  0.00     0.110 C 
ATOM      6  O6A BDP d1197       5.931  13.341  -1.029  0.00  0.00    -0.646 OA
ATOM      7  O2  BDP d1197       5.391   7.756   2.360  0.00  0.00    -0.388 OA
ATOM      8  C6  BDP d1197       5.735  12.107  -1.077  0.00  0.00     0.206 C 
ATOM      9  C3  BDP d1197       6.852   9.265   1.154  0.00  0.00     0.092 C 
ATOM     10  O6B BDP d1197       5.536  11.484  -2.143  0.00  0.00    -0.646 OA
ATOM     11  O3  BDP d1197       7.795   8.234   0.829  0.00  0.00    -0.390 OA
ATOM     12  C4  BDP d1197       6.946  10.368   0.100  0.00  0.00     0.103 C 
ATOM     13  H   BDP d1197       5.872  11.897   1.086  0.00  0.00     0.104 H 
ATOM     14  H   BDP d1197       4.309  10.123   2.238  0.00  0.00     0.133 H 
ATOM     15  H   BDP d1197       5.339   8.084   0.309  0.00  0.00     0.094 H 
ATOM     16  H   BDP d1197       5.507   8.275   3.172  0.00  0.00     0.210 HD
ATOM     17  H   BDP d1197       7.059   9.716   2.102  0.00  0.00     0.091 H 
ATOM     18  H   BDP d1197       7.573   7.853  -0.035  0.00  0.00     0.210 HD
ATOM     19  H   BDP d1197       6.944   9.905  -0.864  0.00  0.00     0.092 H 
ATOM     20  O1  ASG d1198       8.165  11.121   0.275  0.00  0.00    -0.348 OA
ATOM     21  O7  ASG d1198       9.438  15.737   0.367  0.00  0.00    -0.274 OA
ATOM     22  OSB ASG d1198      14.618  10.918  -0.508  0.00  0.00    -0.572 OA
ATOM     23  C3  ASG d1198      11.296  12.401  -1.473  0.00  0.00     0.094 C 
ATOM     24  C2  ASG d1198      10.168  12.331  -0.431  0.00  0.00     0.087 C 
ATOM     25  S   ASG d1198      13.683   9.790  -0.714  0.00  0.00     0.252 S 
ATOM     26  N   ASG d1198       9.603  13.676  -0.454  0.00  0.00    -0.349 N 
ATOM     27  OSA ASG d1198      14.021   9.106  -1.982  0.00  0.00    -0.572 OA
ATOM     28  C4  ASG d1198      11.711  11.002  -1.911  0.00  0.00     0.114 C 
ATOM     29  C5  ASG d1198      10.469  10.256  -2.390  0.00  0.00     0.090 C 
ATOM     30  O4  ASG d1198      12.241  10.330  -0.764  0.00  0.00    -0.246 OA
ATOM     31  C8  ASG d1198      10.911  14.269   1.510  0.00  0.00    -0.003 C 
ATOM     32  C7  ASG d1198       9.930  14.624   0.429  0.00  0.00     0.214 C 
ATOM     33  C1  ASG d1198       9.028  11.376  -0.846  0.00  0.00     0.154 C 
ATOM     34  OSC ASG d1198      13.805   8.837   0.413  0.00  0.00    -0.572 OA
ATOM     35  O6  ASG d1198      12.070   8.976  -3.624  0.00  0.00    -0.398 OA
ATOM     36  C6  ASG d1198      10.810   8.885  -2.962  0.00  0.00     0.043 C 
ATOM     37  O5  ASG d1198       9.551  10.124  -1.301  0.00  0.00    -0.349 OA
ATOM     38  H   ASG d1198      10.904  12.935  -2.314  0.00  0.00     0.091 H 
ATOM     39  H   ASG d1198      10.550  11.990   0.508  0.00  0.00     0.084 H 
ATOM     40  H   ASG d1198       8.948  13.897  -1.155  0.00  0.00     0.163 HD
ATOM     41  H   ASG d1198      12.436  11.044  -2.697  0.00  0.00     0.093 H 
ATOM     42  H   ASG d1198      10.024  10.823  -3.181  0.00  0.00     0.090 H 
ATOM     43  H   ASG d1198      11.074  15.121   2.137  0.00  0.00     0.040 H 
ATOM     44  H   ASG d1198      11.837  13.969   1.067  0.00  0.00     0.040 H 
ATOM     45  H   ASG d1198      10.519  13.465   2.097  0.00  0.00     0.040 H 
ATOM     46  H   ASG d1198       8.483  11.845  -1.637  0.00  0.00     0.132 H 
ATOM     47  H   ASG d1198      12.304   8.111  -3.996  0.00  0.00     0.209 HD
ATOM     48  H   ASG d1198      10.055   8.587  -3.660  0.00  0.00     0.078 H 
ATOM     49  H   ASG d1198      10.857   8.159  -2.177  0.00  0.00     0.078 H 
ATOM     50  S   ASG d1196       1.446   7.936  -2.155  0.00  0.00     0.252 S 
ATOM     51  OSB ASG d1196       1.624   6.487  -1.908  0.00  0.00    -0.572 OA
ATOM     52  C7  ASG d1196       0.888   7.673   3.802  0.00  0.00     0.214 C 
ATOM     53  C6  ASG d1196      -0.295  11.073  -1.824  0.00  0.00     0.043 C 
ATOM     54  C8  ASG d1196       0.554   6.466   2.978  0.00  0.00    -0.003 C 
ATOM     55  O6  ASG d1196      -1.673  11.460  -1.788  0.00  0.00    -0.398 OA
ATOM     56  C1  ASG d1196      -0.589   9.797   1.633  0.00  0.00     0.151 C 
ATOM     57  O4  ASG d1196       1.012   8.588  -0.833  0.00  0.00    -0.246 OA
ATOM     58  C4  ASG d1196       1.426   9.885  -0.380  0.00  0.00     0.114 C 
ATOM     59  C3  ASG d1196       1.841   9.653   1.067  0.00  0.00     0.094 C 
ATOM     60  C5  ASG d1196       0.150  10.723  -0.410  0.00  0.00     0.090 C 
ATOM     61  OSA ASG d1196       2.726   8.511  -2.633  0.00  0.00    -0.572 OA
ATOM     62  OSC ASG d1196       0.375   8.118  -3.165  0.00  0.00    -0.572 OA
ATOM     63  C2  ASG d1196       0.668   8.930   1.731  0.00  0.00     0.087 C 
ATOM     64  O5  ASG d1196      -0.899  10.020   0.260  0.00  0.00    -0.349 OA
ATOM     65  O1  ASG d1196      -1.695   9.115   2.233  0.00  0.00    -0.369 OA
ATOM     66  N   ASG d1196       0.941   8.840   3.160  0.00  0.00    -0.349 N 
ATOM     67  O7  ASG d1196       1.106   7.584   4.999  0.00  0.00    -0.274 OA
ATOM     68  H   ASG d1196      -0.177  10.221  -2.460  0.00  0.00     0.078 H 
ATOM     69  H   ASG d1196       0.300  11.876  -2.204  0.00  0.00     0.078 H 
ATOM     70  H   ASG d1196       0.400   6.760   1.961  0.00  0.00     0.040 H 
ATOM     71  H   ASG d1196      -0.337   6.011   3.357  0.00  0.00     0.040 H 
ATOM     72  H   ASG d1196       1.361   5.765   3.028  0.00  0.00     0.040 H 
ATOM     73  H   ASG d1196      -2.206  10.727  -1.441  0.00  0.00     0.209 HD
ATOM     74  H   ASG d1196      -0.412  10.725   2.135  0.00  0.00     0.132 H 
ATOM     75  H   ASG d1196       2.207  10.350  -0.945  0.00  0.00     0.093 H 
ATOM     76  H   ASG d1196       2.035  10.557   1.606  0.00  0.00     0.091 H 
ATOM     77  H   ASG d1196       0.367  11.644   0.090  0.00  0.00     0.090 H 
ATOM     78  H   ASG d1196       0.538   7.978   1.261  0.00  0.00     0.084 H 
ATOM     79  H   ASG d1196      -1.847   8.276   1.771  0.00  0.00     0.212 HD
ATOM     80  H   ASG d1196       1.170   9.657   3.661  0.00  0.00     0.163 HD
ATOM     81  O3  BDP d1199      15.991  16.409  -1.694  0.00  0.00    -0.393 OA
ATOM     82  O1  BDP d1199      12.441  13.130  -1.000  0.00  0.00    -0.348 OA
ATOM     83  O6A BDP d1199      13.337  13.470  -6.181  0.00  0.00    -0.646 OA
ATOM     84  C4  BDP d1199      15.118  15.099  -3.515  0.00  0.00    -0.005 C 
ATOM     85  O5  BDP d1199      13.184  13.637  -3.127  0.00  0.00    -0.343 OA
ATOM     86  C1  BDP d1199      12.910  14.198  -1.836  0.00  0.00     0.159 C 
ATOM     87  C5  BDP d1199      13.859  14.457  -4.088  0.00  0.00     0.127 C 
ATOM     88  C2  BDP d1199      14.133  14.898  -1.236  0.00  0.00     0.107 C 
ATOM     89  C3  BDP d1199      14.788  15.850  -2.235  0.00  0.00     0.068 C 
ATOM     90  C6  BDP d1199      14.198  13.612  -5.284  0.00  0.00     0.203 C 
ATOM     91  O2  BDP d1199      13.730  15.641  -0.082  0.00  0.00    -0.388 OA
ATOM     92  O6B BDP d1199      15.320  13.063  -5.337  0.00  0.00    -0.646 OA
ATOM     93  H   BDP d1199      16.389  17.009  -2.344  0.00  0.00     0.210 HD
ATOM     94  H   BDP d1199      15.839  14.337  -3.303  0.00  0.00     0.041 H 
ATOM     95  H   BDP d1199      15.515  15.788  -4.232  0.00  0.00     0.041 H 
ATOM     96  H   BDP d1199      12.164  14.961  -1.919  0.00  0.00     0.133 H 
ATOM     97  H   BDP d1199      13.208  15.258  -4.369  0.00  0.00     0.100 H 
ATOM     98  H   BDP d1199      14.849  14.147  -0.974  0.00  0.00     0.094 H 
ATOM     99  H   BDP d1199      14.101  16.644  -2.441  0.00  0.00     0.087 H 
ATOM    100  H   BDP d1199      13.083  16.315  -0.342  0.00  0.00     0.210 HD
ENDROOT
TORSDOF 25
ENDMDL
MODEL 24
REMARK VINA RESULT:      -4.5      2.521     12.767
REMARK  0 active torsions:
REMARK  status: ('A' for Active; 'I' for Inactive)
REMARK       I    between atoms: C5_1  and  C6_46 
REMARK       I    between atoms: O1_2  and  C4_60 
REMARK       I    between atoms: O1_2  and  C1_47 
REMARK       I    between atoms: S_3  and  O4_24 
REMARK       I    between atoms: C7_6  and  C8_11 
REMARK       I    between atoms: C7_6  and  N_48 
REMARK       I    between atoms: O3_7  and  C3_41 
REMARK       I    between atoms: O1_9  and  C3_31 
REMARK       I    between atoms: O1_9  and  C1_19 
REMARK       I    between atoms: C6_10  and  C5_34 
REMARK       I    between atoms: C6_10  and  O6_12 
REMARK       I    between atoms: C3_13  and  O1_16 
REMARK       I    between atoms: C2_14  and  N_20 
REMARK       I    between atoms: C1_15  and  O1_45 
REMARK       I    between atoms: O1_16  and  C1_29 
REMARK       I    between atoms: S_17  and  O4_30 
REMARK       I    between atoms: N_20  and  C7_40 
REMARK       I    between atoms: C4_22  and  O4_30 
REMARK       I    between atoms: O4_24  and  C4_28 
REMARK       I    between atoms: C5_25  and  C6_55 
REMARK       I    between atoms: C2_32  and  O2_39 
REMARK       I    between atoms: C5_33  and  C6_51 
REMARK       I    between atoms: C2_36  and  O2_56 
REMARK       I    between atoms: C8_37  and  C7_40 
REMARK       I    between atoms: C2_43  and  N_48 
REMARK       I    between atoms: C3_50  and  O3_53 
REMARK       I    between atoms: O6_54  and  C6_55 
ROOT
ATOM      1  C5  BDP d1197       5.561   8.719   0.500  0.00  0.00     0.152 C 
ATOM      2  O1  BDP d1197       2.227   9.068  -1.069  0.00  0.00    -0.348 OA
ATOM      3  C1  BDP d1197       3.616   8.687  -1.013  0.00  0.00     0.160 C 
ATOM      4  O5  BDP d1197       4.142   8.843   0.311  0.00  0.00    -0.340 OA
ATOM      5  C2  BDP d1197       4.390   9.551  -2.011  0.00  0.00     0.110 C 
ATOM      6  O6A BDP d1197       6.430   8.433   2.691  0.00  0.00    -0.646 OA
ATOM      7  O2  BDP d1197       3.991   9.206  -3.345  0.00  0.00    -0.388 OA
ATOM      8  C6  BDP d1197       5.858   9.202   1.888  0.00  0.00     0.206 C 
ATOM      9  C3  BDP d1197       5.911   9.438  -1.886  0.00  0.00     0.092 C 
ATOM     10  O6B BDP d1197       5.527  10.373   2.176  0.00  0.00    -0.646 OA
ATOM     11  O3  BDP d1197       6.497  10.481  -2.676  0.00  0.00    -0.390 OA
ATOM     12  C4  BDP d1197       6.400   9.577  -0.445  0.00  0.00     0.103 C 
ATOM     13  H   BDP d1197       5.814   7.696   0.315  0.00  0.00     0.104 H 
ATOM     14  H   BDP d1197       3.716   7.653  -1.271  0.00  0.00     0.133 H 
ATOM     15  H   BDP d1197       4.148  10.568  -1.783  0.00  0.00     0.094 H 
ATOM     16  H   BDP d1197       4.223   8.281  -3.522  0.00  0.00     0.210 HD
ATOM     17  H   BDP d1197       6.201   8.464  -2.225  0.00  0.00     0.091 H 
ATOM     18  H   BDP d1197       6.210  11.344  -2.337  0.00  0.00     0.210 HD
ATOM     19  H   BDP d1197       6.301  10.604  -0.160  0.00  0.00     0.092 H 
ATOM     20  O1  ASG d1198       7.783   9.178  -0.347  0.00  0.00    -0.348 OA
ATOM     21  O7  ASG d1198      10.439   6.457   2.564  0.00  0.00    -0.274 OA
ATOM     22  OSB ASG d1198      13.875  10.973  -1.750  0.00  0.00    -0.572 OA
ATOM     23  C3  ASG d1198      11.241  10.244   0.838  0.00  0.00     0.094 C 
ATOM     24  C2  ASG d1198      10.098   9.302   0.428  0.00  0.00     0.087 C 
ATOM     25  S   ASG d1198      12.644  11.675  -2.175  0.00  0.00     0.252 S 
ATOM     26  N   ASG d1198       9.987   8.392   1.564  0.00  0.00    -0.349 N 
ATOM     27  OSA ASG d1198      12.813  13.127  -1.947  0.00  0.00    -0.572 OA
ATOM     28  C4  ASG d1198      11.216  11.515  -0.000  0.00  0.00     0.114 C 
ATOM     29  C5  ASG d1198       9.829  12.140   0.108  0.00  0.00     0.090 C 
ATOM     30  O4  ASG d1198      11.450  11.140  -1.362  0.00  0.00    -0.246 OA
ATOM     31  C8  ASG d1198      11.315   6.733   0.377  0.00  0.00    -0.003 C 
ATOM     32  C7  ASG d1198      10.552   7.180   1.591  0.00  0.00     0.214 C 
ATOM     33  C1  ASG d1198       8.738  10.023   0.317  0.00  0.00     0.154 C 
ATOM     34  OSC ASG d1198      12.404  11.421  -3.614  0.00  0.00    -0.572 OA
ATOM     35  O6  ASG d1198      11.005  14.145  -0.459  0.00  0.00    -0.398 OA
ATOM     36  C6  ASG d1198       9.748  13.485  -0.605  0.00  0.00     0.043 C 
ATOM     37  O5  ASG d1198       8.862  11.235  -0.433  0.00  0.00    -0.349 OA
ATOM     38  H   ASG d1198      11.080  10.493   1.866  0.00  0.00     0.091 H 
ATOM     39  H   ASG d1198      10.306   8.856  -0.522  0.00  0.00     0.084 H 
ATOM     40  H   ASG d1198       9.471   8.684   2.349  0.00  0.00     0.163 HD
ATOM     41  H   ASG d1198      11.956  12.212   0.335  0.00  0.00     0.093 H 
ATOM     42  H   ASG d1198       9.624  12.321   1.143  0.00  0.00     0.090 H 
ATOM     43  H   ASG d1198      11.706   5.752   0.544  0.00  0.00     0.040 H 
ATOM     44  H   ASG d1198      12.121   7.412   0.193  0.00  0.00     0.040 H 
ATOM     45  H   ASG d1198      10.662   6.717  -0.470  0.00  0.00     0.040 H 
ATOM     46  H   ASG d1198       8.408  10.248   1.309  0.00  0.00     0.132 H 
ATOM     47  H   ASG d1198      10.973  15.005  -0.906  0.00  0.00     0.209 HD
ATOM     48  H   ASG d1198       8.974  14.080  -0.167  0.00  0.00     0.078 H 
ATOM     49  H   ASG d1198       9.525  13.340  -1.641  0.00  0.00     0.078 H 
ATOM     50  S   ASG d1196       0.534  11.905   0.748  0.00  0.00     0.252 S 
ATOM     51  OSB ASG d1196       0.234  12.643  -0.500  0.00  0.00    -0.572 OA
ATOM     52  C7  ASG d1196      -0.376   7.406  -3.100  0.00  0.00     0.214 C 
ATOM     53  C6  ASG d1196      -0.146   9.418   3.265  0.00  0.00     0.043 C 
ATOM     54  C8  ASG d1196      -1.031   8.732  -3.350  0.00  0.00    -0.003 C 
ATOM     55  O6  ASG d1196      -1.332   8.922   3.895  0.00  0.00    -0.398 OA
ATOM     56  C1  ASG d1196      -0.999   7.509   0.217  0.00  0.00     0.151 C 
ATOM     57  O4  ASG d1196       0.262  10.415   0.489  0.00  0.00    -0.246 OA
ATOM     58  C4  ASG d1196       1.039   9.332   1.019  0.00  0.00     0.114 C 
ATOM     59  C3  ASG d1196       1.287   8.434  -0.187  0.00  0.00     0.094 C 
ATOM     60  C5  ASG d1196       0.096   8.624   1.988  0.00  0.00     0.090 C 
ATOM     61  OSA ASG d1196       1.951  12.127   1.118  0.00  0.00    -0.572 OA
ATOM     62  OSC ASG d1196      -0.374  12.389   1.816  0.00  0.00    -0.572 OA
ATOM     63  C2  ASG d1196      -0.085   8.180  -0.812  0.00  0.00     0.087 C 
ATOM     64  O5  ASG d1196      -1.154   8.373   1.340  0.00  0.00    -0.349 OA
ATOM     65  O1  ASG d1196      -2.291   7.289  -0.356  0.00  0.00    -0.369 OA
ATOM     66  N   ASG d1196       0.074   7.184  -1.865  0.00  0.00    -0.349 N 
ATOM     67  O7  ASG d1196      -0.257   6.579  -3.989  0.00  0.00    -0.274 OA
ATOM     68  H   ASG d1196      -0.271  10.454   3.027  0.00  0.00     0.078 H 
ATOM     69  H   ASG d1196       0.690   9.311   3.924  0.00  0.00     0.078 H 
ATOM     70  H   ASG d1196      -1.033   9.304  -2.446  0.00  0.00     0.040 H 
ATOM     71  H   ASG d1196      -2.038   8.576  -3.676  0.00  0.00     0.040 H 
ATOM     72  H   ASG d1196      -0.489   9.261  -4.105  0.00  0.00     0.040 H 
ATOM     73  H   ASG d1196      -2.085   9.023   3.292  0.00  0.00     0.209 HD
ATOM     74  H   ASG d1196      -0.564   6.578   0.514  0.00  0.00     0.132 H 
ATOM     75  H   ASG d1196       1.955   9.606   1.501  0.00  0.00     0.093 H 
ATOM     76  H   ASG d1196       1.729   7.492   0.065  0.00  0.00     0.091 H 
ATOM     77  H   ASG d1196       0.566   7.706   2.271  0.00  0.00     0.090 H 
ATOM     78  H   ASG d1196      -0.484   9.109  -1.160  0.00  0.00     0.084 H 
ATOM     79  H   ASG d1196      -2.676   8.139  -0.622  0.00  0.00     0.212 HD
ATOM     80  H   ASG d1196       0.523   6.332  -1.661  0.00  0.00     0.163 HD
ATOM     81  O3  BDP d1199      16.964   8.705   2.581  0.00  0.00    -0.393 OA
ATOM     82  O1  BDP d1199      12.533   9.618   0.747  0.00  0.00    -0.348 OA
ATOM     83  O6A BDP d1199      13.748  13.530   4.062  0.00  0.00    -0.646 OA
ATOM     84  C4  BDP d1199      15.816  10.770   3.043  0.00  0.00    -0.005 C 
ATOM     85  O5  BDP d1199      13.503  11.058   2.270  0.00  0.00    -0.343 OA
ATOM     86  C1  BDP d1199      13.355   9.675   1.922  0.00  0.00     0.159 C 
ATOM     87  C5  BDP d1199      14.449  11.399   3.290  0.00  0.00     0.127 C 
ATOM     88  C2  BDP d1199      14.705   8.983   1.709  0.00  0.00     0.107 C 
ATOM     89  C3  BDP d1199      15.675   9.268   2.853  0.00  0.00     0.068 C 
ATOM     90  C6  BDP d1199      14.563  12.896   3.355  0.00  0.00     0.203 C 
ATOM     91  O2  BDP d1199      14.499   7.571   1.614  0.00  0.00    -0.388 OA
ATOM     92  O6B BDP d1199      15.457  13.462   2.689  0.00  0.00    -0.646 OA
ATOM     93  H   BDP d1199      17.563   8.897   3.319  0.00  0.00     0.210 HD
ATOM     94  H   BDP d1199      16.249  11.198   2.162  0.00  0.00     0.041 H 
ATOM     95  H   BDP d1199      16.445  10.958   3.887  0.00  0.00     0.041 H 
ATOM     96  H   BDP d1199      12.893   9.142   2.726  0.00  0.00     0.133 H 
ATOM     97  H   BDP d1199      14.097  11.010   4.223  0.00  0.00     0.100 H 
ATOM     98  H   BDP d1199      15.134   9.366   0.806  0.00  0.00     0.094 H 
ATOM     99  H   BDP d1199      15.284   8.820   3.743  0.00  0.00     0.087 H 
ATOM    100  H   BDP d1199      14.111   7.245   2.441  0.00  0.00     0.210 HD
ENDROOT
TORSDOF 25
ENDMDL
MODEL 25
REMARK VINA RESULT:      -4.5      1.709      1.812
REMARK  0 active torsions:
REMARK  status: ('A' for Active; 'I' for Inactive)
REMARK       I    between atoms: C5_1  and  C6_46 
REMARK       I    between atoms: O1_2  and  C4_60 
REMARK       I    between atoms: O1_2  and  C1_47 
REMARK       I    between atoms: S_3  and  O4_24 
REMARK       I    between atoms: C7_6  and  C8_11 
REMARK       I    between atoms: C7_6  and  N_48 
REMARK       I    between atoms: O3_7  and  C3_41 
REMARK       I    between atoms: O1_9  and  C3_31 
REMARK       I    between atoms: O1_9  and  C1_19 
REMARK       I    between atoms: C6_10  and  C5_34 
REMARK       I    between atoms: C6_10  and  O6_12 
REMARK       I    between atoms: C3_13  and  O1_16 
REMARK       I    between atoms: C2_14  and  N_20 
REMARK       I    between atoms: C1_15  and  O1_45 
REMARK       I    between atoms: O1_16  and  C1_29 
REMARK       I    between atoms: S_17  and  O4_30 
REMARK       I    between atoms: N_20  and  C7_40 
REMARK       I    between atoms: C4_22  and  O4_30 
REMARK       I    between atoms: O4_24  and  C4_28 
REMARK       I    between atoms: C5_25  and  C6_55 
REMARK       I    between atoms: C2_32  and  O2_39 
REMARK       I    between atoms: C5_33  and  C6_51 
REMARK       I    between atoms: C2_36  and  O2_56 
REMARK       I    between atoms: C8_37  and  C7_40 
REMARK       I    between atoms: C2_43  and  N_48 
REMARK       I    between atoms: C3_50  and  O3_53 
REMARK       I    between atoms: O6_54  and  C6_55 
ROOT
ATOM      1  C5  BDP d1197       6.911   9.827  -2.496  0.00  0.00     0.152 C 
ATOM      2  O1  BDP d1197       9.817   9.736  -0.206  0.00  0.00    -0.348 OA
ATOM      3  C1  BDP d1197       8.582   9.260  -0.775  0.00  0.00     0.160 C 
ATOM      4  O5  BDP d1197       8.219  10.022  -1.934  0.00  0.00    -0.340 OA
ATOM      5  C2  BDP d1197       7.494   9.349   0.297  0.00  0.00     0.110 C 
ATOM      6  O6A BDP d1197       6.442  10.634  -4.679  0.00  0.00    -0.646 OA
ATOM      7  O2  BDP d1197       7.779   8.406   1.340  0.00  0.00    -0.388 OA
ATOM      8  C6  BDP d1197       6.697  10.928  -3.490  0.00  0.00     0.206 C 
ATOM      9  C3  BDP d1197       6.077   9.115  -0.230  0.00  0.00     0.092 C 
ATOM     10  O6B BDP d1197       6.773  12.105  -3.076  0.00  0.00    -0.646 OA
ATOM     11  O3  BDP d1197       5.155   9.491   0.802  0.00  0.00    -0.390 OA
ATOM     12  C4  BDP d1197       5.770   9.931  -1.486  0.00  0.00     0.103 C 
ATOM     13  H   BDP d1197       6.889   8.839  -2.905  0.00  0.00     0.104 H 
ATOM     14  H   BDP d1197       8.700   8.244  -1.092  0.00  0.00     0.133 H 
ATOM     15  H   BDP d1197       7.514  10.353   0.665  0.00  0.00     0.094 H 
ATOM     16  H   BDP d1197       7.755   7.506   0.977  0.00  0.00     0.210 HD
ATOM     17  H   BDP d1197       5.986   8.082  -0.496  0.00  0.00     0.091 H 
ATOM     18  H   BDP d1197       5.270  10.431   1.012  0.00  0.00     0.210 HD
ATOM     19  H   BDP d1197       5.656  10.955  -1.195  0.00  0.00     0.092 H 
ATOM     20  O1  ASG d1198       4.549   9.462  -2.098  0.00  0.00    -0.348 OA
ATOM     21  O7  ASG d1198       3.049   8.373  -6.513  0.00  0.00    -0.274 OA
ATOM     22  OSB ASG d1198      -1.928   9.400  -1.513  0.00  0.00    -0.572 OA
ATOM     23  C3  ASG d1198       1.131  10.518  -3.400  0.00  0.00     0.094 C 
ATOM     24  C2  ASG d1198       2.401   9.666  -3.244  0.00  0.00     0.087 C 
ATOM     25  S   ASG d1198      -0.972   9.928  -0.515  0.00  0.00     0.252 S 
ATOM     26  N   ASG d1198       2.881   9.522  -4.615  0.00  0.00    -0.349 N 
ATOM     27  OSA ASG d1198      -1.453  11.242  -0.032  0.00  0.00    -0.572 OA
ATOM     28  C4  ASG d1198       0.735  11.140  -2.068  0.00  0.00     0.114 C 
ATOM     29  C5  ASG d1198       1.932  11.908  -1.516  0.00  0.00     0.090 C 
ATOM     30  O4  ASG d1198       0.415  10.073  -1.170  0.00  0.00    -0.246 OA
ATOM     31  C8  ASG d1198       1.842   7.326  -4.759  0.00  0.00    -0.003 C 
ATOM     32  C7  ASG d1198       2.633   8.447  -5.370  0.00  0.00     0.214 C 
ATOM     33  C1  ASG d1198       3.519  10.394  -2.469  0.00  0.00     0.154 C 
ATOM     34  OSC ASG d1198      -0.875   8.984   0.623  0.00  0.00    -0.572 OA
ATOM     35  O6  ASG d1198       0.242  13.126  -0.340  0.00  0.00    -0.398 OA
ATOM     36  C6  ASG d1198       1.589  12.666  -0.239  0.00  0.00     0.043 C 
ATOM     37  O5  ASG d1198       3.006  10.993  -1.275  0.00  0.00    -0.349 OA
ATOM     38  H   ASG d1198       1.365  11.293  -4.099  0.00  0.00     0.091 H 
ATOM     39  H   ASG d1198       2.179   8.761  -2.719  0.00  0.00     0.084 H 
ATOM     40  H   ASG d1198       3.413  10.253  -5.004  0.00  0.00     0.163 HD
ATOM     41  H   ASG d1198      -0.099  11.802  -2.184  0.00  0.00     0.093 H 
ATOM     42  H   ASG d1198       2.226  12.636  -2.243  0.00  0.00     0.090 H 
ATOM     43  H   ASG d1198       1.725   6.541  -5.475  0.00  0.00     0.040 H 
ATOM     44  H   ASG d1198       0.879   7.688  -4.465  0.00  0.00     0.040 H 
ATOM     45  H   ASG d1198       2.359   6.951  -3.900  0.00  0.00     0.040 H 
ATOM     46  H   ASG d1198       3.916  11.153  -3.108  0.00  0.00     0.132 H 
ATOM     47  H   ASG d1198       0.005  13.613   0.465  0.00  0.00     0.209 HD
ATOM     48  H   ASG d1198       2.249  13.501  -0.126  0.00  0.00     0.078 H 
ATOM     49  H   ASG d1198       1.697  12.024   0.611  0.00  0.00     0.078 H 
ATOM     50  S   ASG d1196      11.008  13.302   0.078  0.00  0.00     0.252 S 
ATOM     51  OSB ASG d1196      10.949  13.298   1.557  0.00  0.00    -0.572 OA
ATOM     52  C7  ASG d1196      12.443   7.618   1.305  0.00  0.00     0.214 C 
ATOM     53  C6  ASG d1196      12.602  12.648  -3.087  0.00  0.00     0.043 C 
ATOM     54  C8  ASG d1196      12.719   8.682   2.323  0.00  0.00    -0.003 C 
ATOM     55  O6  ASG d1196      13.947  12.727  -3.571  0.00  0.00    -0.398 OA
ATOM     56  C1  ASG d1196      13.467   9.547  -1.269  0.00  0.00     0.151 C 
ATOM     57  O4  ASG d1196      11.594  11.954  -0.373  0.00  0.00    -0.246 OA
ATOM     58  C4  ASG d1196      11.179  11.225  -1.536  0.00  0.00     0.114 C 
ATOM     59  C3  ASG d1196      10.993   9.800  -1.029  0.00  0.00     0.094 C 
ATOM     60  C5  ASG d1196      12.388  11.274  -2.467  0.00  0.00     0.090 C 
ATOM     61  OSA ASG d1196       9.643  13.494  -0.465  0.00  0.00    -0.572 OA
ATOM     62  OSC ASG d1196      11.909  14.396  -0.359  0.00  0.00    -0.572 OA
ATOM     63  C2  ASG d1196      12.288   9.440  -0.300  0.00  0.00     0.087 C 
ATOM     64  O5  ASG d1196      13.561  10.887  -1.746  0.00  0.00    -0.349 OA
ATOM     65  O1  ASG d1196      14.685   9.233  -0.586  0.00  0.00    -0.369 OA
ATOM     66  N   ASG d1196      12.232   8.026   0.053  0.00  0.00    -0.349 N 
ATOM     67  O7  ASG d1196      12.407   6.438   1.613  0.00  0.00    -0.274 OA
ATOM     68  H   ASG d1196      12.441  13.405  -2.348  0.00  0.00     0.078 H 
ATOM     69  H   ASG d1196      11.915  12.795  -3.892  0.00  0.00     0.078 H 
ATOM     70  H   ASG d1196      12.707   9.641   1.849  0.00  0.00     0.040 H 
ATOM     71  H   ASG d1196      13.680   8.515   2.763  0.00  0.00     0.040 H 
ATOM     72  H   ASG d1196      11.969   8.652   3.085  0.00  0.00     0.040 H 
ATOM     73  H   ASG d1196      14.565  12.593  -2.835  0.00  0.00     0.209 HD
ATOM     74  H   ASG d1196      13.315   8.868  -2.081  0.00  0.00     0.132 H 
ATOM     75  H   ASG d1196      10.299  11.587  -2.026  0.00  0.00     0.093 H 
ATOM     76  H   ASG d1196      10.829   9.086  -1.810  0.00  0.00     0.091 H 
ATOM     77  H   ASG d1196      12.195  10.592  -3.269  0.00  0.00     0.090 H 
ATOM     78  H   ASG d1196      12.401  10.087   0.545  0.00  0.00     0.084 H 
ATOM     79  H   ASG d1196      14.814   9.855   0.147  0.00  0.00     0.212 HD
ATOM     80  H   ASG d1196      12.033   7.361  -0.645  0.00  0.00     0.163 HD
ATOM     81  O3  BDP d1199      -3.762   9.385  -6.997  0.00  0.00    -0.393 OA
ATOM     82  O1  BDP d1199       0.028   9.773  -3.944  0.00  0.00    -0.348 OA
ATOM     83  O6A BDP d1199      -1.631  14.642  -5.087  0.00  0.00    -0.646 OA
ATOM     84  C4  BDP d1199      -3.093  11.512  -6.091  0.00  0.00    -0.005 C 
ATOM     85  O5  BDP d1199      -1.044  11.655  -4.744  0.00  0.00    -0.343 OA
ATOM     86  C1  BDP d1199      -0.617  10.332  -5.097  0.00  0.00     0.159 C 
ATOM     87  C5  BDP d1199      -1.897  12.354  -5.658  0.00  0.00     0.127 C 
ATOM     88  C2  BDP d1199      -1.776   9.459  -5.585  0.00  0.00     0.107 C 
ATOM     89  C3  BDP d1199      -2.621  10.174  -6.636  0.00  0.00     0.068 C 
ATOM     90  C6  BDP d1199      -2.359  13.626  -5.004  0.00  0.00     0.203 C 
ATOM     91  O2  BDP d1199      -1.251   8.255  -6.150  0.00  0.00    -0.388 OA
ATOM     92  O6B BDP d1199      -3.444  13.626  -4.384  0.00  0.00    -0.646 OA
ATOM     93  H   BDP d1199      -4.283   9.857  -7.665  0.00  0.00     0.210 HD
ATOM     94  H   BDP d1199      -3.732  11.346  -5.248  0.00  0.00     0.041 H 
ATOM     95  H   BDP d1199      -3.627  12.034  -6.857  0.00  0.00     0.041 H 
ATOM     96  H   BDP d1199       0.066  10.376  -5.921  0.00  0.00     0.133 H 
ATOM     97  H   BDP d1199      -1.339  12.571  -6.545  0.00  0.00     0.100 H 
ATOM     98  H   BDP d1199      -2.403   9.243  -4.745  0.00  0.00     0.094 H 
ATOM     99  H   BDP d1199      -2.017  10.324  -7.507  0.00  0.00     0.087 H 
ATOM    100  H   BDP d1199      -0.687   8.473  -6.908  0.00  0.00     0.210 HD
ENDROOT
TORSDOF 25
ENDMDL
MODEL 26
REMARK VINA RESULT:      -4.5      2.289      2.802
REMARK  0 active torsions:
REMARK  status: ('A' for Active; 'I' for Inactive)
REMARK       I    between atoms: C5_1  and  C6_46 
REMARK       I    between atoms: O1_2  and  C4_60 
REMARK       I    between atoms: O1_2  and  C1_47 
REMARK       I    between atoms: S_3  and  O4_24 
REMARK       I    between atoms: C7_6  and  C8_11 
REMARK       I    between atoms: C7_6  and  N_48 
REMARK       I    between atoms: O3_7  and  C3_41 
REMARK       I    between atoms: O1_9  and  C3_31 
REMARK       I    between atoms: O1_9  and  C1_19 
REMARK       I    between atoms: C6_10  and  C5_34 
REMARK       I    between atoms: C6_10  and  O6_12 
REMARK       I    between atoms: C3_13  and  O1_16 
REMARK       I    between atoms: C2_14  and  N_20 
REMARK       I    between atoms: C1_15  and  O1_45 
REMARK       I    between atoms: O1_16  and  C1_29 
REMARK       I    between atoms: S_17  and  O4_30 
REMARK       I    between atoms: N_20  and  C7_40 
REMARK       I    between atoms: C4_22  and  O4_30 
REMARK       I    between atoms: O4_24  and  C4_28 
REMARK       I    between atoms: C5_25  and  C6_55 
REMARK       I    between atoms: C2_32  and  O2_39 
REMARK       I    between atoms: C5_33  and  C6_51 
REMARK       I    between atoms: C2_36  and  O2_56 
REMARK       I    between atoms: C8_37  and  C7_40 
REMARK       I    between atoms: C2_43  and  N_48 
REMARK       I    between atoms: C3_50  and  O3_53 
REMARK       I    between atoms: O6_54  and  C6_55 
ROOT
ATOM      1  C5  BDP d1197       7.634  10.598  -2.728  0.00  0.00     0.152 C 
ATOM      2  O1  BDP d1197      10.704  10.535  -0.662  0.00  0.00    -0.348 OA
ATOM      3  C1  BDP d1197       9.585   9.959  -1.363  0.00  0.00     0.160 C 
ATOM      4  O5  BDP d1197       8.898  10.949  -2.141  0.00  0.00    -0.340 OA
ATOM      5  C2  BDP d1197       8.646   9.330  -0.333  0.00  0.00     0.110 C 
ATOM      6  O6A BDP d1197       6.715  11.968  -4.435  0.00  0.00    -0.646 OA
ATOM      7  O2  BDP d1197       9.294   8.200   0.269  0.00  0.00    -0.388 OA
ATOM      8  C6  BDP d1197       7.018  11.871  -3.225  0.00  0.00     0.206 C 
ATOM      9  C3  BDP d1197       7.292   8.900  -0.902  0.00  0.00     0.092 C 
ATOM     10  O6B BDP d1197       6.822  12.783  -2.393  0.00  0.00    -0.646 OA
ATOM     11  O3  BDP d1197       6.430   8.586   0.201  0.00  0.00    -0.390 OA
ATOM     12  C4  BDP d1197       6.632   9.988  -1.749  0.00  0.00     0.103 C 
ATOM     13  H   BDP d1197       7.831   9.867  -3.484  0.00  0.00     0.104 H 
ATOM     14  H   BDP d1197       9.933   9.212  -2.045  0.00  0.00     0.133 H 
ATOM     15  H   BDP d1197       8.437  10.090   0.390  0.00  0.00     0.094 H 
ATOM     16  H   BDP d1197       9.470   7.529  -0.410  0.00  0.00     0.210 HD
ATOM     17  H   BDP d1197       7.452   8.056  -1.541  0.00  0.00     0.091 H 
ATOM     18  H   BDP d1197       6.311   9.375   0.753  0.00  0.00     0.210 HD
ATOM     19  H   BDP d1197       6.283  10.754  -1.088  0.00  0.00     0.092 H 
ATOM     20  O1  ASG d1198       5.520   9.439  -2.487  0.00  0.00    -0.348 OA
ATOM     21  O7  ASG d1198       3.863   9.643  -6.975  0.00  0.00    -0.274 OA
ATOM     22  OSB ASG d1198      -0.588   7.274  -1.936  0.00  0.00    -0.572 OA
ATOM     23  C3  ASG d1198       1.816   9.845  -3.269  0.00  0.00     0.094 C 
ATOM     24  C2  ASG d1198       3.277   9.407  -3.457  0.00  0.00     0.087 C 
ATOM     25  S   ASG d1198       0.301   7.657  -0.817  0.00  0.00     0.252 S 
ATOM     26  N   ASG d1198       3.615   9.919  -4.782  0.00  0.00    -0.349 N 
ATOM     27  OSA ASG d1198      -0.456   8.502   0.134  0.00  0.00    -0.572 OA
ATOM     28  C4  ASG d1198       1.426   9.794  -1.798  0.00  0.00     0.114 C 
ATOM     29  C5  ASG d1198       2.429  10.623  -1.001  0.00  0.00     0.090 C 
ATOM     30  O4  ASG d1198       1.512   8.430  -1.374  0.00  0.00    -0.246 OA
ATOM     31  C8  ASG d1198       3.196   7.725  -5.748  0.00  0.00    -0.003 C 
ATOM     32  C7  ASG d1198       3.580   9.170  -5.889  0.00  0.00     0.214 C 
ATOM     33  C1  ASG d1198       4.242  10.096  -2.468  0.00  0.00     0.154 C 
ATOM     34  OSC ASG d1198       0.779   6.438  -0.127  0.00  0.00    -0.572 OA
ATOM     35  O6  ASG d1198       0.623  10.777   0.560  0.00  0.00    -0.398 OA
ATOM     36  C6  ASG d1198       2.046  10.728   0.470  0.00  0.00     0.043 C 
ATOM     37  O5  ASG d1198       3.729  10.041  -1.133  0.00  0.00    -0.349 OA
ATOM     38  H   ASG d1198       1.750  10.853  -3.620  0.00  0.00     0.091 H 
ATOM     39  H   ASG d1198       3.370   8.350  -3.316  0.00  0.00     0.084 H 
ATOM     40  H   ASG d1198       3.882  10.862  -4.864  0.00  0.00     0.163 HD
ATOM     41  H   ASG d1198       0.437  10.177  -1.648  0.00  0.00     0.093 H 
ATOM     42  H   ASG d1198       2.429  11.617  -1.397  0.00  0.00     0.090 H 
ATOM     43  H   ASG d1198       3.211   7.257  -6.709  0.00  0.00     0.040 H 
ATOM     44  H   ASG d1198       2.212   7.656  -5.333  0.00  0.00     0.040 H 
ATOM     45  H   ASG d1198       3.891   7.232  -5.101  0.00  0.00     0.040 H 
ATOM     46  H   ASG d1198       4.343  11.116  -2.771  0.00  0.00     0.132 H 
ATOM     47  H   ASG d1198       0.359  10.845   1.491  0.00  0.00     0.209 HD
ATOM     48  H   ASG d1198       2.466  11.618   0.890  0.00  0.00     0.078 H 
ATOM     49  H   ASG d1198       2.421   9.883   1.010  0.00  0.00     0.078 H 
ATOM     50  S   ASG d1196      10.918  13.934   0.956  0.00  0.00     0.252 S 
ATOM     51  OSB ASG d1196      11.035  13.375   2.322  0.00  0.00    -0.572 OA
ATOM     52  C7  ASG d1196      13.960   8.882  -0.089  0.00  0.00     0.214 C 
ATOM     53  C6  ASG d1196      12.249  14.974  -2.227  0.00  0.00     0.043 C 
ATOM     54  C8  ASG d1196      14.057   9.534   1.257  0.00  0.00    -0.003 C 
ATOM     55  O6  ASG d1196      13.457  15.615  -2.651  0.00  0.00    -0.398 OA
ATOM     56  C1  ASG d1196      14.121  11.825  -1.737  0.00  0.00     0.151 C 
ATOM     57  O4  ASG d1196      11.787  13.078   0.022  0.00  0.00    -0.246 OA
ATOM     58  C4  ASG d1196      11.451  12.734  -1.330  0.00  0.00     0.114 C 
ATOM     59  C3  ASG d1196      11.715  11.236  -1.404  0.00  0.00     0.094 C 
ATOM     60  C5  ASG d1196      12.485  13.470  -2.178  0.00  0.00     0.090 C 
ATOM     61  OSA ASG d1196       9.498  13.901   0.535  0.00  0.00    -0.572 OA
ATOM     62  OSC ASG d1196      11.434  15.324   0.966  0.00  0.00    -0.572 OA
ATOM     63  C2  ASG d1196      13.135  11.031  -0.875  0.00  0.00     0.087 C 
ATOM     64  O5  ASG d1196      13.795  13.211  -1.666  0.00  0.00    -0.349 OA
ATOM     65  O1  ASG d1196      15.449  11.655  -1.232  0.00  0.00    -0.369 OA
ATOM     66  N   ASG d1196      13.502   9.637  -1.089  0.00  0.00    -0.349 N 
ATOM     67  O7  ASG d1196      14.279   7.716  -0.255  0.00  0.00    -0.274 OA
ATOM     68  H   ASG d1196      11.977  15.328  -1.254  0.00  0.00     0.078 H 
ATOM     69  H   ASG d1196      11.458  15.196  -2.912  0.00  0.00     0.078 H 
ATOM     70  H   ASG d1196      13.732  10.550   1.185  0.00  0.00     0.040 H 
ATOM     71  H   ASG d1196      15.072   9.506   1.595  0.00  0.00     0.040 H 
ATOM     72  H   ASG d1196      13.437   9.009   1.953  0.00  0.00     0.040 H 
ATOM     73  H   ASG d1196      14.169  15.408  -2.026  0.00  0.00     0.209 HD
ATOM     74  H   ASG d1196      14.063  11.474  -2.745  0.00  0.00     0.132 H 
ATOM     75  H   ASG d1196      10.455  12.975  -1.639  0.00  0.00     0.093 H 
ATOM     76  H   ASG d1196      11.659  10.841  -2.398  0.00  0.00     0.091 H 
ATOM     77  H   ASG d1196      12.391  13.103  -3.178  0.00  0.00     0.090 H 
ATOM     78  H   ASG d1196      13.168  11.329   0.152  0.00  0.00     0.084 H 
ATOM     79  H   ASG d1196      15.491  11.976  -0.317  0.00  0.00     0.212 HD
ATOM     80  H   ASG d1196      13.410   9.244  -1.987  0.00  0.00     0.163 HD
ATOM     81  O3  BDP d1199      -2.977   8.719  -7.000  0.00  0.00    -0.393 OA
ATOM     82  O1  BDP d1199       0.899   9.061  -4.050  0.00  0.00    -0.348 OA
ATOM     83  O6A BDP d1199      -2.129  13.296  -3.238  0.00  0.00    -0.646 OA
ATOM     84  C4  BDP d1199      -2.803  10.466  -5.353  0.00  0.00    -0.005 C 
ATOM     85  O5  BDP d1199      -0.726  10.702  -4.065  0.00  0.00    -0.343 OA
ATOM     86  C1  BDP d1199      -0.003   9.786  -4.899  0.00  0.00     0.159 C 
ATOM     87  C5  BDP d1199      -1.835  11.403  -4.638  0.00  0.00     0.127 C 
ATOM     88  C2  BDP d1199      -0.934   8.852  -5.677  0.00  0.00     0.107 C 
ATOM     89  C3  BDP d1199      -2.056   9.619  -6.371  0.00  0.00     0.068 C 
ATOM     90  C6  BDP d1199      -2.542  12.155  -3.545  0.00  0.00     0.203 C 
ATOM     91  O2  BDP d1199      -0.173   8.147  -6.662  0.00  0.00    -0.388 OA
ATOM     92  O6B BDP d1199      -3.508  11.611  -2.967  0.00  0.00    -0.646 OA
ATOM     93  H   BDP d1199      -3.680   9.227  -7.434  0.00  0.00     0.210 HD
ATOM     94  H   BDP d1199      -3.271   9.825  -4.635  0.00  0.00     0.041 H 
ATOM     95  H   BDP d1199      -3.544  11.049  -5.859  0.00  0.00     0.041 H 
ATOM     96  H   BDP d1199       0.542  10.324  -5.647  0.00  0.00     0.133 H 
ATOM     97  H   BDP d1199      -1.463  12.081  -5.378  0.00  0.00     0.100 H 
ATOM     98  H   BDP d1199      -1.377   8.172  -4.980  0.00  0.00     0.094 H 
ATOM     99  H   BDP d1199      -1.620  10.246  -7.121  0.00  0.00     0.087 H 
ATOM    100  H   BDP d1199       0.218   8.781  -7.283  0.00  0.00     0.210 HD
ENDROOT
TORSDOF 25
ENDMDL
MODEL 27
REMARK VINA RESULT:      -4.5      2.546     12.491
REMARK  0 active torsions:
REMARK  status: ('A' for Active; 'I' for Inactive)
REMARK       I    between atoms: C5_1  and  C6_46 
REMARK       I    between atoms: O1_2  and  C4_60 
REMARK       I    between atoms: O1_2  and  C1_47 
REMARK       I    between atoms: S_3  and  O4_24 
REMARK       I    between atoms: C7_6  and  C8_11 
REMARK       I    between atoms: C7_6  and  N_48 
REMARK       I    between atoms: O3_7  and  C3_41 
REMARK       I    between atoms: O1_9  and  C3_31 
REMARK       I    between atoms: O1_9  and  C1_19 
REMARK       I    between atoms: C6_10  and  C5_34 
REMARK       I    between atoms: C6_10  and  O6_12 
REMARK       I    between atoms: C3_13  and  O1_16 
REMARK       I    between atoms: C2_14  and  N_20 
REMARK       I    between atoms: C1_15  and  O1_45 
REMARK       I    between atoms: O1_16  and  C1_29 
REMARK       I    between atoms: S_17  and  O4_30 
REMARK       I    between atoms: N_20  and  C7_40 
REMARK       I    between atoms: C4_22  and  O4_30 
REMARK       I    between atoms: O4_24  and  C4_28 
REMARK       I    between atoms: C5_25  and  C6_55 
REMARK       I    between atoms: C2_32  and  O2_39 
REMARK       I    between atoms: C5_33  and  C6_51 
REMARK       I    between atoms: C2_36  and  O2_56 
REMARK       I    between atoms: C8_37  and  C7_40 
REMARK       I    between atoms: C2_43  and  N_48 
REMARK       I    between atoms: C3_50  and  O3_53 
REMARK       I    between atoms: O6_54  and  C6_55 
ROOT
ATOM      1  C5  BDP d1197       4.949  10.289   0.257  0.00  0.00     0.152 C 
ATOM      2  O1  BDP d1197       1.421  11.142  -0.467  0.00  0.00    -0.348 OA
ATOM      3  C1  BDP d1197       2.654  10.415  -0.634  0.00  0.00     0.160 C 
ATOM      4  O5  BDP d1197       3.595  10.752   0.393  0.00  0.00    -0.340 OA
ATOM      5  C2  BDP d1197       3.219  10.740  -2.017  0.00  0.00     0.110 C 
ATOM      6  O6A BDP d1197       6.401  10.344   2.134  0.00  0.00    -0.646 OA
ATOM      7  O2  BDP d1197       2.356  10.190  -3.022  0.00  0.00    -0.388 OA
ATOM      8  C6  BDP d1197       5.761  11.010   1.290  0.00  0.00     0.206 C 
ATOM      9  C3  BDP d1197       4.648  10.241  -2.242  0.00  0.00     0.092 C 
ATOM     10  O6B BDP d1197       5.771  12.259   1.250  0.00  0.00    -0.646 OA
ATOM     11  O3  BDP d1197       5.139  10.839  -3.449  0.00  0.00    -0.390 OA
ATOM     12  C4  BDP d1197       5.589  10.604  -1.094  0.00  0.00     0.103 C 
ATOM     13  H   BDP d1197       4.928   9.224   0.362  0.00  0.00     0.104 H 
ATOM     14  H   BDP d1197       2.466   9.365  -0.554  0.00  0.00     0.133 H 
ATOM     15  H   BDP d1197       3.262  11.807  -2.084  0.00  0.00     0.094 H 
ATOM     16  H   BDP d1197       2.337   9.223  -2.938  0.00  0.00     0.210 HD
ATOM     17  H   BDP d1197       4.622   9.173  -2.302  0.00  0.00     0.091 H 
ATOM     18  H   BDP d1197       5.147  11.804  -3.352  0.00  0.00     0.210 HD
ATOM     19  H   BDP d1197       5.786  11.655  -1.147  0.00  0.00     0.092 H 
ATOM     20  O1  ASG d1198       6.827   9.873  -1.214  0.00  0.00    -0.348 OA
ATOM     21  O7  ASG d1198       9.700   7.361   1.680  0.00  0.00    -0.274 OA
ATOM     22  OSB ASG d1198      12.375   9.465  -4.584  0.00  0.00    -0.572 OA
ATOM     23  C3  ASG d1198      10.619  10.194  -1.336  0.00  0.00     0.094 C 
ATOM     24  C2  ASG d1198       9.247   9.538  -1.118  0.00  0.00     0.087 C 
ATOM     25  S   ASG d1198      11.232  10.350  -4.899  0.00  0.00     0.252 S 
ATOM     26  N   ASG d1198       9.332   9.020   0.243  0.00  0.00    -0.349 N 
ATOM     27  OSA ASG d1198      11.741  11.704  -5.210  0.00  0.00    -0.572 OA
ATOM     28  C4  ASG d1198      10.572  11.162  -2.512  0.00  0.00     0.114 C 
ATOM     29  C5  ASG d1198       9.440  12.156  -2.276  0.00  0.00     0.090 C 
ATOM     30  O4  ASG d1198      10.282  10.399  -3.687  0.00  0.00    -0.246 OA
ATOM     31  C8  ASG d1198       9.867   6.809  -0.621  0.00  0.00    -0.003 C 
ATOM     32  C7  ASG d1198       9.632   7.748   0.527  0.00  0.00     0.214 C 
ATOM     33  C1  ASG d1198       8.088  10.558  -1.121  0.00  0.00     0.154 C 
ATOM     34  OSC ASG d1198      10.500   9.812  -6.069  0.00  0.00    -0.572 OA
ATOM     35  O6  ASG d1198      10.735  13.535  -3.741  0.00  0.00    -0.398 OA
ATOM     36  C6  ASG d1198       9.395  13.239  -3.347  0.00  0.00     0.043 C 
ATOM     37  O5  ASG d1198       8.196  11.450  -2.234  0.00  0.00    -0.349 OA
ATOM     38  H   ASG d1198      10.847  10.734  -0.441  0.00  0.00     0.091 H 
ATOM     39  H   ASG d1198       9.050   8.823  -1.889  0.00  0.00     0.084 H 
ATOM     40  H   ASG d1198       9.161   9.637   0.990  0.00  0.00     0.163 HD
ATOM     41  H   ASG d1198      11.500  11.685  -2.617  0.00  0.00     0.093 H 
ATOM     42  H   ASG d1198       9.616  12.647  -1.342  0.00  0.00     0.090 H 
ATOM     43  H   ASG d1198      10.095   5.835  -0.244  0.00  0.00     0.040 H 
ATOM     44  H   ASG d1198      10.686   7.163  -1.211  0.00  0.00     0.040 H 
ATOM     45  H   ASG d1198       8.986   6.759  -1.227  0.00  0.00     0.040 H 
ATOM     46  H   ASG d1198       8.143  11.114  -0.209  0.00  0.00     0.132 H 
ATOM     47  H   ASG d1198      10.727  14.224  -4.424  0.00  0.00     0.209 HD
ATOM     48  H   ASG d1198       8.932  14.119  -2.953  0.00  0.00     0.078 H 
ATOM     49  H   ASG d1198       8.829  12.901  -4.190  0.00  0.00     0.078 H 
ATOM     50  S   ASG d1196       0.976  14.708   0.675  0.00  0.00     0.252 S 
ATOM     51  OSB ASG d1196       0.440  15.154  -0.631  0.00  0.00    -0.572 OA
ATOM     52  C7  ASG d1196      -1.963   9.812  -1.132  0.00  0.00     0.214 C 
ATOM     53  C6  ASG d1196       0.673  13.246   3.954  0.00  0.00     0.043 C 
ATOM     54  C8  ASG d1196      -2.396  11.157  -1.633  0.00  0.00    -0.003 C 
ATOM     55  O6  ASG d1196      -0.321  13.282   4.984  0.00  0.00    -0.398 OA
ATOM     56  C1  ASG d1196      -1.460  10.934   2.012  0.00  0.00     0.151 C 
ATOM     57  O4  ASG d1196       0.354  13.339   0.996  0.00  0.00    -0.246 OA
ATOM     58  C4  ASG d1196       1.037  12.257   1.642  0.00  0.00     0.114 C 
ATOM     59  C3  ASG d1196       0.709  11.046   0.777  0.00  0.00     0.094 C 
ATOM     60  C5  ASG d1196       0.336  12.116   2.991  0.00  0.00     0.090 C 
ATOM     61  OSA ASG d1196       2.452  14.611   0.591  0.00  0.00    -0.572 OA
ATOM     62  OSC ASG d1196       0.568  15.685   1.714  0.00  0.00    -0.572 OA
ATOM     63  C2  ASG d1196      -0.813  11.034   0.629  0.00  0.00     0.087 C 
ATOM     64  O5  ASG d1196      -1.079  12.066   2.791  0.00  0.00    -0.349 OA
ATOM     65  O1  ASG d1196      -2.885  10.946   1.881  0.00  0.00    -0.369 OA
ATOM     66  N   ASG d1196      -1.193   9.798  -0.044  0.00  0.00    -0.349 N 
ATOM     67  O7  ASG d1196      -2.296   8.785  -1.701  0.00  0.00    -0.274 OA
ATOM     68  H   ASG d1196       0.680  14.178   3.428  0.00  0.00     0.078 H 
ATOM     69  H   ASG d1196       1.638  13.082   4.385  0.00  0.00     0.078 H 
ATOM     70  H   ASG d1196      -2.000  11.919  -0.996  0.00  0.00     0.040 H 
ATOM     71  H   ASG d1196      -3.465  11.211  -1.632  0.00  0.00     0.040 H 
ATOM     72  H   ASG d1196      -2.034  11.300  -2.630  0.00  0.00     0.040 H 
ATOM     73  H   ASG d1196      -1.194  13.431   4.587  0.00  0.00     0.209 HD
ATOM     74  H   ASG d1196      -1.141  10.028   2.482  0.00  0.00     0.132 H 
ATOM     75  H   ASG d1196       2.093  12.377   1.767  0.00  0.00     0.093 H 
ATOM     76  H   ASG d1196       1.019  10.116   1.207  0.00  0.00     0.091 H 
ATOM     77  H   ASG d1196       0.687  11.207   3.435  0.00  0.00     0.090 H 
ATOM     78  H   ASG d1196      -1.116  11.916   0.105  0.00  0.00     0.084 H 
ATOM     79  H   ASG d1196      -3.164  11.771   1.454  0.00  0.00     0.212 HD
ATOM     80  H   ASG d1196      -0.875   8.937   0.312  0.00  0.00     0.163 HD
ATOM     81  O3  BDP d1199      16.192   7.617  -0.651  0.00  0.00    -0.393 OA
ATOM     82  O1  BDP d1199      11.669   9.231  -1.531  0.00  0.00    -0.348 OA
ATOM     83  O6A BDP d1199      14.607  13.361  -0.093  0.00  0.00    -0.646 OA
ATOM     84  C4  BDP d1199      15.670   9.967  -0.626  0.00  0.00    -0.005 C 
ATOM     85  O5  BDP d1199      13.332  10.683  -0.855  0.00  0.00    -0.343 OA
ATOM     86  C1  BDP d1199      12.819   9.355  -0.682  0.00  0.00     0.159 C 
ATOM     87  C5  BDP d1199      14.602  10.995  -0.270  0.00  0.00     0.127 C 
ATOM     88  C2  BDP d1199      13.870   8.282  -0.982  0.00  0.00     0.107 C 
ATOM     89  C3  BDP d1199      15.190   8.568  -0.271  0.00  0.00     0.068 C 
ATOM     90  C6  BDP d1199      15.017  12.365  -0.730  0.00  0.00     0.203 C 
ATOM     91  O2  BDP d1199      13.377   7.010  -0.553  0.00  0.00    -0.388 OA
ATOM     92  O6B BDP d1199      15.741  12.467  -1.744  0.00  0.00    -0.646 OA
ATOM     93  H   BDP d1199      17.020   7.817  -0.189  0.00  0.00     0.210 HD
ATOM     94  H   BDP d1199      15.873  10.015  -1.676  0.00  0.00     0.041 H 
ATOM     95  H   BDP d1199      16.560  10.182  -0.072  0.00  0.00     0.041 H 
ATOM     96  H   BDP d1199      12.544   9.199   0.341  0.00  0.00     0.133 H 
ATOM     97  H   BDP d1199      14.500  10.974   0.795  0.00  0.00     0.100 H 
ATOM     98  H   BDP d1199      14.053   8.284  -2.036  0.00  0.00     0.094 H 
ATOM     99  H   BDP d1199      15.026   8.493   0.784  0.00  0.00     0.087 H 
ATOM    100  H   BDP d1199      13.219   7.030   0.403  0.00  0.00     0.210 HD
ENDROOT
TORSDOF 25
ENDMDL
MODEL 28
REMARK VINA RESULT:      -4.4      3.368     12.633
REMARK  0 active torsions:
REMARK  status: ('A' for Active; 'I' for Inactive)
REMARK       I    between atoms: C5_1  and  C6_46 
REMARK       I    between atoms: O1_2  and  C4_60 
REMARK       I    between atoms: O1_2  and  C1_47 
REMARK       I    between atoms: S_3  and  O4_24 
REMARK       I    between atoms: C7_6  and  C8_11 
REMARK       I    between atoms: C7_6  and  N_48 
REMARK       I    between atoms: O3_7  and  C3_41 
REMARK       I    between atoms: O1_9  and  C3_31 
REMARK       I    between atoms: O1_9  and  C1_19 
REMARK       I    between atoms: C6_10  and  C5_34 
REMARK       I    between atoms: C6_10  and  O6_12 
REMARK       I    between atoms: C3_13  and  O1_16 
REMARK       I    between atoms: C2_14  and  N_20 
REMARK       I    between atoms: C1_15  and  O1_45 
REMARK       I    between atoms: O1_16  and  C1_29 
REMARK       I    between atoms: S_17  and  O4_30 
REMARK       I    between atoms: N_20  and  C7_40 
REMARK       I    between atoms: C4_22  and  O4_30 
REMARK       I    between atoms: O4_24  and  C4_28 
REMARK       I    between atoms: C5_25  and  C6_55 
REMARK       I    between atoms: C2_32  and  O2_39 
REMARK       I    between atoms: C5_33  and  C6_51 
REMARK       I    between atoms: C2_36  and  O2_56 
REMARK       I    between atoms: C8_37  and  C7_40 
REMARK       I    between atoms: C2_43  and  N_48 
REMARK       I    between atoms: C3_50  and  O3_53 
REMARK       I    between atoms: O6_54  and  C6_55 
ROOT
ATOM      1  C5  BDP d1197       3.922  10.378   1.646  0.00  0.00     0.152 C 
ATOM      2  O1  BDP d1197       0.745   8.478   1.637  0.00  0.00    -0.348 OA
ATOM      3  C1  BDP d1197       1.995   8.938   2.186  0.00  0.00     0.160 C 
ATOM      4  O5  BDP d1197       2.574   9.962   1.367  0.00  0.00    -0.340 OA
ATOM      5  C2  BDP d1197       2.937   7.739   2.306  0.00  0.00     0.110 C 
ATOM      6  O6A BDP d1197       4.743  12.396   0.703  0.00  0.00    -0.646 OA
ATOM      7  O2  BDP d1197       2.433   6.839   3.302  0.00  0.00    -0.388 OA
ATOM      8  C6  BDP d1197       4.363  11.223   0.490  0.00  0.00     0.206 C 
ATOM      9  C3  BDP d1197       4.384   8.111   2.638  0.00  0.00     0.092 C 
ATOM     10  O6B BDP d1197       4.343  10.705  -0.648  0.00  0.00    -0.646 OA
ATOM     11  O3  BDP d1197       5.193   6.942   2.453  0.00  0.00    -0.390 OA
ATOM     12  C4  BDP d1197       4.926   9.231   1.751  0.00  0.00     0.103 C 
ATOM     13  H   BDP d1197       3.906  10.879   2.591  0.00  0.00     0.104 H 
ATOM     14  H   BDP d1197       1.827   9.368   3.152  0.00  0.00     0.133 H 
ATOM     15  H   BDP d1197       2.962   7.277   1.341  0.00  0.00     0.094 H 
ATOM     16  H   BDP d1197       2.421   7.284   4.164  0.00  0.00     0.210 HD
ATOM     17  H   BDP d1197       4.413   8.466   3.647  0.00  0.00     0.091 H 
ATOM     18  H   BDP d1197       5.139   6.654   1.528  0.00  0.00     0.210 HD
ATOM     19  H   BDP d1197       5.094   8.827   0.774  0.00  0.00     0.092 H 
ATOM     20  O1  ASG d1198       6.167   9.735   2.288  0.00  0.00    -0.348 OA
ATOM     21  O7  ASG d1198       8.125  14.023   3.134  0.00  0.00    -0.274 OA
ATOM     22  OSB ASG d1198      12.479   8.379   3.075  0.00  0.00    -0.572 OA
ATOM     23  C3  ASG d1198       9.809  10.501   1.483  0.00  0.00     0.094 C 
ATOM     24  C2  ASG d1198       8.457  10.587   2.209  0.00  0.00     0.087 C 
ATOM     25  S   ASG d1198      11.454   7.456   2.541  0.00  0.00     0.252 S 
ATOM     26  N   ASG d1198       8.148  12.013   2.181  0.00  0.00    -0.349 N 
ATOM     27  OSA ASG d1198      11.986   6.789   1.332  0.00  0.00    -0.572 OA
ATOM     28  C4  ASG d1198      10.083   9.075   1.025  0.00  0.00     0.114 C 
ATOM     29  C5  ASG d1198       8.900   8.597   0.189  0.00  0.00     0.090 C 
ATOM     30  O4  ASG d1198      10.183   8.257   2.195  0.00  0.00    -0.246 OA
ATOM     31  C8  ASG d1198       8.990  12.250   4.452  0.00  0.00    -0.003 C 
ATOM     32  C7  ASG d1198       8.392  12.837   3.205  0.00  0.00     0.214 C 
ATOM     33  C1  ASG d1198       7.318   9.883   1.440  0.00  0.00     0.154 C 
ATOM     34  OSC ASG d1198      11.123   6.440   3.566  0.00  0.00    -0.572 OA
ATOM     35  O6  ASG d1198      10.527   7.109  -0.739  0.00  0.00    -0.398 OA
ATOM     36  C6  ASG d1198       9.141   7.219  -0.414  0.00  0.00     0.043 C 
ATOM     37  O5  ASG d1198       7.724   8.582   1.005  0.00  0.00    -0.349 OA
ATOM     38  H   ASG d1198       9.740  11.141   0.629  0.00  0.00     0.091 H 
ATOM     39  H   ASG d1198       8.524  10.132   3.175  0.00  0.00     0.084 H 
ATOM     40  H   ASG d1198       7.741  12.388   1.367  0.00  0.00     0.163 HD
ATOM     41  H   ASG d1198      10.982   9.022   0.446  0.00  0.00     0.093 H 
ATOM     42  H   ASG d1198       8.772   9.278  -0.627  0.00  0.00     0.090 H 
ATOM     43  H   ASG d1198       9.127  13.023   5.178  0.00  0.00     0.040 H 
ATOM     44  H   ASG d1198       9.936  11.807   4.219  0.00  0.00     0.040 H 
ATOM     45  H   ASG d1198       8.333  11.503   4.845  0.00  0.00     0.040 H 
ATOM     46  H   ASG d1198       7.079  10.486   0.590  0.00  0.00     0.132 H 
ATOM     47  H   ASG d1198      10.700   6.236  -1.125  0.00  0.00     0.209 HD
ATOM     48  H   ASG d1198       8.552   7.103  -1.299  0.00  0.00     0.078 H 
ATOM     49  H   ASG d1198       8.865   6.457   0.286  0.00  0.00     0.078 H 
ATOM     50  S   ASG d1196      -0.139   7.983  -1.995  0.00  0.00     0.252 S 
ATOM     51  OSB ASG d1196      -0.275   6.515  -1.855  0.00  0.00    -0.572 OA
ATOM     52  C7  ASG d1196      -2.239   7.517   3.595  0.00  0.00     0.214 C 
ATOM     53  C6  ASG d1196      -1.361  11.367  -1.792  0.00  0.00     0.043 C 
ATOM     54  C8  ASG d1196      -2.547   6.438   2.601  0.00  0.00    -0.003 C 
ATOM     55  O6  ASG d1196      -2.618  12.000  -2.054  0.00  0.00    -0.398 OA
ATOM     56  C1  ASG d1196      -2.737   9.989   1.350  0.00  0.00     0.151 C 
ATOM     57  O4  ASG d1196      -0.783   8.634  -0.761  0.00  0.00    -0.246 OA
ATOM     58  C4  ASG d1196      -0.289   9.806  -0.098  0.00  0.00     0.114 C 
ATOM     59  C3  ASG d1196      -0.302   9.426   1.378  0.00  0.00     0.094 C 
ATOM     60  C5  ASG d1196      -1.356  10.867  -0.354  0.00  0.00     0.090 C 
ATOM     61  OSA ASG d1196       1.297   8.334  -2.091  0.00  0.00    -0.572 OA
ATOM     62  OSC ASG d1196      -0.871   8.413  -3.211  0.00  0.00    -0.572 OA
ATOM     63  C2  ASG d1196      -1.709   8.900   1.664  0.00  0.00     0.087 C 
ATOM     64  O5  ASG d1196      -2.644  10.337  -0.030  0.00  0.00    -0.349 OA
ATOM     65  O1  ASG d1196      -4.057   9.494   1.594  0.00  0.00    -0.369 OA
ATOM     66  N   ASG d1196      -1.829   8.686   3.102  0.00  0.00    -0.349 N 
ATOM     67  O7  ASG d1196      -2.352   7.327   4.795  0.00  0.00    -0.274 OA
ATOM     68  H   ASG d1196      -1.228  10.542  -2.461  0.00  0.00     0.078 H 
ATOM     69  H   ASG d1196      -0.563  12.065  -1.938  0.00  0.00     0.078 H 
ATOM     70  H   ASG d1196      -2.384   6.808   1.611  0.00  0.00     0.040 H 
ATOM     71  H   ASG d1196      -3.568   6.137   2.706  0.00  0.00     0.040 H 
ATOM     72  H   ASG d1196      -1.908   5.598   2.777  0.00  0.00     0.040 H 
ATOM     73  H   ASG d1196      -3.336  11.362  -1.919  0.00  0.00     0.209 HD
ATOM     74  H   ASG d1196      -2.543  10.841   1.967  0.00  0.00     0.132 H 
ATOM     75  H   ASG d1196       0.678  10.147  -0.408  0.00  0.00     0.093 H 
ATOM     76  H   ASG d1196      -0.104  10.249   2.033  0.00  0.00     0.091 H 
ATOM     77  H   ASG d1196      -1.124  11.704   0.271  0.00  0.00     0.090 H 
ATOM     78  H   ASG d1196      -1.871   8.014   1.086  0.00  0.00     0.084 H 
ATOM     79  H   ASG d1196      -4.223   8.722   1.030  0.00  0.00     0.212 HD
ATOM     80  H   ASG d1196      -1.604   9.419   3.720  0.00  0.00     0.163 HD
ATOM     81  O3  BDP d1199      15.004  13.575   2.797  0.00  0.00    -0.393 OA
ATOM     82  O1  BDP d1199      10.900  10.979   2.288  0.00  0.00    -0.348 OA
ATOM     83  O6A BDP d1199      13.135  11.417  -2.464  0.00  0.00    -0.646 OA
ATOM     84  C4  BDP d1199      14.421  12.546   0.700  0.00  0.00    -0.005 C 
ATOM     85  O5  BDP d1199      12.236  11.450   0.464  0.00  0.00    -0.343 OA
ATOM     86  C1  BDP d1199      11.738  11.984   1.699  0.00  0.00     0.159 C 
ATOM     87  C5  BDP d1199      13.261  12.179  -0.220  0.00  0.00     0.127 C 
ATOM     88  C2  BDP d1199      12.866  12.413   2.642  0.00  0.00     0.107 C 
ATOM     89  C3  BDP d1199      13.903  13.277   1.929  0.00  0.00     0.068 C 
ATOM     90  C6  BDP d1199      13.749  11.350  -1.375  0.00  0.00     0.203 C 
ATOM     91  O2  BDP d1199      12.311  13.156   3.730  0.00  0.00    -0.388 OA
ATOM     92  O6B BDP d1199      14.740  10.606  -1.207  0.00  0.00    -0.646 OA
ATOM     93  H   BDP d1199      15.649  14.123   2.324  0.00  0.00     0.210 HD
ATOM     94  H   BDP d1199      14.926  11.654   1.006  0.00  0.00     0.041 H 
ATOM     95  H   BDP d1199      15.097  13.185   0.171  0.00  0.00     0.041 H 
ATOM     96  H   BDP d1199      11.176  12.875   1.512  0.00  0.00     0.133 H 
ATOM     97  H   BDP d1199      12.846  13.101  -0.571  0.00  0.00     0.100 H 
ATOM     98  H   BDP d1199      13.356  11.529   2.995  0.00  0.00     0.094 H 
ATOM     99  H   BDP d1199      13.434  14.195   1.640  0.00  0.00     0.087 H 
ATOM    100  H   BDP d1199      11.873  13.951   3.389  0.00  0.00     0.210 HD
ENDROOT
TORSDOF 25
ENDMDL
MODEL 29
REMARK VINA RESULT:      -4.4      3.147     12.223
REMARK  0 active torsions:
REMARK  status: ('A' for Active; 'I' for Inactive)
REMARK       I    between atoms: C5_1  and  C6_46 
REMARK       I    between atoms: O1_2  and  C4_60 
REMARK       I    between atoms: O1_2  and  C1_47 
REMARK       I    between atoms: S_3  and  O4_24 
REMARK       I    between atoms: C7_6  and  C8_11 
REMARK       I    between atoms: C7_6  and  N_48 
REMARK       I    between atoms: O3_7  and  C3_41 
REMARK       I    between atoms: O1_9  and  C3_31 
REMARK       I    between atoms: O1_9  and  C1_19 
REMARK       I    between atoms: C6_10  and  C5_34 
REMARK       I    between atoms: C6_10  and  O6_12 
REMARK       I    between atoms: C3_13  and  O1_16 
REMARK       I    between atoms: C2_14  and  N_20 
REMARK       I    between atoms: C1_15  and  O1_45 
REMARK       I    between atoms: O1_16  and  C1_29 
REMARK       I    between atoms: S_17  and  O4_30 
REMARK       I    between atoms: N_20  and  C7_40 
REMARK       I    between atoms: C4_22  and  O4_30 
REMARK       I    between atoms: O4_24  and  C4_28 
REMARK       I    between atoms: C5_25  and  C6_55 
REMARK       I    between atoms: C2_32  and  O2_39 
REMARK       I    between atoms: C5_33  and  C6_51 
REMARK       I    between atoms: C2_36  and  O2_56 
REMARK       I    between atoms: C8_37  and  C7_40 
REMARK       I    between atoms: C2_43  and  N_48 
REMARK       I    between atoms: C3_50  and  O3_53 
REMARK       I    between atoms: O6_54  and  C6_55 
ROOT
ATOM      1  C5  BDP d1197       3.916  11.096  -0.876  0.00  0.00     0.152 C 
ATOM      2  O1  BDP d1197       0.912   8.995  -1.392  0.00  0.00    -0.348 OA
ATOM      3  C1  BDP d1197       1.954   9.625  -0.621  0.00  0.00     0.160 C 
ATOM      4  O5  BDP d1197       2.706  10.545  -1.423  0.00  0.00    -0.340 OA
ATOM      5  C2  BDP d1197       2.860   8.531  -0.055  0.00  0.00     0.110 C 
ATOM      6  O6A BDP d1197       4.907  12.994  -1.902  0.00  0.00    -0.646 OA
ATOM      7  O2  BDP d1197       2.129   7.765   0.913  0.00  0.00    -0.388 OA
ATOM      8  C6  BDP d1197       4.631  11.778  -2.003  0.00  0.00     0.206 C 
ATOM      9  C3  BDP d1197       4.153   9.054   0.576  0.00  0.00     0.092 C 
ATOM     10  O6B BDP d1197       4.933  11.086  -3.000  0.00  0.00    -0.646 OA
ATOM     11  O3  BDP d1197       5.013   7.931   0.812  0.00  0.00    -0.390 OA
ATOM     12  C4  BDP d1197       4.884  10.056  -0.317  0.00  0.00     0.103 C 
ATOM     13  H   BDP d1197       3.631  11.738  -0.069  0.00  0.00     0.104 H 
ATOM     14  H   BDP d1197       1.520  10.189   0.178  0.00  0.00     0.133 H 
ATOM     15  H   BDP d1197       3.158   7.925  -0.886  0.00  0.00     0.094 H 
ATOM     16  H   BDP d1197       1.873   8.339   1.652  0.00  0.00     0.210 HD
ATOM     17  H   BDP d1197       3.898   9.565   1.481  0.00  0.00     0.091 H 
ATOM     18  H   BDP d1197       5.219   7.498  -0.030  0.00  0.00     0.210 HD
ATOM     19  H   BDP d1197       5.321   9.516  -1.131  0.00  0.00     0.092 H 
ATOM     20  O1  ASG d1198       5.920  10.726   0.432  0.00  0.00    -0.348 OA
ATOM     21  O7  ASG d1198       7.460  15.223   1.014  0.00  0.00    -0.274 OA
ATOM     22  OSB ASG d1198      11.818   9.968   3.067  0.00  0.00    -0.572 OA
ATOM     23  C3  ASG d1198       9.622  11.614   0.492  0.00  0.00     0.094 C 
ATOM     24  C2  ASG d1198       8.122  11.716   0.811  0.00  0.00     0.087 C 
ATOM     25  S   ASG d1198      11.000   8.901   2.449  0.00  0.00     0.252 S 
ATOM     26  N   ASG d1198       7.795  13.094   0.459  0.00  0.00    -0.349 N 
ATOM     27  OSA ASG d1198      11.858   8.091   1.555  0.00  0.00    -0.572 OA
ATOM     28  C4  ASG d1198      10.048  10.157   0.373  0.00  0.00     0.114 C 
ATOM     29  C5  ASG d1198       9.148   9.470  -0.649  0.00  0.00     0.090 C 
ATOM     30  O4  ASG d1198       9.850   9.543   1.651  0.00  0.00    -0.246 OA
ATOM     31  C8  ASG d1198       7.984  13.747   2.796  0.00  0.00    -0.003 C 
ATOM     32  C7  ASG d1198       7.730  14.085   1.355  0.00  0.00     0.214 C 
ATOM     33  C1  ASG d1198       7.254  10.820  -0.097  0.00  0.00     0.154 C 
ATOM     34  OSC ASG d1198      10.432   8.038   3.510  0.00  0.00    -0.572 OA
ATOM     35  O6  ASG d1198      11.004   7.974  -0.848  0.00  0.00    -0.398 OA
ATOM     36  C6  ASG d1198       9.581   8.034  -0.922  0.00  0.00     0.043 C 
ATOM     37  O5  ASG d1198       7.796   9.499  -0.180  0.00  0.00    -0.349 OA
ATOM     38  H   ASG d1198       9.770  12.105  -0.448  0.00  0.00     0.091 H 
ATOM     39  H   ASG d1198       7.938  11.426   1.824  0.00  0.00     0.084 H 
ATOM     40  H   ASG d1198       7.613  13.305  -0.485  0.00  0.00     0.163 HD
ATOM     41  H   ASG d1198      11.071  10.078   0.068  0.00  0.00     0.093 H 
ATOM     42  H   ASG d1198       9.228  10.002  -1.574  0.00  0.00     0.090 H 
ATOM     43  H   ASG d1198       7.899  14.632   3.390  0.00  0.00     0.040 H 
ATOM     44  H   ASG d1198       8.969  13.342   2.899  0.00  0.00     0.040 H 
ATOM     45  H   ASG d1198       7.266  13.026   3.126  0.00  0.00     0.040 H 
ATOM     46  H   ASG d1198       7.237  11.263  -1.070  0.00  0.00     0.132 H 
ATOM     47  H   ASG d1198      11.300   7.066  -1.020  0.00  0.00     0.209 HD
ATOM     48  H   ASG d1198       9.256   7.738  -1.898  0.00  0.00     0.078 H 
ATOM     49  H   ASG d1198       9.146   7.375  -0.200  0.00  0.00     0.078 H 
ATOM     50  S   ASG d1196       1.057   7.871  -4.988  0.00  0.00     0.252 S 
ATOM     51  OSB ASG d1196       0.927   6.438  -4.639  0.00  0.00    -0.572 OA
ATOM     52  C7  ASG d1196      -2.464   8.145  -0.150  0.00  0.00     0.214 C 
ATOM     53  C6  ASG d1196      -0.264  11.148  -5.696  0.00  0.00     0.043 C 
ATOM     54  C8  ASG d1196      -2.462   6.902  -0.989  0.00  0.00    -0.003 C 
ATOM     55  O6  ASG d1196      -1.420  11.640  -6.383  0.00  0.00    -0.398 OA
ATOM     56  C1  ASG d1196      -2.401  10.189  -2.837  0.00  0.00     0.151 C 
ATOM     57  O4  ASG d1196       0.086   8.661  -4.096  0.00  0.00    -0.246 OA
ATOM     58  C4  ASG d1196       0.351   9.955  -3.538  0.00  0.00     0.114 C 
ATOM     59  C3  ASG d1196      -0.051   9.813  -2.075  0.00  0.00     0.094 C 
ATOM     60  C5  ASG d1196      -0.635  10.883  -4.243  0.00  0.00     0.090 C 
ATOM     61  OSA ASG d1196       2.455   8.305  -4.763  0.00  0.00    -0.572 OA
ATOM     62  OSC ASG d1196       0.670   8.050  -6.409  0.00  0.00    -0.572 OA
ATOM     63  C2  ASG d1196      -1.468   9.239  -2.082  0.00  0.00     0.087 C 
ATOM     64  O5  ASG d1196      -1.948  10.320  -4.182  0.00  0.00    -0.349 OA
ATOM     65  O1  ASG d1196      -3.725   9.644  -2.866  0.00  0.00    -0.369 OA
ATOM     66  N   ASG d1196      -1.967   9.248  -0.712  0.00  0.00    -0.349 N 
ATOM     67  O7  ASG d1196      -2.892   8.139   0.992  0.00  0.00    -0.274 OA
ATOM     68  H   ASG d1196       0.067  10.239  -6.154  0.00  0.00     0.078 H 
ATOM     69  H   ASG d1196       0.524  11.869  -5.745  0.00  0.00     0.078 H 
ATOM     70  H   ASG d1196      -2.048   7.122  -1.951  0.00  0.00     0.040 H 
ATOM     71  H   ASG d1196      -3.465   6.549  -1.106  0.00  0.00     0.040 H 
ATOM     72  H   ASG d1196      -1.873   6.149  -0.511  0.00  0.00     0.040 H 
ATOM     73  H   ASG d1196      -2.130  10.981  -6.334  0.00  0.00     0.209 HD
ATOM     74  H   ASG d1196      -2.404  11.139  -2.345  0.00  0.00     0.132 H 
ATOM     75  H   ASG d1196       1.355  10.311  -3.637  0.00  0.00     0.093 H 
ATOM     76  H   ASG d1196      -0.060  10.742  -1.542  0.00  0.00     0.091 H 
ATOM     77  H   ASG d1196      -0.603  11.823  -3.733  0.00  0.00     0.090 H 
ATOM     78  H   ASG d1196      -1.444   8.264  -2.521  0.00  0.00     0.084 H 
ATOM     79  H   ASG d1196      -3.711   8.784  -3.313  0.00  0.00     0.212 HD
ATOM     80  H   ASG d1196      -1.937  10.083  -0.191  0.00  0.00     0.163 HD
ATOM     81  O3  BDP d1199      14.184  15.222   2.574  0.00  0.00    -0.393 OA
ATOM     82  O1  BDP d1199      10.442  12.291   1.460  0.00  0.00    -0.348 OA
ATOM     83  O6A BDP d1199      13.866  12.132  -2.542  0.00  0.00    -0.646 OA
ATOM     84  C4  BDP d1199      14.217  13.836   0.606  0.00  0.00    -0.005 C 
ATOM     85  O5  BDP d1199      12.208  12.562  -0.002  0.00  0.00    -0.343 OA
ATOM     86  C1  BDP d1199      11.381  13.247   0.948  0.00  0.00     0.159 C 
ATOM     87  C5  BDP d1199      13.360  13.246  -0.509  0.00  0.00     0.127 C 
ATOM     88  C2  BDP d1199      12.200  13.900   2.066  0.00  0.00     0.107 C 
ATOM     89  C3  BDP d1199      13.367  14.712   1.512  0.00  0.00     0.068 C 
ATOM     90  C6  BDP d1199      14.164  12.281  -1.335  0.00  0.00     0.203 C 
ATOM     91  O2  BDP d1199      11.351  14.764   2.826  0.00  0.00    -0.388 OA
ATOM     92  O6B BDP d1199      15.092  11.646  -0.789  0.00  0.00    -0.646 OA
ATOM     93  H   BDP d1199      14.918  15.734   2.201  0.00  0.00     0.210 HD
ATOM     94  H   BDP d1199      14.645  13.041   1.182  0.00  0.00     0.041 H 
ATOM     95  H   BDP d1199      14.994  14.430   0.172  0.00  0.00     0.041 H 
ATOM     96  H   BDP d1199      10.866  14.055   0.471  0.00  0.00     0.133 H 
ATOM     97  H   BDP d1199      13.031  14.068  -1.109  0.00  0.00     0.100 H 
ATOM     98  H   BDP d1199      12.599  13.121   2.681  0.00  0.00     0.094 H 
ATOM     99  H   BDP d1199      12.969  15.537   0.958  0.00  0.00     0.087 H 
ATOM    100  H   BDP d1199      11.001  15.461   2.251  0.00  0.00     0.210 HD
ENDROOT
TORSDOF 25
ENDMDL
MODEL 30
REMARK VINA RESULT:      -4.4      2.034      2.652
REMARK  0 active torsions:
REMARK  status: ('A' for Active; 'I' for Inactive)
REMARK       I    between atoms: C5_1  and  C6_46 
REMARK       I    between atoms: O1_2  and  C4_60 
REMARK       I    between atoms: O1_2  and  C1_47 
REMARK       I    between atoms: S_3  and  O4_24 
REMARK       I    between atoms: C7_6  and  C8_11 
REMARK       I    between atoms: C7_6  and  N_48 
REMARK       I    between atoms: O3_7  and  C3_41 
REMARK       I    between atoms: O1_9  and  C3_31 
REMARK       I    between atoms: O1_9  and  C1_19 
REMARK       I    between atoms: C6_10  and  C5_34 
REMARK       I    between atoms: C6_10  and  O6_12 
REMARK       I    between atoms: C3_13  and  O1_16 
REMARK       I    between atoms: C2_14  and  N_20 
REMARK       I    between atoms: C1_15  and  O1_45 
REMARK       I    between atoms: O1_16  and  C1_29 
REMARK       I    between atoms: S_17  and  O4_30 
REMARK       I    between atoms: N_20  and  C7_40 
REMARK       I    between atoms: C4_22  and  O4_30 
REMARK       I    between atoms: O4_24  and  C4_28 
REMARK       I    between atoms: C5_25  and  C6_55 
REMARK       I    between atoms: C2_32  and  O2_39 
REMARK       I    between atoms: C5_33  and  C6_51 
REMARK       I    between atoms: C2_36  and  O2_56 
REMARK       I    between atoms: C8_37  and  C7_40 
REMARK       I    between atoms: C2_43  and  N_48 
REMARK       I    between atoms: C3_50  and  O3_53 
REMARK       I    between atoms: O6_54  and  C6_55 
ROOT
ATOM      1  C5  BDP d1197       5.521  10.235  -2.788  0.00  0.00     0.152 C 
ATOM      2  O1  BDP d1197       9.095  10.869  -2.065  0.00  0.00    -0.348 OA
ATOM      3  C1  BDP d1197       7.897  10.073  -2.152  0.00  0.00     0.160 C 
ATOM      4  O5  BDP d1197       6.846  10.793  -2.809  0.00  0.00    -0.340 OA
ATOM      5  C2  BDP d1197       7.481   9.676  -0.735  0.00  0.00     0.110 C 
ATOM      6  O6A BDP d1197       3.874  11.073  -4.278  0.00  0.00    -0.646 OA
ATOM      7  O2  BDP d1197       8.455   8.774  -0.191  0.00  0.00    -0.388 OA
ATOM      8  C6  BDP d1197       4.592  11.304  -3.280  0.00  0.00     0.206 C 
ATOM      9  C3  BDP d1197       6.091   9.042  -0.646  0.00  0.00     0.092 C 
ATOM     10  O6B BDP d1197       4.571  12.386  -2.654  0.00  0.00    -0.646 OA
ATOM     11  O3  BDP d1197       5.726   8.972   0.739  0.00  0.00    -0.390 OA
ATOM     12  C4  BDP d1197       5.026   9.841  -1.397  0.00  0.00     0.103 C 
ATOM     13  H   BDP d1197       5.544   9.348  -3.385  0.00  0.00     0.104 H 
ATOM     14  H   BDP d1197       8.089   9.197  -2.736  0.00  0.00     0.133 H 
ATOM     15  H   BDP d1197       7.431  10.583  -0.169  0.00  0.00     0.094 H 
ATOM     16  H   BDP d1197       8.478   7.964  -0.724  0.00  0.00     0.210 HD
ATOM     17  H   BDP d1197       6.137   8.074  -1.100  0.00  0.00     0.091 H 
ATOM     18  H   BDP d1197       5.695   9.868   1.111  0.00  0.00     0.210 HD
ATOM     19  H   BDP d1197       4.823  10.729  -0.836  0.00  0.00     0.092 H 
ATOM     20  O1  ASG d1198       3.819   9.062  -1.526  0.00  0.00    -0.348 OA
ATOM     21  O7  ASG d1198       0.682   8.025  -4.994  0.00  0.00    -0.274 OA
ATOM     22  OSB ASG d1198      -1.326   6.776   1.731  0.00  0.00    -0.572 OA
ATOM     23  C3  ASG d1198       0.058   9.051  -0.929  0.00  0.00     0.094 C 
ATOM     24  C2  ASG d1198       1.407   8.660  -1.552  0.00  0.00     0.087 C 
ATOM     25  S   ASG d1198      -0.167   7.480   2.323  0.00  0.00     0.252 S 
ATOM     26  N   ASG d1198       1.182   8.836  -2.984  0.00  0.00    -0.349 N 
ATOM     27  OSA ASG d1198      -0.657   8.496   3.281  0.00  0.00    -0.572 OA
ATOM     28  C4  ASG d1198       0.220   9.355   0.555  0.00  0.00     0.114 C 
ATOM     29  C5  ASG d1198       1.307  10.413   0.717  0.00  0.00     0.090 C 
ATOM     30  O4  ASG d1198       0.646   8.150   1.199  0.00  0.00    -0.246 OA
ATOM     31  C8  ASG d1198       0.773   6.449  -3.223  0.00  0.00    -0.003 C 
ATOM     32  C7  ASG d1198       0.869   7.830  -3.806  0.00  0.00     0.214 C 
ATOM     33  C1  ASG d1198       2.546   9.630  -1.172  0.00  0.00     0.154 C 
ATOM     34  OSC ASG d1198       0.694   6.504   3.029  0.00  0.00    -0.572 OA
ATOM     35  O6  ASG d1198       0.160  10.860   2.769  0.00  0.00    -0.398 OA
ATOM     36  C6  ASG d1198       1.453  10.868   2.164  0.00  0.00     0.043 C 
ATOM     37  O5  ASG d1198       2.548   9.889   0.235  0.00  0.00    -0.349 OA
ATOM     38  H   ASG d1198      -0.272   9.932  -1.439  0.00  0.00     0.091 H 
ATOM     39  H   ASG d1198       1.696   7.681  -1.232  0.00  0.00     0.084 H 
ATOM     40  H   ASG d1198       1.263   9.741  -3.362  0.00  0.00     0.163 HD
ATOM     41  H   ASG d1198      -0.698   9.709   0.978  0.00  0.00     0.093 H 
ATOM     42  H   ASG d1198       1.024  11.272   0.145  0.00  0.00     0.090 H 
ATOM     43  H   ASG d1198       0.518   5.753  -3.994  0.00  0.00     0.040 H 
ATOM     44  H   ASG d1198       0.018   6.434  -2.465  0.00  0.00     0.040 H 
ATOM     45  H   ASG d1198       1.715   6.176  -2.794  0.00  0.00     0.040 H 
ATOM     46  H   ASG d1198       2.386  10.544  -1.704  0.00  0.00     0.132 H 
ATOM     47  H   ASG d1198       0.233  11.148   3.692  0.00  0.00     0.209 HD
ATOM     48  H   ASG d1198       1.860  11.858   2.193  0.00  0.00     0.078 H 
ATOM     49  H   ASG d1198       2.111  10.210   2.693  0.00  0.00     0.078 H 
ATOM     50  S   ASG d1196       9.367  14.574  -1.421  0.00  0.00     0.252 S 
ATOM     51  OSB ASG d1196      10.036  14.389  -0.113  0.00  0.00    -0.572 OA
ATOM     52  C7  ASG d1196      12.549   9.598  -2.413  0.00  0.00     0.214 C 
ATOM     53  C6  ASG d1196       9.332  14.841  -5.014  0.00  0.00     0.043 C 
ATOM     54  C8  ASG d1196      13.016  10.575  -1.377  0.00  0.00    -0.003 C 
ATOM     55  O6  ASG d1196      10.208  15.419  -5.989  0.00  0.00    -0.398 OA
ATOM     56  C1  ASG d1196      11.693  12.029  -4.594  0.00  0.00     0.151 C 
ATOM     57  O4  ASG d1196       9.968  13.558  -2.405  0.00  0.00    -0.246 OA
ATOM     58  C4  ASG d1196       9.233  12.864  -3.422  0.00  0.00     0.114 C 
ATOM     59  C3  ASG d1196       9.669  11.412  -3.265  0.00  0.00     0.094 C 
ATOM     60  C5  ASG d1196       9.786  13.415  -4.734  0.00  0.00     0.090 C 
ATOM     61  OSA ASG d1196       7.910  14.358  -1.261  0.00  0.00    -0.572 OA
ATOM     62  OSC ASG d1196       9.647  15.948  -1.907  0.00  0.00    -0.572 OA
ATOM     63  C2  ASG d1196      11.198  11.428  -3.276  0.00  0.00     0.087 C 
ATOM     64  O5  ASG d1196      11.215  13.367  -4.708  0.00  0.00    -0.349 OA
ATOM     65  O1  ASG d1196      13.124  12.066  -4.601  0.00  0.00    -0.369 OA
ATOM     66  N   ASG d1196      11.665  10.047  -3.305  0.00  0.00    -0.349 N 
ATOM     67  O7  ASG d1196      12.954   8.447  -2.429  0.00  0.00    -0.274 OA
ATOM     68  H   ASG d1196       9.370  15.416  -4.112  0.00  0.00     0.078 H 
ATOM     69  H   ASG d1196       8.328  14.838  -5.383  0.00  0.00     0.078 H 
ATOM     70  H   ASG d1196      12.542  11.520  -1.540  0.00  0.00     0.040 H 
ATOM     71  H   ASG d1196      14.077  10.690  -1.448  0.00  0.00     0.040 H 
ATOM     72  H   ASG d1196      12.762  10.212  -0.403  0.00  0.00     0.040 H 
ATOM     73  H   ASG d1196      11.116  15.418  -5.648  0.00  0.00     0.209 HD
ATOM     74  H   ASG d1196      11.337  11.430  -5.406  0.00  0.00     0.132 H 
ATOM     75  H   ASG d1196       8.168  12.962  -3.379  0.00  0.00     0.093 H 
ATOM     76  H   ASG d1196       9.326  10.775  -4.054  0.00  0.00     0.091 H 
ATOM     77  H   ASG d1196       9.401  12.801  -5.521  0.00  0.00     0.090 H 
ATOM     78  H   ASG d1196      11.545  11.978  -2.427  0.00  0.00     0.084 H 
ATOM     79  H   ASG d1196      13.436  12.611  -3.862  0.00  0.00     0.212 HD
ATOM     80  H   ASG d1196      11.322   9.435  -3.995  0.00  0.00     0.163 HD
ATOM     81  O3  BDP d1199      -5.521   6.751  -2.249  0.00  0.00    -0.393 OA
ATOM     82  O1  BDP d1199      -0.951   8.045  -1.119  0.00  0.00    -0.348 OA
ATOM     83  O6A BDP d1199      -4.082  12.174  -0.166  0.00  0.00    -0.646 OA
ATOM     84  C4  BDP d1199      -5.036   8.866  -1.208  0.00  0.00    -0.005 C 
ATOM     85  O5  BDP d1199      -2.697   9.536  -0.877  0.00  0.00    -0.343 OA
ATOM     86  C1  BDP d1199      -2.188   8.480  -1.702  0.00  0.00     0.159 C 
ATOM     87  C5  BDP d1199      -4.026  10.006  -1.129  0.00  0.00     0.127 C 
ATOM     88  C2  BDP d1199      -3.186   7.328  -1.853  0.00  0.00     0.107 C 
ATOM     89  C3  BDP d1199      -4.579   7.830  -2.223  0.00  0.00     0.068 C 
ATOM     90  C6  BDP d1199      -4.407  10.972  -0.042  0.00  0.00     0.203 C 
ATOM     91  O2  BDP d1199      -2.726   6.438  -2.873  0.00  0.00    -0.388 OA
ATOM     92  O6B BDP d1199      -5.019  10.541   0.960  0.00  0.00    -0.646 OA
ATOM     93  H   BDP d1199      -6.398   7.092  -2.486  0.00  0.00     0.210 HD
ATOM     94  H   BDP d1199      -5.125   8.404  -0.246  0.00  0.00     0.041 H 
ATOM     95  H   BDP d1199      -5.984   9.260  -1.512  0.00  0.00     0.041 H 
ATOM     96  H   BDP d1199      -2.024   8.839  -2.697  0.00  0.00     0.133 H 
ATOM     97  H   BDP d1199      -4.040  10.493  -2.082  0.00  0.00     0.100 H 
ATOM     98  H   BDP d1199      -3.254   6.824  -0.911  0.00  0.00     0.094 H 
ATOM     99  H   BDP d1199      -4.530   8.269  -3.198  0.00  0.00     0.087 H 
ATOM    100  H   BDP d1199      -2.673   6.914  -3.717  0.00  0.00     0.210 HD
ENDROOT
TORSDOF 25
ENDMDL
MODEL 31
REMARK VINA RESULT:      -4.4      2.706      5.436
REMARK  0 active torsions:
REMARK  status: ('A' for Active; 'I' for Inactive)
REMARK       I    between atoms: C5_1  and  C6_46 
REMARK       I    between atoms: O1_2  and  C4_60 
REMARK       I    between atoms: O1_2  and  C1_47 
REMARK       I    between atoms: S_3  and  O4_24 
REMARK       I    between atoms: C7_6  and  C8_11 
REMARK       I    between atoms: C7_6  and  N_48 
REMARK       I    between atoms: O3_7  and  C3_41 
REMARK       I    between atoms: O1_9  and  C3_31 
REMARK       I    between atoms: O1_9  and  C1_19 
REMARK       I    between atoms: C6_10  and  C5_34 
REMARK       I    between atoms: C6_10  and  O6_12 
REMARK       I    between atoms: C3_13  and  O1_16 
REMARK       I    between atoms: C2_14  and  N_20 
REMARK       I    between atoms: C1_15  and  O1_45 
REMARK       I    between atoms: O1_16  and  C1_29 
REMARK       I    between atoms: S_17  and  O4_30 
REMARK       I    between atoms: N_20  and  C7_40 
REMARK       I    between atoms: C4_22  and  O4_30 
REMARK       I    between atoms: O4_24  and  C4_28 
REMARK       I    between atoms: C5_25  and  C6_55 
REMARK       I    between atoms: C2_32  and  O2_39 
REMARK       I    between atoms: C5_33  and  C6_51 
REMARK       I    between atoms: C2_36  and  O2_56 
REMARK       I    between atoms: C8_37  and  C7_40 
REMARK       I    between atoms: C2_43  and  N_48 
REMARK       I    between atoms: C3_50  and  O3_53 
REMARK       I    between atoms: O6_54  and  C6_55 
ROOT
ATOM      1  C5  BDP d1197       8.153  10.568  -0.297  0.00  0.00     0.152 C 
ATOM      2  O1  BDP d1197      11.726  11.094  -1.110  0.00  0.00    -0.348 OA
ATOM      3  C1  BDP d1197      10.358  11.494  -0.894  0.00  0.00     0.160 C 
ATOM      4  O5  BDP d1197       9.580  10.412  -0.366  0.00  0.00    -0.340 OA
ATOM      5  C2  BDP d1197       9.784  11.978  -2.226  0.00  0.00     0.110 C 
ATOM      6  O6A BDP d1197       6.875   9.073   1.032  0.00  0.00    -0.646 OA
ATOM      7  O2  BDP d1197      10.442  13.193  -2.611  0.00  0.00    -0.388 OA
ATOM      8  C6  BDP d1197       7.583   9.217   0.011  0.00  0.00     0.206 C 
ATOM      9  C3  BDP d1197       8.269  12.200  -2.210  0.00  0.00     0.092 C 
ATOM     10  O6B BDP d1197       7.835   8.287  -0.786  0.00  0.00    -0.646 OA
ATOM     11  O3  BDP d1197       7.837  12.383  -3.565  0.00  0.00    -0.390 OA
ATOM     12  C4  BDP d1197       7.505  11.023  -1.603  0.00  0.00     0.103 C 
ATOM     13  H   BDP d1197       7.955  11.319   0.439  0.00  0.00     0.104 H 
ATOM     14  H   BDP d1197      10.324  12.285  -0.173  0.00  0.00     0.133 H 
ATOM     15  H   BDP d1197       9.963  11.197  -2.934  0.00  0.00     0.094 H 
ATOM     16  H   BDP d1197      10.261  13.882  -1.952  0.00  0.00     0.210 HD
ATOM     17  H   BDP d1197       8.065  13.056  -1.602  0.00  0.00     0.091 H 
ATOM     18  H   BDP d1197       8.040  11.586  -4.080  0.00  0.00     0.210 HD
ATOM     19  H   BDP d1197       7.533  10.215  -2.304  0.00  0.00     0.092 H 
ATOM     20  O1  ASG d1198       6.135  11.398  -1.348  0.00  0.00    -0.348 OA
ATOM     21  O7  ASG d1198       2.996  10.940   2.239  0.00  0.00    -0.274 OA
ATOM     22  OSB ASG d1198       0.414  12.625  -4.189  0.00  0.00    -0.572 OA
ATOM     23  C3  ASG d1198       2.498  10.441  -1.940  0.00  0.00     0.094 C 
ATOM     24  C2  ASG d1198       3.712  11.092  -1.259  0.00  0.00     0.087 C 
ATOM     25  S   ASG d1198       1.695  12.381  -4.887  0.00  0.00     0.252 S 
ATOM     26  N   ASG d1198       3.610  10.634   0.123  0.00  0.00    -0.349 N 
ATOM     27  OSA ASG d1198       1.466  11.434  -6.001  0.00  0.00    -0.572 OA
ATOM     28  C4  ASG d1198       2.670  10.435  -3.454  0.00  0.00     0.114 C 
ATOM     29  C5  ASG d1198       4.001   9.768  -3.788  0.00  0.00     0.090 C 
ATOM     30  O4  ASG d1198       2.713  11.797  -3.889  0.00  0.00    -0.246 OA
ATOM     31  C8  ASG d1198       2.563  12.739   0.753  0.00  0.00    -0.003 C 
ATOM     32  C7  ASG d1198       3.067  11.367   1.100  0.00  0.00     0.214 C 
ATOM     33  C1  ASG d1198       5.057  10.558  -1.794  0.00  0.00     0.154 C 
ATOM     34  OSC ASG d1198       2.217  13.660  -5.421  0.00  0.00    -0.572 OA
ATOM     35  O6  ASG d1198       2.932   9.347  -5.887  0.00  0.00    -0.398 OA
ATOM     36  C6  ASG d1198       4.202   9.608  -5.290  0.00  0.00     0.043 C 
ATOM     37  O5  ASG d1198       5.067  10.537  -3.224  0.00  0.00    -0.349 OA
ATOM     38  H   ASG d1198       2.450   9.433  -1.584  0.00  0.00     0.091 H 
ATOM     39  H   ASG d1198       3.700  12.151  -1.413  0.00  0.00     0.084 H 
ATOM     40  H   ASG d1198       3.957   9.741   0.347  0.00  0.00     0.163 HD
ATOM     41  H   ASG d1198       1.869   9.908  -3.931  0.00  0.00     0.093 H 
ATOM     42  H   ASG d1198       3.995   8.784  -3.367  0.00  0.00     0.090 H 
ATOM     43  H   ASG d1198       2.159  13.202   1.629  0.00  0.00     0.040 H 
ATOM     44  H   ASG d1198       1.800  12.660   0.007  0.00  0.00     0.040 H 
ATOM     45  H   ASG d1198       3.370  13.331   0.377  0.00  0.00     0.040 H 
ATOM     46  H   ASG d1198       5.183   9.563  -1.421  0.00  0.00     0.132 H 
ATOM     47  H   ASG d1198       3.040   9.242  -6.845  0.00  0.00     0.209 HD
ATOM     48  H   ASG d1198       4.866   8.792  -5.482  0.00  0.00     0.078 H 
ATOM     49  H   ASG d1198       4.626  10.501  -5.701  0.00  0.00     0.078 H 
ATOM     50  S   ASG d1196      12.990   7.769  -2.358  0.00  0.00     0.252 S 
ATOM     51  OSB ASG d1196      13.520   8.342  -3.616  0.00  0.00    -0.572 OA
ATOM     52  C7  ASG d1196      14.699  13.218  -0.552  0.00  0.00     0.214 C 
ATOM     53  C6  ASG d1196      13.196   6.934   1.141  0.00  0.00     0.043 C 
ATOM     54  C8  ASG d1196      15.373  12.590  -1.735  0.00  0.00    -0.003 C 
ATOM     55  O6  ASG d1196      14.241   6.481   2.008  0.00  0.00    -0.398 OA
ATOM     56  C1  ASG d1196      14.656  10.329   1.196  0.00  0.00     0.151 C 
ATOM     57  O4  ASG d1196      13.328   8.744  -1.219  0.00  0.00    -0.246 OA
ATOM     58  C4  ASG d1196      12.476   9.030  -0.101  0.00  0.00     0.114 C 
ATOM     59  C3  ASG d1196      12.482  10.552  -0.016  0.00  0.00     0.094 C 
ATOM     60  C5  ASG d1196      13.220   8.456   1.102  0.00  0.00     0.090 C 
ATOM     61  OSA ASG d1196      11.525   7.588  -2.482  0.00  0.00    -0.572 OA
ATOM     62  OSC ASG d1196      13.664   6.472  -2.106  0.00  0.00    -0.572 OA
ATOM     63  C2  ASG d1196      13.954  10.967  -0.005  0.00  0.00     0.087 C 
ATOM     64  O5  ASG d1196      14.576   8.910   1.086  0.00  0.00    -0.349 OA
ATOM     65  O1  ASG d1196      16.039  10.697   1.198  0.00  0.00    -0.369 OA
ATOM     66  N   ASG d1196      14.018  12.401   0.253  0.00  0.00    -0.349 N 
ATOM     67  O7  ASG d1196      14.768  14.418  -0.344  0.00  0.00    -0.274 OA
ATOM     68  H   ASG d1196      13.351   6.545   0.156  0.00  0.00     0.078 H 
ATOM     69  H   ASG d1196      12.248   6.595   1.504  0.00  0.00     0.078 H 
ATOM     70  H   ASG d1196      15.190  11.536  -1.731  0.00  0.00     0.040 H 
ATOM     71  H   ASG d1196      16.426  12.770  -1.683  0.00  0.00     0.040 H 
ATOM     72  H   ASG d1196      14.983  13.017  -2.635  0.00  0.00     0.040 H 
ATOM     73  H   ASG d1196      15.097   6.793   1.673  0.00  0.00     0.209 HD
ATOM     74  H   ASG d1196      14.184  10.665   2.095  0.00  0.00     0.132 H 
ATOM     75  H   ASG d1196      11.480   8.643  -0.161  0.00  0.00     0.093 H 
ATOM     76  H   ASG d1196      12.012  10.932   0.867  0.00  0.00     0.091 H 
ATOM     77  H   ASG d1196      12.716   8.803   1.979  0.00  0.00     0.090 H 
ATOM     78  H   ASG d1196      14.401  10.680  -0.933  0.00  0.00     0.084 H 
ATOM     79  H   ASG d1196      16.458  10.388   0.379  0.00  0.00     0.212 HD
ATOM     80  H   ASG d1196      13.549  12.773   1.034  0.00  0.00     0.163 HD
ATOM     81  O3  BDP d1199      -3.435  10.829  -0.264  0.00  0.00    -0.393 OA
ATOM     82  O1  BDP d1199       1.258  11.077  -1.588  0.00  0.00    -0.348 OA
ATOM     83  O6A BDP d1199      -0.637   6.438  -3.215  0.00  0.00    -0.646 OA
ATOM     84  C4  BDP d1199      -2.428   9.131  -1.641  0.00  0.00    -0.005 C 
ATOM     85  O5  BDP d1199      -0.012   9.211  -2.075  0.00  0.00    -0.343 OA
ATOM     86  C1  BDP d1199       0.220  10.223  -1.086  0.00  0.00     0.159 C 
ATOM     87  C5  BDP d1199      -1.144   8.351  -1.906  0.00  0.00     0.127 C 
ATOM     88  C2  BDP d1199      -1.053  11.006  -0.748  0.00  0.00     0.107 C 
ATOM     89  C3  BDP d1199      -2.232  10.078  -0.468  0.00  0.00     0.068 C 
ATOM     90  C6  BDP d1199      -1.290   7.503  -3.139  0.00  0.00     0.203 C 
ATOM     91  O2  BDP d1199      -0.813  11.816   0.406  0.00  0.00    -0.388 OA
ATOM     92  O6B BDP d1199      -2.042   7.897  -4.057  0.00  0.00    -0.646 OA
ATOM     93  H   BDP d1199      -4.170  10.221  -0.089  0.00  0.00     0.210 HD
ATOM     94  H   BDP d1199      -2.685   9.696  -2.513  0.00  0.00     0.041 H 
ATOM     95  H   BDP d1199      -3.213   8.442  -1.408  0.00  0.00     0.041 H 
ATOM     96  H   BDP d1199       0.522   9.771  -0.164  0.00  0.00     0.133 H 
ATOM     97  H   BDP d1199      -0.978   7.734  -1.047  0.00  0.00     0.100 H 
ATOM     98  H   BDP d1199      -1.301  11.614  -1.594  0.00  0.00     0.094 H 
ATOM     99  H   BDP d1199      -2.018   9.523   0.421  0.00  0.00     0.087 H 
ATOM    100  H   BDP d1199      -0.590  11.246   1.159  0.00  0.00     0.210 HD
ENDROOT
TORSDOF 25
ENDMDL
MODEL 32
REMARK VINA RESULT:      -4.4      3.238      5.965
REMARK  0 active torsions:
REMARK  status: ('A' for Active; 'I' for Inactive)
REMARK       I    between atoms: C5_1  and  C6_46 
REMARK       I    between atoms: O1_2  and  C4_60 
REMARK       I    between atoms: O1_2  and  C1_47 
REMARK       I    between atoms: S_3  and  O4_24 
REMARK       I    between atoms: C7_6  and  C8_11 
REMARK       I    between atoms: C7_6  and  N_48 
REMARK       I    between atoms: O3_7  and  C3_41 
REMARK       I    between atoms: O1_9  and  C3_31 
REMARK       I    between atoms: O1_9  and  C1_19 
REMARK       I    between atoms: C6_10  and  C5_34 
REMARK       I    between atoms: C6_10  and  O6_12 
REMARK       I    between atoms: C3_13  and  O1_16 
REMARK       I    between atoms: C2_14  and  N_20 
REMARK       I    between atoms: C1_15  and  O1_45 
REMARK       I    between atoms: O1_16  and  C1_29 
REMARK       I    between atoms: S_17  and  O4_30 
REMARK       I    between atoms: N_20  and  C7_40 
REMARK       I    between atoms: C4_22  and  O4_30 
REMARK       I    between atoms: O4_24  and  C4_28 
REMARK       I    between atoms: C5_25  and  C6_55 
REMARK       I    between atoms: C2_32  and  O2_39 
REMARK       I    between atoms: C5_33  and  C6_51 
REMARK       I    between atoms: C2_36  and  O2_56 
REMARK       I    between atoms: C8_37  and  C7_40 
REMARK       I    between atoms: C2_43  and  N_48 
REMARK       I    between atoms: C3_50  and  O3_53 
REMARK       I    between atoms: O6_54  and  C6_55 
ROOT
ATOM      1  C5  BDP d1197       9.123  10.285   0.500  0.00  0.00     0.152 C 
ATOM      2  O1  BDP d1197      12.340  11.974   1.206  0.00  0.00    -0.348 OA
ATOM      3  C1  BDP d1197      10.904  11.853   1.167  0.00  0.00     0.160 C 
ATOM      4  O5  BDP d1197      10.508  10.525   0.800  0.00  0.00    -0.340 OA
ATOM      5  C2  BDP d1197      10.363  12.877   0.169  0.00  0.00     0.110 C 
ATOM      6  O6A BDP d1197       8.312   8.055   0.413  0.00  0.00    -0.646 OA
ATOM      7  O2  BDP d1197      10.584  14.199   0.681  0.00  0.00    -0.388 OA
ATOM      8  C6  BDP d1197       9.042   8.922  -0.118  0.00  0.00     0.206 C 
ATOM      9  C3  BDP d1197       8.881  12.700  -0.167  0.00  0.00     0.092 C 
ATOM     10  O6B BDP d1197       9.707   8.717  -1.156  0.00  0.00    -0.646 OA
ATOM     11  O3  BDP d1197       8.582  13.535  -1.294  0.00  0.00    -0.390 OA
ATOM     12  C4  BDP d1197       8.521  11.256  -0.514  0.00  0.00     0.103 C 
ATOM     13  H   BDP d1197       8.579  10.399   1.415  0.00  0.00     0.104 H 
ATOM     14  H   BDP d1197      10.501  12.042   2.140  0.00  0.00     0.133 H 
ATOM     15  H   BDP d1197      10.897  12.720  -0.745  0.00  0.00     0.094 H 
ATOM     16  H   BDP d1197      10.089  14.312   1.508  0.00  0.00     0.210 HD
ATOM     17  H   BDP d1197       8.309  12.969   0.697  0.00  0.00     0.091 H 
ATOM     18  H   BDP d1197       9.119  13.259  -2.053  0.00  0.00     0.210 HD
ATOM     19  H   BDP d1197       8.923  11.039  -1.482  0.00  0.00     0.092 H 
ATOM     20  O1  ASG d1198       7.087  11.092  -0.536  0.00  0.00    -0.348 OA
ATOM     21  O7  ASG d1198       3.904   7.937   1.154  0.00  0.00    -0.274 OA
ATOM     22  OSB ASG d1198       1.704  12.416  -3.937  0.00  0.00    -0.572 OA
ATOM     23  C3  ASG d1198       4.138   9.870  -2.612  0.00  0.00     0.094 C 
ATOM     24  C2  ASG d1198       4.944  10.255  -1.361  0.00  0.00     0.087 C 
ATOM     25  S   ASG d1198       3.063  12.921  -4.233  0.00  0.00     0.252 S 
ATOM     26  N   ASG d1198       4.843   9.069  -0.516  0.00  0.00    -0.349 N 
ATOM     27  OSA ASG d1198       3.328  12.779  -5.682  0.00  0.00    -0.572 OA
ATOM     28  C4  ASG d1198       4.486  10.786  -3.778  0.00  0.00     0.114 C 
ATOM     29  C5  ASG d1198       5.998  10.759  -3.981  0.00  0.00     0.090 C 
ATOM     30  O4  ASG d1198       4.091  12.113  -3.418  0.00  0.00    -0.246 OA
ATOM     31  C8  ASG d1198       3.042  10.110   0.747  0.00  0.00    -0.003 C 
ATOM     32  C7  ASG d1198       3.957   8.950   0.478  0.00  0.00     0.214 C 
ATOM     33  C1  ASG d1198       6.446  10.452  -1.653  0.00  0.00     0.154 C 
ATOM     34  OSC ASG d1198       3.153  14.349  -3.848  0.00  0.00    -0.572 OA
ATOM     35  O6  ASG d1198       5.419  11.412  -6.209  0.00  0.00    -0.398 OA
ATOM     36  C6  ASG d1198       6.427  11.555  -5.208  0.00  0.00     0.043 C 
ATOM     37  O5  ASG d1198       6.639  11.272  -2.810  0.00  0.00    -0.349 OA
ATOM     38  H   ASG d1198       4.412   8.865  -2.855  0.00  0.00     0.091 H 
ATOM     39  H   ASG d1198       4.573  11.169  -0.947  0.00  0.00     0.084 H 
ATOM     40  H   ASG d1198       5.458   8.320  -0.687  0.00  0.00     0.163 HD
ATOM     41  H   ASG d1198       3.993  10.472  -4.675  0.00  0.00     0.093 H 
ATOM     42  H   ASG d1198       6.294   9.744  -4.148  0.00  0.00     0.090 H 
ATOM     43  H   ASG d1198       2.395   9.871   1.564  0.00  0.00     0.040 H 
ATOM     44  H   ASG d1198       2.456  10.312  -0.125  0.00  0.00     0.040 H 
ATOM     45  H   ASG d1198       3.623  10.974   0.994  0.00  0.00     0.040 H 
ATOM     46  H   ASG d1198       6.873   9.486  -1.824  0.00  0.00     0.132 H 
ATOM     47  H   ASG d1198       5.675  11.913  -6.999  0.00  0.00     0.209 HD
ATOM     48  H   ASG d1198       7.358  11.178  -5.577  0.00  0.00     0.078 H 
ATOM     49  H   ASG d1198       6.549  12.587  -4.953  0.00  0.00     0.078 H 
ATOM     50  S   ASG d1196      14.857  10.389  -1.110  0.00  0.00     0.252 S 
ATOM     51  OSB ASG d1196      15.297  11.688  -1.667  0.00  0.00    -0.572 OA
ATOM     52  C7  ASG d1196      14.260  13.977   3.648  0.00  0.00     0.214 C 
ATOM     53  C6  ASG d1196      14.914   7.744   1.337  0.00  0.00     0.043 C 
ATOM     54  C8  ASG d1196      15.255  14.328   2.582  0.00  0.00    -0.003 C 
ATOM     55  O6  ASG d1196      15.938   7.121   2.120  0.00  0.00    -0.398 OA
ATOM     56  C1  ASG d1196      15.041  10.693   3.562  0.00  0.00     0.151 C 
ATOM     57  O4  ASG d1196      14.679  10.563   0.406  0.00  0.00    -0.246 OA
ATOM     58  C4  ASG d1196      13.650   9.944   1.190  0.00  0.00     0.114 C 
ATOM     59  C3  ASG d1196      13.099  11.083   2.039  0.00  0.00     0.094 C 
ATOM     60  C5  ASG d1196      14.396   8.962   2.090  0.00  0.00     0.090 C 
ATOM     61  OSA ASG d1196      13.581   9.990  -1.750  0.00  0.00    -0.572 OA
ATOM     62  OSC ASG d1196      15.914   9.380  -1.365  0.00  0.00    -0.572 OA
ATOM     63  C2  ASG d1196      14.311  11.733   2.709  0.00  0.00     0.087 C 
ATOM     64  O5  ASG d1196      15.490   9.631   2.724  0.00  0.00    -0.349 OA
ATOM     65  O1  ASG d1196      16.189  11.290   4.174  0.00  0.00    -0.369 OA
ATOM     66  N   ASG d1196      13.824  12.717   3.669  0.00  0.00    -0.349 N 
ATOM     67  O7  ASG d1196      13.868  14.809   4.450  0.00  0.00    -0.274 OA
ATOM     68  H   ASG d1196      15.319   8.050   0.394  0.00  0.00     0.078 H 
ATOM     69  H   ASG d1196      14.115   7.055   1.165  0.00  0.00     0.078 H 
ATOM     70  H   ASG d1196      15.463  13.461   1.990  0.00  0.00     0.040 H 
ATOM     71  H   ASG d1196      16.158  14.674   3.038  0.00  0.00     0.040 H 
ATOM     72  H   ASG d1196      14.852  15.098   1.958  0.00  0.00     0.040 H 
ATOM     73  H   ASG d1196      16.659   7.752   2.272  0.00  0.00     0.209 HD
ATOM     74  H   ASG d1196      14.373  10.325   4.312  0.00  0.00     0.132 H 
ATOM     75  H   ASG d1196      12.875   9.452   0.640  0.00  0.00     0.093 H 
ATOM     76  H   ASG d1196      12.419  10.760   2.799  0.00  0.00     0.091 H 
ATOM     77  H   ASG d1196      13.697   8.608   2.819  0.00  0.00     0.090 H 
ATOM     78  H   ASG d1196      14.942  12.150   1.953  0.00  0.00     0.084 H 
ATOM     79  H   ASG d1196      16.788  11.620   3.486  0.00  0.00     0.212 HD
ATOM     80  H   ASG d1196      13.160  12.447   4.344  0.00  0.00     0.163 HD
ATOM     81  O3  BDP d1199      -1.698   7.861  -2.878  0.00  0.00    -0.393 OA
ATOM     82  O1  BDP d1199       2.719   9.882  -2.382  0.00  0.00    -0.348 OA
ATOM     83  O6A BDP d1199       2.831   6.780  -6.640  0.00  0.00    -0.646 OA
ATOM     84  C4  BDP d1199       0.014   7.564  -4.545  0.00  0.00    -0.005 C 
ATOM     85  O5  BDP d1199       2.274   8.423  -4.115  0.00  0.00    -0.343 OA
ATOM     86  C1  BDP d1199       2.003   8.689  -2.732  0.00  0.00     0.159 C 
ATOM     87  C5  BDP d1199       1.514   7.398  -4.765  0.00  0.00     0.127 C 
ATOM     88  C2  BDP d1199       0.503   8.818  -2.449  0.00  0.00     0.107 C 
ATOM     89  C3  BDP d1199      -0.290   7.664  -3.058  0.00  0.00     0.068 C 
ATOM     90  C6  BDP d1199       1.835   7.421  -6.233  0.00  0.00     0.203 C 
ATOM     91  O2  BDP d1199       0.293   8.831  -1.034  0.00  0.00    -0.388 OA
ATOM     92  O6B BDP d1199       1.111   8.094  -6.998  0.00  0.00    -0.646 OA
ATOM     93  H   BDP d1199      -2.181   7.118  -3.272  0.00  0.00     0.210 HD
ATOM     94  H   BDP d1199      -0.319   8.455  -5.035  0.00  0.00     0.041 H 
ATOM     95  H   BDP d1199      -0.494   6.713  -4.949  0.00  0.00     0.041 H 
ATOM     96  H   BDP d1199       2.331   7.868  -2.130  0.00  0.00     0.133 H 
ATOM     97  H   BDP d1199       1.783   6.453  -4.339  0.00  0.00     0.100 H 
ATOM     98  H   BDP d1199       0.160   9.729  -2.893  0.00  0.00     0.094 H 
ATOM     99  H   BDP d1199      -0.002   6.761  -2.562  0.00  0.00     0.087 H 
ATOM    100  H   BDP d1199       0.610   7.998  -0.653  0.00  0.00     0.210 HD
ENDROOT
TORSDOF 25
ENDMDL
MODEL 33
REMARK VINA RESULT:      -4.3      3.603      5.957
REMARK  0 active torsions:
REMARK  status: ('A' for Active; 'I' for Inactive)
REMARK       I    between atoms: C5_1  and  C6_46 
REMARK       I    between atoms: O1_2  and  C4_60 
REMARK       I    between atoms: O1_2  and  C1_47 
REMARK       I    between atoms: S_3  and  O4_24 
REMARK       I    between atoms: C7_6  and  C8_11 
REMARK       I    between atoms: C7_6  and  N_48 
REMARK       I    between atoms: O3_7  and  C3_41 
REMARK       I    between atoms: O1_9  and  C3_31 
REMARK       I    between atoms: O1_9  and  C1_19 
REMARK       I    between atoms: C6_10  and  C5_34 
REMARK       I    between atoms: C6_10  and  O6_12 
REMARK       I    between atoms: C3_13  and  O1_16 
REMARK       I    between atoms: C2_14  and  N_20 
REMARK       I    between atoms: C1_15  and  O1_45 
REMARK       I    between atoms: O1_16  and  C1_29 
REMARK       I    between atoms: S_17  and  O4_30 
REMARK       I    between atoms: N_20  and  C7_40 
REMARK       I    between atoms: C4_22  and  O4_30 
REMARK       I    between atoms: O4_24  and  C4_28 
REMARK       I    between atoms: C5_25  and  C6_55 
REMARK       I    between atoms: C2_32  and  O2_39 
REMARK       I    between atoms: C5_33  and  C6_51 
REMARK       I    between atoms: C2_36  and  O2_56 
REMARK       I    between atoms: C8_37  and  C7_40 
REMARK       I    between atoms: C2_43  and  N_48 
REMARK       I    between atoms: C3_50  and  O3_53 
REMARK       I    between atoms: O6_54  and  C6_55 
ROOT
ATOM      1  C5  BDP d1197      10.131  10.906   0.977  0.00  0.00     0.152 C 
ATOM      2  O1  BDP d1197      13.007  13.192   1.427  0.00  0.00    -0.348 OA
ATOM      3  C1  BDP d1197      11.699  12.659   1.714  0.00  0.00     0.160 C 
ATOM      4  O5  BDP d1197      11.461  11.451   0.979  0.00  0.00    -0.340 OA
ATOM      5  C2  BDP d1197      10.659  13.724   1.363  0.00  0.00     0.110 C 
ATOM      6  O6A BDP d1197       9.782   8.673   0.249  0.00  0.00    -0.646 OA
ATOM      7  O2  BDP d1197      10.788  14.828   2.269  0.00  0.00    -0.388 OA
ATOM      8  C6  BDP d1197      10.101   9.839  -0.075  0.00  0.00     0.206 C 
ATOM      9  C3  BDP d1197       9.216  13.216   1.377  0.00  0.00     0.092 C 
ATOM     10  O6B BDP d1197      10.388  10.172  -1.245  0.00  0.00    -0.646 OA
ATOM     11  O3  BDP d1197       8.389  14.222   0.777  0.00  0.00    -0.390 OA
ATOM     12  C4  BDP d1197       9.040  11.909   0.606  0.00  0.00     0.103 C 
ATOM     13  H   BDP d1197       9.930  10.565   1.971  0.00  0.00     0.104 H 
ATOM     14  H   BDP d1197      11.632  12.412   2.753  0.00  0.00     0.133 H 
ATOM     15  H   BDP d1197      10.860  14.022   0.355  0.00  0.00     0.094 H 
ATOM     16  H   BDP d1197      10.601  14.529   3.173  0.00  0.00     0.210 HD
ATOM     17  H   BDP d1197       8.941  13.023   2.394  0.00  0.00     0.091 H 
ATOM     18  H   BDP d1197       8.670  14.367  -0.140  0.00  0.00     0.210 HD
ATOM     19  H   BDP d1197       9.112  12.129  -0.438  0.00  0.00     0.092 H 
ATOM     20  O1  ASG d1198       7.748  11.332   0.892  0.00  0.00    -0.348 OA
ATOM     21  O7  ASG d1198       6.018   7.004   1.993  0.00  0.00    -0.274 OA
ATOM     22  OSB ASG d1198       1.369  11.930  -0.229  0.00  0.00    -0.572 OA
ATOM     23  C3  ASG d1198       4.551   9.966  -0.660  0.00  0.00     0.094 C 
ATOM     24  C2  ASG d1198       5.653  10.178   0.390  0.00  0.00     0.087 C 
ATOM     25  S   ASG d1198       2.417  12.888  -0.645  0.00  0.00     0.252 S 
ATOM     26  N   ASG d1198       6.081   8.819   0.708  0.00  0.00    -0.349 N 
ATOM     27  OSA ASG d1198       2.181  13.281  -2.053  0.00  0.00    -0.572 OA
ATOM     28  C4  ASG d1198       4.289  11.253  -1.431  0.00  0.00     0.114 C 
ATOM     29  C5  ASG d1198       5.610  11.750  -2.010  0.00  0.00     0.090 C 
ATOM     30  O4  ASG d1198       3.798  12.223  -0.499  0.00  0.00    -0.246 OA
ATOM     31  C8  ASG d1198       4.671   8.828   2.691  0.00  0.00    -0.003 C 
ATOM     32  C7  ASG d1198       5.638   8.140   1.771  0.00  0.00     0.214 C 
ATOM     33  C1  ASG d1198       6.892  10.900  -0.179  0.00  0.00     0.154 C 
ATOM     34  OSC ASG d1198       2.361  14.088   0.222  0.00  0.00    -0.572 OA
ATOM     35  O6  ASG d1198       4.177  12.842  -3.584  0.00  0.00    -0.398 OA
ATOM     36  C6  ASG d1198       5.423  12.972  -2.901  0.00  0.00     0.043 C 
ATOM     37  O5  ASG d1198       6.509  12.051  -0.938  0.00  0.00    -0.349 OA
ATOM     38  H   ASG d1198       4.908   9.215  -1.333  0.00  0.00     0.091 H 
ATOM     39  H   ASG d1198       5.283  10.764   1.205  0.00  0.00     0.084 H 
ATOM     40  H   ASG d1198       6.729   8.381   0.110  0.00  0.00     0.163 HD
ATOM     41  H   ASG d1198       3.583  11.093  -2.220  0.00  0.00     0.093 H 
ATOM     42  H   ASG d1198       6.017  10.974  -2.624  0.00  0.00     0.090 H 
ATOM     43  H   ASG d1198       4.408   8.167   3.490  0.00  0.00     0.040 H 
ATOM     44  H   ASG d1198       3.790   9.098   2.146  0.00  0.00     0.040 H 
ATOM     45  H   ASG d1198       5.125   9.709   3.093  0.00  0.00     0.040 H 
ATOM     46  H   ASG d1198       7.408  10.209  -0.812  0.00  0.00     0.132 H 
ATOM     47  H   ASG d1198       4.040  13.612  -4.157  0.00  0.00     0.209 HD
ATOM     48  H   ASG d1198       6.221  13.027  -3.612  0.00  0.00     0.078 H 
ATOM     49  H   ASG d1198       5.428  13.863  -2.309  0.00  0.00     0.078 H 
ATOM     50  S   ASG d1196      14.810  13.229  -1.884  0.00  0.00     0.252 S 
ATOM     51  OSB ASG d1196      14.772  14.706  -1.990  0.00  0.00    -0.572 OA
ATOM     52  C7  ASG d1196      15.240  14.840   3.868  0.00  0.00     0.214 C 
ATOM     53  C6  ASG d1196      16.221  10.114  -0.748  0.00  0.00     0.043 C 
ATOM     54  C8  ASG d1196      15.713  15.783   2.803  0.00  0.00    -0.003 C 
ATOM     55  O6  ASG d1196      17.553   9.623  -0.557  0.00  0.00    -0.398 OA
ATOM     56  C1  ASG d1196      16.552  12.138   2.327  0.00  0.00     0.151 C 
ATOM     57  O4  ASG d1196      15.144  12.871  -0.427  0.00  0.00    -0.246 OA
ATOM     58  C4  ASG d1196      14.591  11.761   0.294  0.00  0.00     0.114 C 
ATOM     59  C3  ASG d1196      14.164  12.365   1.626  0.00  0.00     0.094 C 
ATOM     60  C5  ASG d1196      15.777  10.827   0.522  0.00  0.00     0.090 C 
ATOM     61  OSA ASG d1196      13.493  12.677  -2.277  0.00  0.00    -0.572 OA
ATOM     62  OSC ASG d1196      15.884  12.717  -2.771  0.00  0.00    -0.572 OA
ATOM     63  C2  ASG d1196      15.386  13.115   2.159  0.00  0.00     0.087 C 
ATOM     64  O5  ASG d1196      16.874  11.570   1.059  0.00  0.00    -0.349 OA
ATOM     65  O1  ASG d1196      17.705  12.839   2.804  0.00  0.00    -0.369 OA
ATOM     66  N   ASG d1196      15.086  13.564   3.514  0.00  0.00    -0.349 N 
ATOM     67  O7  ASG d1196      15.000  15.229   5.000  0.00  0.00    -0.274 OA
ATOM     68  H   ASG d1196      16.206  10.799  -1.570  0.00  0.00     0.078 H 
ATOM     69  H   ASG d1196      15.559   9.301  -0.960  0.00  0.00     0.078 H 
ATOM     70  H   ASG d1196      15.863  15.244   1.891  0.00  0.00     0.040 H 
ATOM     71  H   ASG d1196      16.635  16.232   3.108  0.00  0.00     0.040 H 
ATOM     72  H   ASG d1196      14.979  16.546   2.650  0.00  0.00     0.040 H 
ATOM     73  H   ASG d1196      18.147  10.366  -0.365  0.00  0.00     0.209 HD
ATOM     74  H   ASG d1196      16.271  11.375   3.022  0.00  0.00     0.132 H 
ATOM     75  H   ASG d1196      13.782  11.249  -0.184  0.00  0.00     0.093 H 
ATOM     76  H   ASG d1196      13.867  11.635   2.350  0.00  0.00     0.091 H 
ATOM     77  H   ASG d1196      15.457  10.074   1.211  0.00  0.00     0.090 H 
ATOM     78  H   ASG d1196      15.622  13.913   1.487  0.00  0.00     0.084 H 
ATOM     79  H   ASG d1196      17.951  13.528   2.167  0.00  0.00     0.212 HD
ATOM     80  H   ASG d1196      14.764  12.913   4.179  0.00  0.00     0.163 HD
ATOM     81  O3  BDP d1199      -0.514   6.463  -0.170  0.00  0.00    -0.393 OA
ATOM     82  O1  BDP d1199       3.327   9.477  -0.086  0.00  0.00    -0.348 OA
ATOM     83  O6A BDP d1199       2.535   8.005  -5.084  0.00  0.00    -0.646 OA
ATOM     84  C4  BDP d1199       0.532   7.221  -2.201  0.00  0.00    -0.005 C 
ATOM     85  O5  BDP d1199       2.591   8.551  -2.070  0.00  0.00    -0.343 OA
ATOM     86  C1  BDP d1199       2.775   8.289  -0.672  0.00  0.00     0.159 C 
ATOM     87  C5  BDP d1199       1.863   7.593  -2.846  0.00  0.00     0.127 C 
ATOM     88  C2  BDP d1199       1.473   7.864   0.013  0.00  0.00     0.107 C 
ATOM     89  C3  BDP d1199       0.753   6.767  -0.767  0.00  0.00     0.068 C 
ATOM     90  C6  BDP d1199       1.641   8.159  -4.221  0.00  0.00     0.203 C 
ATOM     91  O2  BDP d1199       1.771   7.381   1.327  0.00  0.00    -0.388 OA
ATOM     92  O6B BDP d1199       0.581   8.779  -4.454  0.00  0.00    -0.646 OA
ATOM     93  H   BDP d1199      -0.953   5.765  -0.680  0.00  0.00     0.210 HD
ATOM     94  H   BDP d1199      -0.115   8.074  -2.207  0.00  0.00     0.041 H 
ATOM     95  H   BDP d1199       0.087   6.422  -2.756  0.00  0.00     0.041 H 
ATOM     96  H   BDP d1199       3.443   7.463  -0.539  0.00  0.00     0.133 H 
ATOM     97  H   BDP d1199       2.438   6.692  -2.901  0.00  0.00     0.100 H 
ATOM     98  H   BDP d1199       0.829   8.717   0.059  0.00  0.00     0.094 H 
ATOM     99  H   BDP d1199       1.362   5.887  -0.750  0.00  0.00     0.087 H 
ATOM    100  H   BDP d1199       2.354   6.609   1.263  0.00  0.00     0.210 HD
ENDROOT
TORSDOF 25
ENDMDL
MODEL 34
REMARK VINA RESULT:      -4.3      2.361     12.422
REMARK  0 active torsions:
REMARK  status: ('A' for Active; 'I' for Inactive)
REMARK       I    between atoms: C5_1  and  C6_46 
REMARK       I    between atoms: O1_2  and  C4_60 
REMARK       I    between atoms: O1_2  and  C1_47 
REMARK       I    between atoms: S_3  and  O4_24 
REMARK       I    between atoms: C7_6  and  C8_11 
REMARK       I    between atoms: C7_6  and  N_48 
REMARK       I    between atoms: O3_7  and  C3_41 
REMARK       I    between atoms: O1_9  and  C3_31 
REMARK       I    between atoms: O1_9  and  C1_19 
REMARK       I    between atoms: C6_10  and  C5_34 
REMARK       I    between atoms: C6_10  and  O6_12 
REMARK       I    between atoms: C3_13  and  O1_16 
REMARK       I    between atoms: C2_14  and  N_20 
REMARK       I    between atoms: C1_15  and  O1_45 
REMARK       I    between atoms: O1_16  and  C1_29 
REMARK       I    between atoms: S_17  and  O4_30 
REMARK       I    between atoms: N_20  and  C7_40 
REMARK       I    between atoms: C4_22  and  O4_30 
REMARK       I    between atoms: O4_24  and  C4_28 
REMARK       I    between atoms: C5_25  and  C6_55 
REMARK       I    between atoms: C2_32  and  O2_39 
REMARK       I    between atoms: C5_33  and  C6_51 
REMARK       I    between atoms: C2_36  and  O2_56 
REMARK       I    between atoms: C8_37  and  C7_40 
REMARK       I    between atoms: C2_43  and  N_48 
REMARK       I    between atoms: C3_50  and  O3_53 
REMARK       I    between atoms: O6_54  and  C6_55 
ROOT
ATOM      1  C5  BDP d1197       4.005  10.330  -0.965  0.00  0.00     0.152 C 
ATOM      2  O1  BDP d1197       0.564  10.625  -2.297  0.00  0.00    -0.348 OA
ATOM      3  C1  BDP d1197       1.878  10.045  -2.177  0.00  0.00     0.160 C 
ATOM      4  O5  BDP d1197       2.605  10.632  -1.091  0.00  0.00    -0.340 OA
ATOM      5  C2  BDP d1197       2.615  10.252  -3.501  0.00  0.00     0.110 C 
ATOM      6  O6A BDP d1197       5.130  10.818   1.068  0.00  0.00    -0.646 OA
ATOM      7  O2  BDP d1197       1.984   9.468  -4.523  0.00  0.00    -0.388 OA
ATOM      8  C6  BDP d1197       4.564  11.279   0.052  0.00  0.00     0.206 C 
ATOM      9  C3  BDP d1197       4.107   9.913  -3.445  0.00  0.00     0.092 C 
ATOM     10  O6B BDP d1197       4.448  12.503  -0.174  0.00  0.00    -0.646 OA
ATOM     11  O3  BDP d1197       4.715  10.403  -4.648  0.00  0.00    -0.390 OA
ATOM     12  C4  BDP d1197       4.812  10.542  -2.244  0.00  0.00     0.103 C 
ATOM     13  H   BDP d1197       4.080   9.295  -0.705  0.00  0.00     0.104 H 
ATOM     14  H   BDP d1197       1.792   8.999  -1.967  0.00  0.00     0.133 H 
ATOM     15  H   BDP d1197       2.556  11.298  -3.720  0.00  0.00     0.094 H 
ATOM     16  H   BDP d1197       2.054   8.527  -4.297  0.00  0.00     0.210 HD
ATOM     17  H   BDP d1197       4.204   8.852  -3.347  0.00  0.00     0.091 H 
ATOM     18  H   BDP d1197       4.606  11.366  -4.697  0.00  0.00     0.210 HD
ATOM     19  H   BDP d1197       4.903  11.593  -2.427  0.00  0.00     0.092 H 
ATOM     20  O1  ASG d1198       6.124   9.964  -2.079  0.00  0.00    -0.348 OA
ATOM     21  O7  ASG d1198       8.756   8.245   1.534  0.00  0.00    -0.274 OA
ATOM     22  OSB ASG d1198      12.144   9.820  -4.537  0.00  0.00    -0.572 OA
ATOM     23  C3  ASG d1198       9.833  10.746  -1.714  0.00  0.00     0.094 C 
ATOM     24  C2  ASG d1198       8.520   9.955  -1.595  0.00  0.00     0.087 C 
ATOM     25  S   ASG d1198      10.977  10.503  -5.138  0.00  0.00     0.252 S 
ATOM     26  N   ASG d1198       8.445   9.637  -0.173  0.00  0.00    -0.349 N 
ATOM     27  OSA ASG d1198      11.383  11.858  -5.575  0.00  0.00    -0.572 OA
ATOM     28  C4  ASG d1198       9.869  11.534  -3.017  0.00  0.00     0.114 C 
ATOM     29  C5  ASG d1198       8.615  12.399  -3.095  0.00  0.00     0.090 C 
ATOM     30  O4  ASG d1198       9.849  10.591  -4.093  0.00  0.00    -0.246 OA
ATOM     31  C8  ASG d1198       9.339   7.417  -0.611  0.00  0.00    -0.003 C 
ATOM     32  C7  ASG d1198       8.830   8.463   0.338  0.00  0.00     0.214 C 
ATOM     33  C1  ASG d1198       7.275  10.810  -1.913  0.00  0.00     0.154 C 
ATOM     34  OSC ASG d1198      10.499   9.726  -6.305  0.00  0.00    -0.572 OA
ATOM     35  O6  ASG d1198       9.971  13.725  -4.554  0.00  0.00    -0.398 OA
ATOM     36  C6  ASG d1198       8.625  13.316  -4.312  0.00  0.00     0.043 C 
ATOM     37  O5  ASG d1198       7.461  11.553  -3.122  0.00  0.00    -0.349 OA
ATOM     38  H   ASG d1198       9.859  11.424  -0.887  0.00  0.00     0.091 H 
ATOM     39  H   ASG d1198       8.524   9.125  -2.270  0.00  0.00     0.084 H 
ATOM     40  H   ASG d1198       8.094  10.322   0.442  0.00  0.00     0.163 HD
ATOM     41  H   ASG d1198      10.741  12.153  -3.069  0.00  0.00     0.093 H 
ATOM     42  H   ASG d1198       8.590  13.028  -2.229  0.00  0.00     0.090 H 
ATOM     43  H   ASG d1198       9.607   6.538  -0.063  0.00  0.00     0.040 H 
ATOM     44  H   ASG d1198      10.199   7.791  -1.127  0.00  0.00     0.040 H 
ATOM     45  H   ASG d1198       8.575   7.176  -1.320  0.00  0.00     0.040 H 
ATOM     46  H   ASG d1198       7.127  11.485  -1.097  0.00  0.00     0.132 H 
ATOM     47  H   ASG d1198       9.998  14.310  -5.327  0.00  0.00     0.209 HD
ATOM     48  H   ASG d1198       8.015  14.175  -4.123  0.00  0.00     0.078 H 
ATOM     49  H   ASG d1198       8.237  12.800  -5.166  0.00  0.00     0.078 H 
ATOM     50  S   ASG d1196      -0.428  14.225  -1.777  0.00  0.00     0.252 S 
ATOM     51  OSB ASG d1196      -0.797  14.422  -3.198  0.00  0.00    -0.572 OA
ATOM     52  C7  ASG d1196      -2.514   8.799  -3.222  0.00  0.00     0.214 C 
ATOM     53  C6  ASG d1196      -1.087  13.185   1.609  0.00  0.00     0.043 C 
ATOM     54  C8  ASG d1196      -3.003  10.000  -3.975  0.00  0.00    -0.003 C 
ATOM     55  O6  ASG d1196      -2.228  13.231   2.473  0.00  0.00    -0.398 OA
ATOM     56  C1  ASG d1196      -2.632  10.384  -0.243  0.00  0.00     0.151 C 
ATOM     57  O4  ASG d1196      -0.945  12.844  -1.345  0.00  0.00    -0.246 OA
ATOM     58  C4  ASG d1196      -0.261  11.952  -0.453  0.00  0.00     0.114 C 
ATOM     59  C3  ASG d1196      -0.320  10.605  -1.164  0.00  0.00     0.094 C 
ATOM     60  C5  ASG d1196      -1.147  11.903   0.789  0.00  0.00     0.090 C 
ATOM     61  OSA ASG d1196       1.044  14.307  -1.638  0.00  0.00    -0.572 OA
ATOM     62  OSC ASG d1196      -1.095  15.272  -0.964  0.00  0.00    -0.572 OA
ATOM     63  C2  ASG d1196      -1.790  10.381  -1.521  0.00  0.00     0.087 C 
ATOM     64  O5  ASG d1196      -2.500  11.649   0.402  0.00  0.00    -0.349 OA
ATOM     65  O1  ASG d1196      -4.012  10.197  -0.573  0.00  0.00    -0.369 OA
ATOM     66  N   ASG d1196      -1.927   9.028  -2.047  0.00  0.00    -0.349 N 
ATOM     67  O7  ASG d1196      -2.643   7.672  -3.671  0.00  0.00    -0.274 OA
ATOM     68  H   ASG d1196      -1.096  14.032   0.955  0.00  0.00     0.078 H 
ATOM     69  H   ASG d1196      -0.189  13.204   2.190  0.00  0.00     0.078 H 
ATOM     70  H   ASG d1196      -2.794  10.884  -3.411  0.00  0.00     0.040 H 
ATOM     71  H   ASG d1196      -4.058   9.918  -4.132  0.00  0.00     0.040 H 
ATOM     72  H   ASG d1196      -2.506  10.055  -4.921  0.00  0.00     0.040 H 
ATOM     73  H   ASG d1196      -3.038  13.214   1.938  0.00  0.00     0.209 HD
ATOM     74  H   ASG d1196      -2.297   9.597   0.398  0.00  0.00     0.132 H 
ATOM     75  H   ASG d1196       0.744  12.221  -0.202  0.00  0.00     0.093 H 
ATOM     76  H   ASG d1196       0.015   9.788  -0.560  0.00  0.00     0.091 H 
ATOM     77  H   ASG d1196      -0.776  11.114   1.410  0.00  0.00     0.090 H 
ATOM     78  H   ASG d1196      -2.099  11.140  -2.209  0.00  0.00     0.084 H 
ATOM     79  H   ASG d1196      -4.306  10.916  -1.154  0.00  0.00     0.212 HD
ATOM     80  H   ASG d1196      -1.580   8.269  -1.525  0.00  0.00     0.163 HD
ATOM     81  O3  BDP d1199      15.469   9.010   0.125  0.00  0.00    -0.393 OA
ATOM     82  O1  BDP d1199      10.996   9.906  -1.613  0.00  0.00    -0.348 OA
ATOM     83  O6A BDP d1199      13.219  14.530  -0.414  0.00  0.00    -0.646 OA
ATOM     84  C4  BDP d1199      14.705  11.257  -0.276  0.00  0.00    -0.005 C 
ATOM     85  O5  BDP d1199      12.370  11.634  -0.937  0.00  0.00    -0.343 OA
ATOM     86  C1  BDP d1199      11.978  10.287  -0.639  0.00  0.00     0.159 C 
ATOM     87  C5  BDP d1199      13.491  12.180  -0.233  0.00  0.00     0.127 C 
ATOM     88  C2  BDP d1199      13.171   9.326  -0.624  0.00  0.00     0.107 C 
ATOM     89  C3  BDP d1199      14.326   9.869   0.214  0.00  0.00     0.068 C 
ATOM     90  C6  BDP d1199      13.826  13.518  -0.831  0.00  0.00     0.203 C 
ATOM     91  O2  BDP d1199      12.754   8.069  -0.083  0.00  0.00    -0.388 OA
ATOM     92  O6B BDP d1199      14.687  13.575  -1.737  0.00  0.00    -0.646 OA
ATOM     93  H   BDP d1199      16.189   9.373   0.664  0.00  0.00     0.210 HD
ATOM     94  H   BDP d1199      15.063  11.191  -1.283  0.00  0.00     0.041 H 
ATOM     95  H   BDP d1199      15.469  11.656   0.358  0.00  0.00     0.041 H 
ATOM     96  H   BDP d1199      11.565  10.234   0.346  0.00  0.00     0.133 H 
ATOM     97  H   BDP d1199      13.226  12.288   0.799  0.00  0.00     0.100 H 
ATOM     98  H   BDP d1199      13.516   9.211  -1.631  0.00  0.00     0.094 H 
ATOM     99  H   BDP d1199      14.007   9.914   1.235  0.00  0.00     0.087 H 
ATOM    100  H   BDP d1199      12.447   8.196   0.828  0.00  0.00     0.210 HD
ENDROOT
TORSDOF 25
ENDMDL
MODEL 35
REMARK VINA RESULT:      -4.3      3.234     12.592
REMARK  0 active torsions:
REMARK  status: ('A' for Active; 'I' for Inactive)
REMARK       I    between atoms: C5_1  and  C6_46 
REMARK       I    between atoms: O1_2  and  C4_60 
REMARK       I    between atoms: O1_2  and  C1_47 
REMARK       I    between atoms: S_3  and  O4_24 
REMARK       I    between atoms: C7_6  and  C8_11 
REMARK       I    between atoms: C7_6  and  N_48 
REMARK       I    between atoms: O3_7  and  C3_41 
REMARK       I    between atoms: O1_9  and  C3_31 
REMARK       I    between atoms: O1_9  and  C1_19 
REMARK       I    between atoms: C6_10  and  C5_34 
REMARK       I    between atoms: C6_10  and  O6_12 
REMARK       I    between atoms: C3_13  and  O1_16 
REMARK       I    between atoms: C2_14  and  N_20 
REMARK       I    between atoms: C1_15  and  O1_45 
REMARK       I    between atoms: O1_16  and  C1_29 
REMARK       I    between atoms: S_17  and  O4_30 
REMARK       I    between atoms: N_20  and  C7_40 
REMARK       I    between atoms: C4_22  and  O4_30 
REMARK       I    between atoms: O4_24  and  C4_28 
REMARK       I    between atoms: C5_25  and  C6_55 
REMARK       I    between atoms: C2_32  and  O2_39 
REMARK       I    between atoms: C5_33  and  C6_51 
REMARK       I    between atoms: C2_36  and  O2_56 
REMARK       I    between atoms: C8_37  and  C7_40 
REMARK       I    between atoms: C2_43  and  N_48 
REMARK       I    between atoms: C3_50  and  O3_53 
REMARK       I    between atoms: O6_54  and  C6_55 
ROOT
ATOM      1  C5  BDP d1197       5.987  11.055  -0.852  0.00  0.00     0.152 C 
ATOM      2  O1  BDP d1197       2.705   9.622  -1.787  0.00  0.00    -0.348 OA
ATOM      3  C1  BDP d1197       3.755  10.009  -0.879  0.00  0.00     0.160 C 
ATOM      4  O5  BDP d1197       4.763  10.775  -1.552  0.00  0.00    -0.340 OA
ATOM      5  C2  BDP d1197       4.352   8.741  -0.268  0.00  0.00     0.110 C 
ATOM      6  O6A BDP d1197       7.449  12.734  -1.677  0.00  0.00    -0.646 OA
ATOM      7  O2  BDP d1197       3.377   8.119   0.579  0.00  0.00    -0.388 OA
ATOM      8  C6  BDP d1197       6.949  11.603  -1.863  0.00  0.00     0.206 C 
ATOM      9  C3  BDP d1197       5.641   8.976   0.523  0.00  0.00     0.092 C 
ATOM     10  O6B BDP d1197       7.220  10.886  -2.851  0.00  0.00    -0.646 OA
ATOM     11  O3  BDP d1197       6.227   7.697   0.801  0.00  0.00    -0.390 OA
ATOM     12  C4  BDP d1197       6.657   9.828  -0.238  0.00  0.00     0.103 C 
ATOM     13  H   BDP d1197       5.744  11.723  -0.052  0.00  0.00     0.104 H 
ATOM     14  H   BDP d1197       3.352  10.631  -0.108  0.00  0.00     0.133 H 
ATOM     15  H   BDP d1197       4.618   8.106  -1.088  0.00  0.00     0.094 H 
ATOM     16  H   BDP d1197       3.156   8.716   1.311  0.00  0.00     0.210 HD
ATOM     17  H   BDP d1197       5.391   9.508   1.417  0.00  0.00     0.091 H 
ATOM     18  H   BDP d1197       6.439   7.249  -0.033  0.00  0.00     0.210 HD
ATOM     19  H   BDP d1197       7.068   9.228  -1.023  0.00  0.00     0.092 H 
ATOM     20  O1  ASG d1198       7.711  10.256   0.649  0.00  0.00    -0.348 OA
ATOM     21  O7  ASG d1198      10.040  14.332   1.598  0.00  0.00    -0.274 OA
ATOM     22  OSB ASG d1198      12.993   8.256   3.874  0.00  0.00    -0.572 OA
ATOM     23  C3  ASG d1198      11.484  10.372   1.151  0.00  0.00     0.094 C 
ATOM     24  C2  ASG d1198      10.008  10.769   1.310  0.00  0.00     0.087 C 
ATOM     25  S   ASG d1198      12.057   7.392   3.122  0.00  0.00     0.252 S 
ATOM     26  N   ASG d1198      10.005  12.193   0.987  0.00  0.00    -0.349 N 
ATOM     27  OSA ASG d1198      12.833   6.444   2.291  0.00  0.00    -0.572 OA
ATOM     28  C4  ASG d1198      11.621   8.861   1.014  0.00  0.00     0.114 C 
ATOM     29  C5  ASG d1198      10.727   8.394  -0.130  0.00  0.00     0.090 C 
ATOM     30  O4  ASG d1198      11.158   8.272   2.234  0.00  0.00    -0.246 OA
ATOM     31  C8  ASG d1198      10.049  12.741   3.358  0.00  0.00    -0.003 C 
ATOM     32  C7  ASG d1198      10.036  13.155   1.914  0.00  0.00     0.214 C 
ATOM     33  C1  ASG d1198       9.089  10.089   0.273  0.00  0.00     0.154 C 
ATOM     34  OSC ASG d1198      11.209   6.639   4.075  0.00  0.00    -0.572 OA
ATOM     35  O6  ASG d1198      12.258   6.557  -0.194  0.00  0.00    -0.398 OA
ATOM     36  C6  ASG d1198      10.893   6.907  -0.419  0.00  0.00     0.043 C 
ATOM     37  O5  ASG d1198       9.363   8.687   0.190  0.00  0.00    -0.349 OA
ATOM     38  H   ASG d1198      11.834  10.843   0.257  0.00  0.00     0.091 H 
ATOM     39  H   ASG d1198       9.653  10.500   2.283  0.00  0.00     0.084 H 
ATOM     40  H   ASG d1198       9.979  12.457   0.040  0.00  0.00     0.163 HD
ATOM     41  H   ASG d1198      12.636   8.582   0.819  0.00  0.00     0.093 H 
ATOM     42  H   ASG d1198      11.018   8.920  -1.016  0.00  0.00     0.090 H 
ATOM     43  H   ASG d1198      10.073  13.612   3.978  0.00  0.00     0.040 H 
ATOM     44  H   ASG d1198      10.914  12.142   3.549  0.00  0.00     0.040 H 
ATOM     45  H   ASG d1198       9.168  12.174   3.574  0.00  0.00     0.040 H 
ATOM     46  H   ASG d1198       9.274  10.547  -0.675  0.00  0.00     0.132 H 
ATOM     47  H   ASG d1198      12.384   5.612  -0.373  0.00  0.00     0.209 HD
ATOM     48  H   ASG d1198      10.631   6.705  -1.437  0.00  0.00     0.078 H 
ATOM     49  H   ASG d1198      10.255   6.334   0.221  0.00  0.00     0.078 H 
ATOM     50  S   ASG d1196       3.038   8.572  -5.393  0.00  0.00     0.252 S 
ATOM     51  OSB ASG d1196       2.585   7.188  -5.125  0.00  0.00    -0.572 OA
ATOM     52  C7  ASG d1196      -0.894   9.448  -0.960  0.00  0.00     0.214 C 
ATOM     53  C6  ASG d1196       2.488  12.064  -6.091  0.00  0.00     0.043 C 
ATOM     54  C8  ASG d1196      -1.043   8.250  -1.850  0.00  0.00    -0.003 C 
ATOM     55  O6  ASG d1196       1.541  12.796  -6.877  0.00  0.00    -0.398 OA
ATOM     56  C1  ASG d1196      -0.114  11.496  -3.528  0.00  0.00     0.151 C 
ATOM     57  O4  ASG d1196       2.148   9.523  -4.577  0.00  0.00    -0.246 OA
ATOM     58  C4  ASG d1196       2.599  10.723  -3.935  0.00  0.00     0.114 C 
ATOM     59  C3  ASG d1196       2.010  10.634  -2.533  0.00  0.00     0.094 C 
ATOM     60  C5  ASG d1196       1.906  11.848  -4.701  0.00  0.00     0.090 C 
ATOM     61  OSA ASG d1196       4.459   8.707  -4.997  0.00  0.00    -0.572 OA
ATOM     62  OSC ASG d1196       2.861   8.858  -6.838  0.00  0.00    -0.572 OA
ATOM     63  C2  ASG d1196       0.517  10.360  -2.720  0.00  0.00     0.087 C 
ATOM     64  O5  ASG d1196       0.509  11.562  -4.809  0.00  0.00    -0.349 OA
ATOM     65  O1  ASG d1196      -1.507  11.233  -3.726  0.00  0.00    -0.369 OA
ATOM     66  N   ASG d1196      -0.126  10.439  -1.414  0.00  0.00    -0.349 N 
ATOM     67  O7  ASG d1196      -1.444   9.503   0.128  0.00  0.00    -0.274 OA
ATOM     68  H   ASG d1196       2.682  11.117  -6.552  0.00  0.00     0.078 H 
ATOM     69  H   ASG d1196       3.405  12.611  -6.021  0.00  0.00     0.078 H 
ATOM     70  H   ASG d1196      -0.484   8.403  -2.749  0.00  0.00     0.040 H 
ATOM     71  H   ASG d1196      -2.076   8.111  -2.090  0.00  0.00     0.040 H 
ATOM     72  H   ASG d1196      -0.675   7.382  -1.344  0.00  0.00     0.040 H 
ATOM     73  H   ASG d1196       0.713  12.294  -6.935  0.00  0.00     0.209 HD
ATOM     74  H   ASG d1196       0.016  12.415  -2.998  0.00  0.00     0.132 H 
ATOM     75  H   ASG d1196       3.659  10.870  -3.909  0.00  0.00     0.093 H 
ATOM     76  H   ASG d1196       2.125  11.532  -1.963  0.00  0.00     0.091 H 
ATOM     77  H   ASG d1196       2.065  12.750  -4.148  0.00  0.00     0.090 H 
ATOM     78  H   ASG d1196       0.397   9.410  -3.198  0.00  0.00     0.084 H 
ATOM     79  H   ASG d1196      -1.613  10.398  -4.208  0.00  0.00     0.212 HD
ATOM     80  H   ASG d1196       0.010  11.238  -0.856  0.00  0.00     0.163 HD
ATOM     81  O3  BDP d1199      16.401  12.928   3.880  0.00  0.00    -0.393 OA
ATOM     82  O1  BDP d1199      12.304  10.845   2.233  0.00  0.00    -0.348 OA
ATOM     83  O6A BDP d1199      16.068  10.083  -1.375  0.00  0.00    -0.646 OA
ATOM     84  C4  BDP d1199      16.385  11.609   1.866  0.00  0.00    -0.005 C 
ATOM     85  O5  BDP d1199      14.246  10.784   0.986  0.00  0.00    -0.343 OA
ATOM     86  C1  BDP d1199      13.468  11.602   1.870  0.00  0.00     0.159 C 
ATOM     87  C5  BDP d1199      15.562  11.231   0.639  0.00  0.00     0.127 C 
ATOM     88  C2  BDP d1199      14.266  12.049   3.099  0.00  0.00     0.107 C 
ATOM     89  C3  BDP d1199      15.628  12.620   2.713  0.00  0.00     0.068 C 
ATOM     90  C6  BDP d1199      16.248  10.142  -0.138  0.00  0.00     0.203 C 
ATOM     91  O2  BDP d1199      13.524  13.051   3.801  0.00  0.00    -0.388 OA
ATOM     92  O6B BDP d1199      16.961   9.319   0.477  0.00  0.00    -0.646 OA
ATOM     93  H   BDP d1199      17.261  13.289   3.612  0.00  0.00     0.210 HD
ATOM     94  H   BDP d1199      16.576  10.732   2.449  0.00  0.00     0.041 H 
ATOM     95  H   BDP d1199      17.309  12.043   1.547  0.00  0.00     0.041 H 
ATOM     96  H   BDP d1199      13.184  12.508   1.377  0.00  0.00     0.133 H 
ATOM     97  H   BDP d1199      15.476  12.116   0.044  0.00  0.00     0.100 H 
ATOM     98  H   BDP d1199      14.427  11.192   3.718  0.00  0.00     0.094 H 
ATOM     99  H   BDP d1199      15.470  13.520   2.157  0.00  0.00     0.087 H 
ATOM    100  H   BDP d1199      13.389  13.817   3.223  0.00  0.00     0.210 HD
ENDROOT
TORSDOF 25
ENDMDL
MODEL 36
REMARK VINA RESULT:      -4.3      3.103     12.957
REMARK  0 active torsions:
REMARK  status: ('A' for Active; 'I' for Inactive)
REMARK       I    between atoms: C5_1  and  C6_46 
REMARK       I    between atoms: O1_2  and  C4_60 
REMARK       I    between atoms: O1_2  and  C1_47 
REMARK       I    between atoms: S_3  and  O4_24 
REMARK       I    between atoms: C7_6  and  C8_11 
REMARK       I    between atoms: C7_6  and  N_48 
REMARK       I    between atoms: O3_7  and  C3_41 
REMARK       I    between atoms: O1_9  and  C3_31 
REMARK       I    between atoms: O1_9  and  C1_19 
REMARK       I    between atoms: C6_10  and  C5_34 
REMARK       I    between atoms: C6_10  and  O6_12 
REMARK       I    between atoms: C3_13  and  O1_16 
REMARK       I    between atoms: C2_14  and  N_20 
REMARK       I    between atoms: C1_15  and  O1_45 
REMARK       I    between atoms: O1_16  and  C1_29 
REMARK       I    between atoms: S_17  and  O4_30 
REMARK       I    between atoms: N_20  and  C7_40 
REMARK       I    between atoms: C4_22  and  O4_30 
REMARK       I    between atoms: O4_24  and  C4_28 
REMARK       I    between atoms: C5_25  and  C6_55 
REMARK       I    between atoms: C2_32  and  O2_39 
REMARK       I    between atoms: C5_33  and  C6_51 
REMARK       I    between atoms: C2_36  and  O2_56 
REMARK       I    between atoms: C8_37  and  C7_40 
REMARK       I    between atoms: C2_43  and  N_48 
REMARK       I    between atoms: C3_50  and  O3_53 
REMARK       I    between atoms: O6_54  and  C6_55 
ROOT
ATOM      1  C5  BDP d1197       6.541  11.624   0.562  0.00  0.00     0.152 C 
ATOM      2  O1  BDP d1197       3.065  11.592  -0.709  0.00  0.00    -0.348 OA
ATOM      3  C1  BDP d1197       4.279  11.007  -0.198  0.00  0.00     0.160 C 
ATOM      4  O5  BDP d1197       5.199  12.019   0.231  0.00  0.00    -0.340 OA
ATOM      5  C2  BDP d1197       4.895  10.142  -1.298  0.00  0.00     0.110 C 
ATOM      6  O6A BDP d1197       7.937  13.118   1.768  0.00  0.00    -0.646 OA
ATOM      7  O2  BDP d1197       4.045   9.013  -1.544  0.00  0.00    -0.388 OA
ATOM      8  C6  BDP d1197       7.345  12.882   0.692  0.00  0.00     0.206 C 
ATOM      9  C3  BDP d1197       6.314   9.657  -0.992  0.00  0.00     0.092 C 
ATOM     10  O6B BDP d1197       7.395  13.641  -0.300  0.00  0.00    -0.646 OA
ATOM     11  O3  BDP d1197       6.859   9.101  -2.196  0.00  0.00    -0.390 OA
ATOM     12  C4  BDP d1197       7.231  10.779  -0.507  0.00  0.00     0.103 C 
ATOM     13  H   BDP d1197       6.483  11.032   1.452  0.00  0.00     0.104 H 
ATOM     14  H   BDP d1197       4.055  10.404   0.658  0.00  0.00     0.133 H 
ATOM     15  H   BDP d1197       4.974  10.765  -2.165  0.00  0.00     0.094 H 
ATOM     16  H   BDP d1197       3.992   8.467  -0.744  0.00  0.00     0.210 HD
ATOM     17  H   BDP d1197       6.255   8.935  -0.204  0.00  0.00     0.091 H 
ATOM     18  H   BDP d1197       6.895   9.786  -2.882  0.00  0.00     0.210 HD
ATOM     19  H   BDP d1197       7.462  11.402  -1.346  0.00  0.00     0.092 H 
ATOM     20  O1  ASG d1198       8.448  10.226   0.037  0.00  0.00    -0.348 OA
ATOM     21  O7  ASG d1198      11.152  10.889   3.934  0.00  0.00    -0.274 OA
ATOM     22  OSB ASG d1198      14.078   7.374  -1.534  0.00  0.00    -0.572 OA
ATOM     23  C3  ASG d1198      12.251  10.347  -0.124  0.00  0.00     0.094 C 
ATOM     24  C2  ASG d1198      10.852  10.096   0.462  0.00  0.00     0.087 C 
ATOM     25  S   ASG d1198      12.974   7.686  -2.468  0.00  0.00     0.252 S 
ATOM     26  N   ASG d1198      10.880  10.824   1.727  0.00  0.00    -0.349 N 
ATOM     27  OSA ASG d1198      13.534   8.303  -3.691  0.00  0.00    -0.572 OA
ATOM     28  C4  ASG d1198      12.269  10.047  -1.617  0.00  0.00     0.114 C 
ATOM     29  C5  ASG d1198      11.162  10.855  -2.288  0.00  0.00     0.090 C 
ATOM     30  O4  ASG d1198      11.990   8.653  -1.782  0.00  0.00    -0.246 OA
ATOM     31  C8  ASG d1198      11.369   8.757   2.915  0.00  0.00    -0.003 C 
ATOM     32  C7  ASG d1198      11.131  10.240   2.903  0.00  0.00     0.214 C 
ATOM     33  C1  ASG d1198       9.727  10.735  -0.380  0.00  0.00     0.154 C 
ATOM     34  OSC ASG d1198      12.260   6.438  -2.822  0.00  0.00    -0.572 OA
ATOM     35  O6  ASG d1198      12.544  10.595  -4.224  0.00  0.00    -0.398 OA
ATOM     36  C6  ASG d1198      11.184  10.709  -3.805  0.00  0.00     0.043 C 
ATOM     37  O5  ASG d1198       9.896  10.438  -1.769  0.00  0.00    -0.349 OA
ATOM     38  H   ASG d1198      12.468  11.382   0.033  0.00  0.00     0.091 H 
ATOM     39  H   ASG d1198      10.656   9.046   0.520  0.00  0.00     0.084 H 
ATOM     40  H   ASG d1198      10.706  11.792   1.713  0.00  0.00     0.163 HD
ATOM     41  H   ASG d1198      13.216  10.299  -2.049  0.00  0.00     0.093 H 
ATOM     42  H   ASG d1198      11.326  11.890  -2.070  0.00  0.00     0.090 H 
ATOM     43  H   ASG d1198      11.555   8.435   3.918  0.00  0.00     0.040 H 
ATOM     44  H   ASG d1198      12.217   8.527   2.304  0.00  0.00     0.040 H 
ATOM     45  H   ASG d1198      10.506   8.254   2.533  0.00  0.00     0.040 H 
ATOM     46  H   ASG d1198       9.772  11.793  -0.232  0.00  0.00     0.132 H 
ATOM     47  H   ASG d1198      12.578  10.502  -5.189  0.00  0.00     0.209 HD
ATOM     48  H   ASG d1198      10.738  11.570  -4.257  0.00  0.00     0.078 H 
ATOM     49  H   ASG d1198      10.633   9.841  -4.100  0.00  0.00     0.078 H 
ATOM     50  S   ASG d1196       2.700  14.730  -2.767  0.00  0.00     0.252 S 
ATOM     51  OSB ASG d1196       2.218  13.998  -3.961  0.00  0.00    -0.572 OA
ATOM     52  C7  ASG d1196      -0.338  10.226  -0.246  0.00  0.00     0.214 C 
ATOM     53  C6  ASG d1196       2.253  16.345   0.422  0.00  0.00     0.043 C 
ATOM     54  C8  ASG d1196      -0.713  10.687  -1.623  0.00  0.00    -0.003 C 
ATOM     55  O6  ASG d1196       1.231  17.164   1.002  0.00  0.00    -0.398 OA
ATOM     56  C1  ASG d1196       0.106  13.373   0.892  0.00  0.00     0.151 C 
ATOM     57  O4  ASG d1196       2.026  14.111  -1.532  0.00  0.00    -0.246 OA
ATOM     58  C4  ASG d1196       2.655  13.930  -0.256  0.00  0.00     0.114 C 
ATOM     59  C3  ASG d1196       2.314  12.493   0.120  0.00  0.00     0.094 C 
ATOM     60  C5  ASG d1196       1.909  14.884   0.674  0.00  0.00     0.090 C 
ATOM     61  OSA ASG d1196       4.174  14.608  -2.682  0.00  0.00    -0.572 OA
ATOM     62  OSC ASG d1196       2.293  16.151  -2.885  0.00  0.00    -0.572 OA
ATOM     63  C2  ASG d1196       0.798  12.367  -0.030  0.00  0.00     0.087 C 
ATOM     64  O5  ASG d1196       0.500  14.693   0.524  0.00  0.00    -0.349 OA
ATOM     65  O1  ASG d1196      -1.313  13.275   0.739  0.00  0.00    -0.369 OA
ATOM     66  N   ASG d1196       0.398  11.063   0.486  0.00  0.00    -0.349 N 
ATOM     67  O7  ASG d1196      -0.687   9.135   0.175  0.00  0.00    -0.274 OA
ATOM     68  H   ASG d1196       2.305  16.527  -0.631  0.00  0.00     0.078 H 
ATOM     69  H   ASG d1196       3.200  16.578   0.863  0.00  0.00     0.078 H 
ATOM     70  H   ASG d1196      -0.312  11.663  -1.793  0.00  0.00     0.040 H 
ATOM     71  H   ASG d1196      -1.779  10.719  -1.710  0.00  0.00     0.040 H 
ATOM     72  H   ASG d1196      -0.317  10.006  -2.347  0.00  0.00     0.040 H 
ATOM     73  H   ASG d1196       0.376  16.947   0.597  0.00  0.00     0.209 HD
ATOM     74  H   ASG d1196       0.383  13.166   1.904  0.00  0.00     0.132 H 
ATOM     75  H   ASG d1196       3.710  14.106  -0.225  0.00  0.00     0.093 H 
ATOM     76  H   ASG d1196       2.581  12.240   1.125  0.00  0.00     0.091 H 
ATOM     77  H   ASG d1196       2.218  14.654   1.673  0.00  0.00     0.090 H 
ATOM     78  H   ASG d1196       0.538  12.517  -1.057  0.00  0.00     0.084 H 
ATOM     79  H   ASG d1196      -1.553  13.465  -0.182  0.00  0.00     0.212 HD
ATOM     80  H   ASG d1196       0.678  10.794   1.391  0.00  0.00     0.163 HD
ATOM     81  O3  BDP d1199      17.715   9.263   2.546  0.00  0.00    -0.393 OA
ATOM     82  O1  BDP d1199      13.274   9.589   0.544  0.00  0.00    -0.348 OA
ATOM     83  O6A BDP d1199      16.299  13.323  -1.617  0.00  0.00    -0.646 OA
ATOM     84  C4  BDP d1199      17.268  10.767   0.720  0.00  0.00    -0.005 C 
ATOM     85  O5  BDP d1199      14.962  11.035  -0.081  0.00  0.00    -0.343 OA
ATOM     86  C1  BDP d1199      14.401  10.329   1.034  0.00  0.00     0.159 C 
ATOM     87  C5  BDP d1199      16.223  11.690   0.102  0.00  0.00     0.127 C 
ATOM     88  C2  BDP d1199      15.426   9.422   1.721  0.00  0.00     0.107 C 
ATOM     89  C3  BDP d1199      16.733  10.157   2.006  0.00  0.00     0.068 C 
ATOM     90  C6  BDP d1199      16.695  12.201  -1.230  0.00  0.00     0.203 C 
ATOM     91  O2  BDP d1199      14.881   8.947   2.955  0.00  0.00    -0.388 OA
ATOM     92  O6B BDP d1199      17.452  11.482  -1.918  0.00  0.00    -0.646 OA
ATOM     93  H   BDP d1199      18.535   9.751   2.719  0.00  0.00     0.210 HD
ATOM     94  H   BDP d1199      17.503   9.985   0.028  0.00  0.00     0.041 H 
ATOM     95  H   BDP d1199      18.148  11.335   0.942  0.00  0.00     0.041 H 
ATOM     96  H   BDP d1199      14.092  11.022   1.789  0.00  0.00     0.133 H 
ATOM     97  H   BDP d1199      16.088  12.502   0.787  0.00  0.00     0.100 H 
ATOM     98  H   BDP d1199      15.641   8.606   1.062  0.00  0.00     0.094 H 
ATOM     99  H   BDP d1199      16.536  10.926   2.724  0.00  0.00     0.087 H 
ATOM    100  H   BDP d1199      14.695   9.701   3.537  0.00  0.00     0.210 HD
ENDROOT
TORSDOF 25
ENDMDL
MODEL 37
REMARK VINA RESULT:      -4.2      3.313      5.872
REMARK  0 active torsions:
REMARK  status: ('A' for Active; 'I' for Inactive)
REMARK       I    between atoms: C5_1  and  C6_46 
REMARK       I    between atoms: O1_2  and  C4_60 
REMARK       I    between atoms: O1_2  and  C1_47 
REMARK       I    between atoms: S_3  and  O4_24 
REMARK       I    between atoms: C7_6  and  C8_11 
REMARK       I    between atoms: C7_6  and  N_48 
REMARK       I    between atoms: O3_7  and  C3_41 
REMARK       I    between atoms: O1_9  and  C3_31 
REMARK       I    between atoms: O1_9  and  C1_19 
REMARK       I    between atoms: C6_10  and  C5_34 
REMARK       I    between atoms: C6_10  and  O6_12 
REMARK       I    between atoms: C3_13  and  O1_16 
REMARK       I    between atoms: C2_14  and  N_20 
REMARK       I    between atoms: C1_15  and  O1_45 
REMARK       I    between atoms: O1_16  and  C1_29 
REMARK       I    between atoms: S_17  and  O4_30 
REMARK       I    between atoms: N_20  and  C7_40 
REMARK       I    between atoms: C4_22  and  O4_30 
REMARK       I    between atoms: O4_24  and  C4_28 
REMARK       I    between atoms: C5_25  and  C6_55 
REMARK       I    between atoms: C2_32  and  O2_39 
REMARK       I    between atoms: C5_33  and  C6_51 
REMARK       I    between atoms: C2_36  and  O2_56 
REMARK       I    between atoms: C8_37  and  C7_40 
REMARK       I    between atoms: C2_43  and  N_48 
REMARK       I    between atoms: C3_50  and  O3_53 
REMARK       I    between atoms: O6_54  and  C6_55 
ROOT
ATOM      1  C5  BDP d1197       8.691  10.599   0.985  0.00  0.00     0.152 C 
ATOM      2  O1  BDP d1197      11.830  11.491  -0.762  0.00  0.00    -0.348 OA
ATOM      3  C1  BDP d1197      10.592  11.757  -0.074  0.00  0.00     0.160 C 
ATOM      4  O5  BDP d1197      10.028  10.552   0.460  0.00  0.00    -0.340 OA
ATOM      5  C2  BDP d1197       9.628  12.418  -1.060  0.00  0.00     0.110 C 
ATOM      6  O6A BDP d1197       7.904   8.820   2.346  0.00  0.00    -0.646 OA
ATOM      7  O2  BDP d1197      10.119  13.722  -1.401  0.00  0.00    -0.388 OA
ATOM      8  C6  BDP d1197       8.260   9.180   1.201  0.00  0.00     0.206 C 
ATOM      9  C3  BDP d1197       8.190  12.532  -0.547  0.00  0.00     0.092 C 
ATOM     10  O6B BDP d1197       8.264   8.416   0.212  0.00  0.00    -0.646 OA
ATOM     11  O3  BDP d1197       7.357  12.910  -1.652  0.00  0.00    -0.390 OA
ATOM     12  C4  BDP d1197       7.665  11.222   0.040  0.00  0.00     0.103 C 
ATOM     13  H   BDP d1197       8.722  11.201   1.868  0.00  0.00     0.104 H 
ATOM     14  H   BDP d1197      10.774  12.411   0.753  0.00  0.00     0.133 H 
ATOM     15  H   BDP d1197       9.588  11.781  -1.918  0.00  0.00     0.094 H 
ATOM     16  H   BDP d1197      10.144  14.276  -0.605  0.00  0.00     0.210 HD
ATOM     17  H   BDP d1197       8.173  13.259   0.238  0.00  0.00     0.091 H 
ATOM     18  H   BDP d1197       7.400  12.227  -2.339  0.00  0.00     0.210 HD
ATOM     19  H   BDP d1197       7.484  10.546  -0.770  0.00  0.00     0.092 H 
ATOM     20  O1  ASG d1198       6.437  11.457   0.760  0.00  0.00    -0.348 OA
ATOM     21  O7  ASG d1198       4.568  10.195   4.985  0.00  0.00    -0.274 OA
ATOM     22  OSB ASG d1198       0.104  12.757   0.053  0.00  0.00    -0.572 OA
ATOM     23  C3  ASG d1198       2.807  10.371   1.134  0.00  0.00     0.094 C 
ATOM     24  C2  ASG d1198       4.164  10.979   1.521  0.00  0.00     0.087 C 
ATOM     25  S   ASG d1198       1.108  12.720  -1.033  0.00  0.00     0.252 S 
ATOM     26  N   ASG d1198       4.500  10.290   2.763  0.00  0.00    -0.349 N 
ATOM     27  OSA ASG d1198       0.556  11.960  -2.176  0.00  0.00    -0.572 OA
ATOM     28  C4  ASG d1198       2.502  10.630  -0.336  0.00  0.00     0.114 C 
ATOM     29  C5  ASG d1198       3.672  10.119  -1.171  0.00  0.00     0.090 C 
ATOM     30  O4  ASG d1198       2.392  12.047  -0.511  0.00  0.00    -0.246 OA
ATOM     31  C8  ASG d1198       3.675  12.184   4.049  0.00  0.00    -0.003 C 
ATOM     32  C7  ASG d1198       4.278  10.810   3.974  0.00  0.00     0.214 C 
ATOM     33  C1  ASG d1198       5.284  10.632   0.518  0.00  0.00     0.154 C 
ATOM     34  OSC ASG d1198       1.424  14.102  -1.460  0.00  0.00    -0.572 OA
ATOM     35  O6  ASG d1198       2.011   9.986  -2.888  0.00  0.00    -0.398 OA
ATOM     36  C6  ASG d1198       3.400  10.228  -2.667  0.00  0.00     0.043 C 
ATOM     37  O5  ASG d1198       4.851  10.853  -0.828  0.00  0.00    -0.349 OA
ATOM     38  H   ASG d1198       2.883   9.317   1.300  0.00  0.00     0.091 H 
ATOM     39  H   ASG d1198       4.093  12.045   1.572  0.00  0.00     0.084 H 
ATOM     40  H   ASG d1198       4.910   9.397   2.707  0.00  0.00     0.163 HD
ATOM     41  H   ASG d1198       1.599  10.139  -0.635  0.00  0.00     0.093 H 
ATOM     42  H   ASG d1198       3.808   9.080  -0.953  0.00  0.00     0.090 H 
ATOM     43  H   ASG d1198       3.557  12.465   5.074  0.00  0.00     0.040 H 
ATOM     44  H   ASG d1198       2.719  12.181   3.568  0.00  0.00     0.040 H 
ATOM     45  H   ASG d1198       4.319  12.883   3.559  0.00  0.00     0.040 H 
ATOM     46  H   ASG d1198       5.530   9.600   0.650  0.00  0.00     0.132 H 
ATOM     47  H   ASG d1198       1.818  10.051  -3.837  0.00  0.00     0.209 HD
ATOM     48  H   ASG d1198       3.982   9.502  -3.194  0.00  0.00     0.078 H 
ATOM     49  H   ASG d1198       3.665  11.203  -3.019  0.00  0.00     0.078 H 
ATOM     50  S   ASG d1196      12.685   8.514  -2.912  0.00  0.00     0.252 S 
ATOM     51  OSB ASG d1196      12.793   9.324  -4.147  0.00  0.00    -0.572 OA
ATOM     52  C7  ASG d1196      14.805  13.685  -0.756  0.00  0.00     0.214 C 
ATOM     53  C6  ASG d1196      13.973   7.120   0.151  0.00  0.00     0.043 C 
ATOM     54  C8  ASG d1196      15.086  13.311  -2.181  0.00  0.00    -0.003 C 
ATOM     55  O6  ASG d1196      15.241   6.599   0.564  0.00  0.00    -0.398 OA
ATOM     56  C1  ASG d1196      15.339  10.548   0.372  0.00  0.00     0.151 C 
ATOM     57  O4  ASG d1196      13.348   9.305  -1.773  0.00  0.00    -0.246 OA
ATOM     58  C4  ASG d1196      12.880   9.342  -0.417  0.00  0.00     0.114 C 
ATOM     59  C3  ASG d1196      12.894  10.825  -0.065  0.00  0.00     0.094 C 
ATOM     60  C5  ASG d1196      13.967   8.625   0.380  0.00  0.00     0.090 C 
ATOM     61  OSA ASG d1196      11.256   8.259  -2.618  0.00  0.00    -0.572 OA
ATOM     62  OSC ASG d1196      13.419   7.241  -3.114  0.00  0.00    -0.572 OA
ATOM     63  C2  ASG d1196      14.292  11.330  -0.425  0.00  0.00     0.087 C 
ATOM     64  O5  ASG d1196      15.246   9.165   0.037  0.00  0.00    -0.349 OA
ATOM     65  O1  ASG d1196      16.650  11.002   0.022  0.00  0.00    -0.369 OA
ATOM     66  N   ASG d1196      14.415  12.701   0.055  0.00  0.00    -0.349 N 
ATOM     67  O7  ASG d1196      14.920  14.836  -0.367  0.00  0.00    -0.274 OA
ATOM     68  H   ASG d1196      13.821   6.913  -0.888  0.00  0.00     0.078 H 
ATOM     69  H   ASG d1196      13.189   6.662   0.715  0.00  0.00     0.078 H 
ATOM     70  H   ASG d1196      14.926  12.262  -2.312  0.00  0.00     0.040 H 
ATOM     71  H   ASG d1196      16.102  13.549  -2.418  0.00  0.00     0.040 H 
ATOM     72  H   ASG d1196      14.432  13.856  -2.829  0.00  0.00     0.040 H 
ATOM     73  H   ASG d1196      15.947   7.019   0.048  0.00  0.00     0.209 HD
ATOM     74  H   ASG d1196      15.165  10.696   1.417  0.00  0.00     0.132 H 
ATOM     75  H   ASG d1196      11.919   8.905  -0.242  0.00  0.00     0.093 H 
ATOM     76  H   ASG d1196      12.716  11.019   0.973  0.00  0.00     0.091 H 
ATOM     77  H   ASG d1196      13.754   8.786   1.417  0.00  0.00     0.090 H 
ATOM     78  H   ASG d1196      14.434  11.233  -1.481  0.00  0.00     0.084 H 
ATOM     79  H   ASG d1196      16.798  10.863  -0.927  0.00  0.00     0.212 HD
ATOM     80  H   ASG d1196      14.207  12.905   0.996  0.00  0.00     0.163 HD
ATOM     81  O3  BDP d1199      -2.321  10.075   4.567  0.00  0.00    -0.393 OA
ATOM     82  O1  BDP d1199       1.729  10.855   1.953  0.00  0.00    -0.348 OA
ATOM     83  O6A BDP d1199      -0.521   6.438   0.167  0.00  0.00    -0.646 OA
ATOM     84  C4  BDP d1199      -1.768   8.703   2.667  0.00  0.00    -0.005 C 
ATOM     85  O5  BDP d1199       0.393   9.016   1.545  0.00  0.00    -0.343 OA
ATOM     86  C1  BDP d1199       0.907   9.861   2.583  0.00  0.00     0.159 C 
ATOM     87  C5  BDP d1199      -0.621   8.066   1.891  0.00  0.00     0.127 C 
ATOM     88  C2  BDP d1199      -0.207  10.490   3.425  0.00  0.00     0.107 C 
ATOM     89  C3  BDP d1199      -1.231   9.451   3.877  0.00  0.00     0.068 C 
ATOM     90  C6  BDP d1199      -1.131   7.430   0.628  0.00  0.00     0.203 C 
ATOM     91  O2  BDP d1199       0.369  11.108   4.579  0.00  0.00    -0.388 OA
ATOM     92  O6B BDP d1199      -2.135   7.921   0.068  0.00  0.00    -0.646 OA
ATOM     93  H   BDP d1199      -2.958   9.399   4.844  0.00  0.00     0.210 HD
ATOM     94  H   BDP d1199      -2.290   9.388   2.031  0.00  0.00     0.041 H 
ATOM     95  H   BDP d1199      -2.435   7.935   2.999  0.00  0.00     0.041 H 
ATOM     96  H   BDP d1199       1.486   9.283   3.273  0.00  0.00     0.133 H 
ATOM     97  H   BDP d1199      -0.190   7.327   2.534  0.00  0.00     0.100 H 
ATOM     98  H   BDP d1199      -0.712  11.212   2.818  0.00  0.00     0.094 H 
ATOM     99  H   BDP d1199      -0.745   8.770   4.544  0.00  0.00     0.087 H 
ATOM    100  H   BDP d1199       0.820  10.437   5.114  0.00  0.00     0.210 HD
ENDROOT
TORSDOF 25
ENDMDL
MODEL 38
REMARK VINA RESULT:      -4.2      2.559      3.277
REMARK  0 active torsions:
REMARK  status: ('A' for Active; 'I' for Inactive)
REMARK       I    between atoms: C5_1  and  C6_46 
REMARK       I    between atoms: O1_2  and  C4_60 
REMARK       I    between atoms: O1_2  and  C1_47 
REMARK       I    between atoms: S_3  and  O4_24 
REMARK       I    between atoms: C7_6  and  C8_11 
REMARK       I    between atoms: C7_6  and  N_48 
REMARK       I    between atoms: O3_7  and  C3_41 
REMARK       I    between atoms: O1_9  and  C3_31 
REMARK       I    between atoms: O1_9  and  C1_19 
REMARK       I    between atoms: C6_10  and  C5_34 
REMARK       I    between atoms: C6_10  and  O6_12 
REMARK       I    between atoms: C3_13  and  O1_16 
REMARK       I    between atoms: C2_14  and  N_20 
REMARK       I    between atoms: C1_15  and  O1_45 
REMARK       I    between atoms: O1_16  and  C1_29 
REMARK       I    between atoms: S_17  and  O4_30 
REMARK       I    between atoms: N_20  and  C7_40 
REMARK       I    between atoms: C4_22  and  O4_30 
REMARK       I    between atoms: O4_24  and  C4_28 
REMARK       I    between atoms: C5_25  and  C6_55 
REMARK       I    between atoms: C2_32  and  O2_39 
REMARK       I    between atoms: C5_33  and  C6_51 
REMARK       I    between atoms: C2_36  and  O2_56 
REMARK       I    between atoms: C8_37  and  C7_40 
REMARK       I    between atoms: C2_43  and  N_48 
REMARK       I    between atoms: C3_50  and  O3_53 
REMARK       I    between atoms: O6_54  and  C6_55 
ROOT
ATOM      1  C5  BDP d1197       8.456  10.188  -2.093  0.00  0.00     0.152 C 
ATOM      2  O1  BDP d1197      11.388   9.635   0.097  0.00  0.00    -0.348 OA
ATOM      3  C1  BDP d1197      10.257   9.239  -0.703  0.00  0.00     0.160 C 
ATOM      4  O5  BDP d1197       9.715  10.356  -1.420  0.00  0.00    -0.340 OA
ATOM      5  C2  BDP d1197       9.206   8.625   0.222  0.00  0.00     0.110 C 
ATOM      6  O6A BDP d1197       7.772  11.785  -3.711  0.00  0.00    -0.646 OA
ATOM      7  O2  BDP d1197       9.705   7.388   0.750  0.00  0.00    -0.388 OA
ATOM      8  C6  BDP d1197       7.997  11.555  -2.502  0.00  0.00     0.206 C 
ATOM      9  C3  BDP d1197       7.849   8.386  -0.444  0.00  0.00     0.092 C 
ATOM     10  O6B BDP d1197       7.847  12.409  -1.602  0.00  0.00    -0.646 OA
ATOM     11  O3  BDP d1197       6.902   8.071   0.585  0.00  0.00    -0.390 OA
ATOM     12  C4  BDP d1197       7.348   9.604  -1.219  0.00  0.00     0.103 C 
ATOM     13  H   BDP d1197       8.621   9.507  -2.901  0.00  0.00     0.104 H 
ATOM     14  H   BDP d1197      10.567   8.520  -1.432  0.00  0.00     0.133 H 
ATOM     15  H   BDP d1197       9.034   9.339   1.001  0.00  0.00     0.094 H 
ATOM     16  H   BDP d1197       9.851   6.762   0.023  0.00  0.00     0.210 HD
ATOM     17  H   BDP d1197       7.960   7.588  -1.148  0.00  0.00     0.091 H 
ATOM     18  H   BDP d1197       6.831   8.818   1.200  0.00  0.00     0.210 HD
ATOM     19  H   BDP d1197       7.040  10.344  -0.510  0.00  0.00     0.092 H 
ATOM     20  O1  ASG d1198       6.229   9.237  -2.054  0.00  0.00    -0.348 OA
ATOM     21  O7  ASG d1198       4.848   9.988  -6.578  0.00  0.00    -0.274 OA
ATOM     22  OSB ASG d1198      -0.084   7.674  -1.980  0.00  0.00    -0.572 OA
ATOM     23  C3  ASG d1198       2.631  10.087  -2.967  0.00  0.00     0.094 C 
ATOM     24  C2  ASG d1198       4.050   9.518  -3.126  0.00  0.00     0.087 C 
ATOM     25  S   ASG d1198       0.776   7.868  -0.792  0.00  0.00     0.252 S 
ATOM     26  N   ASG d1198       4.509  10.102  -4.382  0.00  0.00    -0.349 N 
ATOM     27  OSA ASG d1198       0.055   8.703   0.195  0.00  0.00    -0.572 OA
ATOM     28  C4  ASG d1198       2.158   9.953  -1.525  0.00  0.00     0.114 C 
ATOM     29  C5  ASG d1198       3.192  10.603  -0.612  0.00  0.00     0.090 C 
ATOM     30  O4  ASG d1198       2.085   8.556  -1.222  0.00  0.00    -0.246 OA
ATOM     31  C8  ASG d1198       3.929   8.053  -5.559  0.00  0.00    -0.003 C 
ATOM     32  C7  ASG d1198       4.460   9.457  -5.552  0.00  0.00     0.214 C 
ATOM     33  C1  ASG d1198       5.022  10.018  -2.036  0.00  0.00     0.154 C 
ATOM     34  OSC ASG d1198       1.093   6.551  -0.193  0.00  0.00    -0.572 OA
ATOM     35  O6  ASG d1198       1.327  10.811   0.872  0.00  0.00    -0.398 OA
ATOM     36  C6  ASG d1198       2.742  10.623   0.844  0.00  0.00     0.043 C 
ATOM     37  O5  ASG d1198       4.434   9.904  -0.736  0.00  0.00    -0.349 OA
ATOM     38  H   ASG d1198       2.685  11.123  -3.228  0.00  0.00     0.091 H 
ATOM     39  H   ASG d1198       4.030   8.450  -3.076  0.00  0.00     0.084 H 
ATOM     40  H   ASG d1198       4.872  11.017  -4.367  0.00  0.00     0.163 HD
ATOM     41  H   ASG d1198       1.205  10.422  -1.387  0.00  0.00     0.093 H 
ATOM     42  H   ASG d1198       3.312  11.622  -0.917  0.00  0.00     0.090 H 
ATOM     43  H   ASG d1198       3.951   7.669  -6.557  0.00  0.00     0.040 H 
ATOM     44  H   ASG d1198       2.922   8.051  -5.198  0.00  0.00     0.040 H 
ATOM     45  H   ASG d1198       4.535   7.438  -4.927  0.00  0.00     0.040 H 
ATOM     46  H   ASG d1198       5.240  11.045  -2.241  0.00  0.00     0.132 H 
ATOM     47  H   ASG d1198       1.021  10.827   1.792  0.00  0.00     0.209 HD
ATOM     48  H   ASG d1198       3.224  11.427   1.361  0.00  0.00     0.078 H 
ATOM     49  H   ASG d1198       3.001   9.702   1.322  0.00  0.00     0.078 H 
ATOM     50  S   ASG d1196      11.846  12.845   2.022  0.00  0.00     0.252 S 
ATOM     51  OSB ASG d1196      11.833  12.164   3.336  0.00  0.00    -0.572 OA
ATOM     52  C7  ASG d1196      14.428   7.613   0.669  0.00  0.00     0.214 C 
ATOM     53  C6  ASG d1196      13.446  14.007  -0.991  0.00  0.00     0.043 C 
ATOM     54  C8  ASG d1196      14.515   8.135   2.072  0.00  0.00    -0.003 C 
ATOM     55  O6  ASG d1196      14.733  14.554  -1.300  0.00  0.00    -0.398 OA
ATOM     56  C1  ASG d1196      14.969  10.652  -0.699  0.00  0.00     0.151 C 
ATOM     57  O4  ASG d1196      12.677  11.986   1.055  0.00  0.00    -0.246 OA
ATOM     58  C4  ASG d1196      12.383  11.794  -0.335  0.00  0.00     0.114 C 
ATOM     59  C3  ASG d1196      12.502  10.288  -0.532  0.00  0.00     0.094 C 
ATOM     60  C5  ASG d1196      13.530  12.489  -1.066  0.00  0.00     0.090 C 
ATOM     61  OSA ASG d1196      10.455  12.995   1.534  0.00  0.00    -0.572 OA
ATOM     62  OSC ASG d1196      12.496  14.169   2.179  0.00  0.00    -0.572 OA
ATOM     63  C2  ASG d1196      13.864   9.895   0.042  0.00  0.00     0.087 C 
ATOM     64  O5  ASG d1196      14.777  12.053  -0.519  0.00  0.00    -0.349 OA
ATOM     65  O1  ASG d1196      16.244  10.304  -0.151  0.00  0.00    -0.369 OA
ATOM     66  N   ASG d1196      14.103   8.492  -0.279  0.00  0.00    -0.349 N 
ATOM     67  O7  ASG d1196      14.639   6.438   0.415  0.00  0.00    -0.274 OA
ATOM     68  H   ASG d1196      13.157  14.304  -0.004  0.00  0.00     0.078 H 
ATOM     69  H   ASG d1196      12.719  14.367  -1.689  0.00  0.00     0.078 H 
ATOM     70  H   ASG d1196      14.297   9.182   2.076  0.00  0.00     0.040 H 
ATOM     71  H   ASG d1196      15.502   7.975   2.452  0.00  0.00     0.040 H 
ATOM     72  H   ASG d1196      13.809   7.621   2.689  0.00  0.00     0.040 H 
ATOM     73  H   ASG d1196      15.386  14.223  -0.664  0.00  0.00     0.209 HD
ATOM     74  H   ASG d1196      14.932  10.396  -1.737  0.00  0.00     0.132 H 
ATOM     75  H   ASG d1196      11.434  12.161  -0.668  0.00  0.00     0.093 H 
ATOM     76  H   ASG d1196      12.462   9.986  -1.558  0.00  0.00     0.091 H 
ATOM     77  H   ASG d1196      13.455  12.219  -2.098  0.00  0.00     0.090 H 
ATOM     78  H   ASG d1196      13.869  10.099   1.092  0.00  0.00     0.084 H 
ATOM     79  H   ASG d1196      16.267  10.541   0.790  0.00  0.00     0.212 HD
ATOM     80  H   ASG d1196      14.022   8.189  -1.212  0.00  0.00     0.163 HD
ATOM     81  O3  BDP d1199      -2.038   9.780  -7.000  0.00  0.00    -0.393 OA
ATOM     82  O1  BDP d1199       1.685   9.470  -3.856  0.00  0.00    -0.348 OA
ATOM     83  O6A BDP d1199      -0.950  13.911  -2.808  0.00  0.00    -0.646 OA
ATOM     84  C4  BDP d1199      -1.783  11.354  -5.197  0.00  0.00    -0.005 C 
ATOM     85  O5  BDP d1199       0.234  11.265  -3.798  0.00  0.00    -0.343 OA
ATOM     86  C1  BDP d1199       0.907  10.354  -4.677  0.00  0.00     0.159 C 
ATOM     87  C5  BDP d1199      -0.768  12.123  -4.357  0.00  0.00     0.127 C 
ATOM     88  C2  BDP d1199      -0.067   9.589  -5.577  0.00  0.00     0.107 C 
ATOM     89  C3  BDP d1199      -1.069  10.524  -6.251  0.00  0.00     0.068 C 
ATOM     90  C6  BDP d1199      -1.457  12.849  -3.235  0.00  0.00     0.203 C 
ATOM     91  O2  BDP d1199       0.673   8.895  -6.586  0.00  0.00    -0.388 OA
ATOM     92  O6B BDP d1199      -2.502  12.361  -2.752  0.00  0.00    -0.646 OA
ATOM     93  H   BDP d1199      -2.663  10.392  -7.418  0.00  0.00     0.210 HD
ATOM     94  H   BDP d1199      -2.350  10.706  -4.561  0.00  0.00     0.041 H 
ATOM     95  H   BDP d1199      -2.434  12.051  -5.682  0.00  0.00     0.041 H 
ATOM     96  H   BDP d1199       1.543  10.894  -5.348  0.00  0.00     0.133 H 
ATOM     97  H   BDP d1199      -0.291  12.819  -5.015  0.00  0.00     0.100 H 
ATOM     98  H   BDP d1199      -0.613   8.902  -4.965  0.00  0.00     0.094 H 
ATOM     99  H   BDP d1199      -0.533  11.163  -6.921  0.00  0.00     0.087 H 
ATOM    100  H   BDP d1199       1.159   9.535  -7.128  0.00  0.00     0.210 HD
ENDROOT
TORSDOF 25
ENDMDL
MODEL 39
REMARK VINA RESULT:      -4.2      3.395     12.666
REMARK  0 active torsions:
REMARK  status: ('A' for Active; 'I' for Inactive)
REMARK       I    between atoms: C5_1  and  C6_46 
REMARK       I    between atoms: O1_2  and  C4_60 
REMARK       I    between atoms: O1_2  and  C1_47 
REMARK       I    between atoms: S_3  and  O4_24 
REMARK       I    between atoms: C7_6  and  C8_11 
REMARK       I    between atoms: C7_6  and  N_48 
REMARK       I    between atoms: O3_7  and  C3_41 
REMARK       I    between atoms: O1_9  and  C3_31 
REMARK       I    between atoms: O1_9  and  C1_19 
REMARK       I    between atoms: C6_10  and  C5_34 
REMARK       I    between atoms: C6_10  and  O6_12 
REMARK       I    between atoms: C3_13  and  O1_16 
REMARK       I    between atoms: C2_14  and  N_20 
REMARK       I    between atoms: C1_15  and  O1_45 
REMARK       I    between atoms: O1_16  and  C1_29 
REMARK       I    between atoms: S_17  and  O4_30 
REMARK       I    between atoms: N_20  and  C7_40 
REMARK       I    between atoms: C4_22  and  O4_30 
REMARK       I    between atoms: O4_24  and  C4_28 
REMARK       I    between atoms: C5_25  and  C6_55 
REMARK       I    between atoms: C2_32  and  O2_39 
REMARK       I    between atoms: C5_33  and  C6_51 
REMARK       I    between atoms: C2_36  and  O2_56 
REMARK       I    between atoms: C8_37  and  C7_40 
REMARK       I    between atoms: C2_43  and  N_48 
REMARK       I    between atoms: C3_50  and  O3_53 
REMARK       I    between atoms: O6_54  and  C6_55 
ROOT
ATOM      1  C5  BDP d1197       5.587  11.848   0.063  0.00  0.00     0.152 C 
ATOM      2  O1  BDP d1197       2.333  13.426  -0.726  0.00  0.00    -0.348 OA
ATOM      3  C1  BDP d1197       3.387  12.453  -0.869  0.00  0.00     0.160 C 
ATOM      4  O5  BDP d1197       4.360  12.589   0.174  0.00  0.00    -0.340 OA
ATOM      5  C2  BDP d1197       4.031  12.643  -2.243  0.00  0.00     0.110 C 
ATOM      6  O6A BDP d1197       6.985  11.605   1.966  0.00  0.00    -0.646 OA
ATOM      7  O2  BDP d1197       3.088  12.282  -3.262  0.00  0.00    -0.388 OA
ATOM      8  C6  BDP d1197       6.516  12.386   1.109  0.00  0.00     0.206 C 
ATOM      9  C3  BDP d1197       5.326  11.850  -2.440  0.00  0.00     0.092 C 
ATOM     10  O6B BDP d1197       6.791  13.605   1.067  0.00  0.00    -0.646 OA
ATOM     11  O3  BDP d1197       5.953  12.324  -3.640  0.00  0.00    -0.390 OA
ATOM     12  C4  BDP d1197       6.303  12.012  -1.276  0.00  0.00     0.103 C 
ATOM     13  H   BDP d1197       5.338  10.813   0.170  0.00  0.00     0.104 H 
ATOM     14  H   BDP d1197       2.978  11.467  -0.790  0.00  0.00     0.133 H 
ATOM     15  H   BDP d1197       4.301  13.676  -2.310  0.00  0.00     0.094 H 
ATOM     16  H   BDP d1197       2.863  11.342  -3.175  0.00  0.00     0.210 HD
ATOM     17  H   BDP d1197       5.074  10.812  -2.499  0.00  0.00     0.091 H 
ATOM     18  H   BDP d1197       6.164  13.266  -3.545  0.00  0.00     0.210 HD
ATOM     19  H   BDP d1197       6.718  12.997  -1.328  0.00  0.00     0.092 H 
ATOM     20  O1  ASG d1198       7.359  11.034  -1.373  0.00  0.00    -0.348 OA
ATOM     21  O7  ASG d1198       9.583   7.987   1.577  0.00  0.00    -0.274 OA
ATOM     22  OSB ASG d1198      12.750   9.437  -4.642  0.00  0.00    -0.572 OA
ATOM     23  C3  ASG d1198      11.134  10.542  -1.427  0.00  0.00     0.094 C 
ATOM     24  C2  ASG d1198       9.650  10.194  -1.233  0.00  0.00     0.087 C 
ATOM     25  S   ASG d1198      11.827  10.543  -4.979  0.00  0.00     0.252 S 
ATOM     26  N   ASG d1198       9.600   9.677   0.131  0.00  0.00    -0.349 N 
ATOM     27  OSA ASG d1198      12.617  11.757  -5.284  0.00  0.00    -0.572 OA
ATOM     28  C4  ASG d1198      11.314  11.491  -2.606  0.00  0.00     0.114 C 
ATOM     29  C5  ASG d1198      10.414  12.704  -2.393  0.00  0.00     0.090 C 
ATOM     30  O4  ASG d1198      10.888  10.800  -3.785  0.00  0.00    -0.246 OA
ATOM     31  C8  ASG d1198       9.667   7.398  -0.719  0.00  0.00    -0.003 C 
ATOM     32  C7  ASG d1198       9.619   8.373   0.422  0.00  0.00     0.214 C 
ATOM     33  C1  ASG d1198       8.734  11.436  -1.259  0.00  0.00     0.154 C 
ATOM     34  OSC ASG d1198      11.017  10.166  -6.161  0.00  0.00    -0.572 OA
ATOM     35  O6  ASG d1198      11.997  13.768  -3.837  0.00  0.00    -0.398 OA
ATOM     36  C6  ASG d1198      10.619  13.766  -3.467  0.00  0.00     0.043 C 
ATOM     37  O5  ASG d1198       9.048  12.279  -2.372  0.00  0.00    -0.349 OA
ATOM     38  H   ASG d1198      11.456  11.027  -0.529  0.00  0.00     0.091 H 
ATOM     39  H   ASG d1198       9.319   9.532  -2.006  0.00  0.00     0.084 H 
ATOM     40  H   ASG d1198       9.551  10.321   0.873  0.00  0.00     0.163 HD
ATOM     41  H   ASG d1198      12.333  11.805  -2.696  0.00  0.00     0.093 H 
ATOM     42  H   ASG d1198      10.675  13.152  -1.457  0.00  0.00     0.090 H 
ATOM     43  H   ASG d1198       9.677   6.400  -0.335  0.00  0.00     0.040 H 
ATOM     44  H   ASG d1198      10.553   7.567  -1.295  0.00  0.00     0.040 H 
ATOM     45  H   ASG d1198       8.807   7.532  -1.341  0.00  0.00     0.040 H 
ATOM     46  H   ASG d1198       8.890  11.973  -0.347  0.00  0.00     0.132 H 
ATOM     47  H   ASG d1198      12.148  14.439  -4.521  0.00  0.00     0.209 HD
ATOM     48  H   ASG d1198      10.346  14.727  -3.083  0.00  0.00     0.078 H 
ATOM     49  H   ASG d1198      10.009  13.550  -4.319  0.00  0.00     0.078 H 
ATOM     50  S   ASG d1196       2.636  17.012   0.401  0.00  0.00     0.252 S 
ATOM     51  OSB ASG d1196       2.229  17.554  -0.916  0.00  0.00    -0.572 OA
ATOM     52  C7  ASG d1196      -1.244  12.841  -1.448  0.00  0.00     0.214 C 
ATOM     53  C6  ASG d1196       1.974  15.667   3.677  0.00  0.00     0.043 C 
ATOM     54  C8  ASG d1196      -1.373  14.244  -1.960  0.00  0.00    -0.003 C 
ATOM     55  O6  ASG d1196       0.993  15.919   4.689  0.00  0.00    -0.398 OA
ATOM     56  C1  ASG d1196      -0.568  13.850   1.702  0.00  0.00     0.151 C 
ATOM     57  O4  ASG d1196       1.733  15.808   0.713  0.00  0.00    -0.246 OA
ATOM     58  C4  ASG d1196       2.159  14.609   1.374  0.00  0.00     0.114 C 
ATOM     59  C3  ASG d1196       1.596  13.491   0.506  0.00  0.00     0.094 C 
ATOM     60  C5  ASG d1196       1.421  14.628   2.710  0.00  0.00     0.090 C 
ATOM     61  OSA ASG d1196       4.060  16.604   0.343  0.00  0.00    -0.572 OA
ATOM     62  OSC ASG d1196       2.428  18.059   1.430  0.00  0.00    -0.572 OA
ATOM     63  C2  ASG d1196       0.109  13.802   0.330  0.00  0.00     0.087 C 
ATOM     64  O5  ASG d1196       0.032  14.879   2.485  0.00  0.00    -0.349 OA
ATOM     65  O1  ASG d1196      -1.956  14.163   1.545  0.00  0.00    -0.369 OA
ATOM     66  N   ASG d1196      -0.513  12.670  -0.346  0.00  0.00    -0.349 N 
ATOM     67  O7  ASG d1196      -1.778  11.905  -2.021  0.00  0.00    -0.274 OA
ATOM     68  H   ASG d1196       2.187  16.573   3.149  0.00  0.00     0.078 H 
ATOM     69  H   ASG d1196       2.875  15.304   4.125  0.00  0.00     0.078 H 
ATOM     70  H   ASG d1196      -0.835  14.909  -1.318  0.00  0.00     0.040 H 
ATOM     71  H   ASG d1196      -2.406  14.524  -1.978  0.00  0.00     0.040 H 
ATOM     72  H   ASG d1196      -0.972  14.302  -2.950  0.00  0.00     0.040 H 
ATOM     73  H   ASG d1196       0.179  16.248   4.275  0.00  0.00     0.209 HD
ATOM     74  H   ASG d1196      -0.456  12.899   2.180  0.00  0.00     0.132 H 
ATOM     75  H   ASG d1196       3.215  14.504   1.517  0.00  0.00     0.093 H 
ATOM     76  H   ASG d1196       1.694  12.519   0.943  0.00  0.00     0.091 H 
ATOM     77  H   ASG d1196       1.563  13.669   3.162  0.00  0.00     0.090 H 
ATOM     78  H   ASG d1196       0.009  14.725  -0.201  0.00  0.00     0.084 H 
ATOM     79  H   ASG d1196      -2.046  15.026   1.111  0.00  0.00     0.212 HD
ATOM     80  H   ASG d1196      -0.392  11.763   0.017  0.00  0.00     0.163 HD
ATOM     81  O3  BDP d1199      16.019   6.845  -0.638  0.00  0.00    -0.393 OA
ATOM     82  O1  BDP d1199      11.958   9.377  -1.602  0.00  0.00    -0.348 OA
ATOM     83  O6A BDP d1199      15.682  12.798  -0.120  0.00  0.00    -0.646 OA
ATOM     84  C4  BDP d1199      16.008   9.252  -0.626  0.00  0.00    -0.005 C 
ATOM     85  O5  BDP d1199      13.880  10.446  -0.899  0.00  0.00    -0.343 OA
ATOM     86  C1  BDP d1199      13.093   9.259  -0.732  0.00  0.00     0.159 C 
ATOM     87  C5  BDP d1199      15.177  10.486  -0.292  0.00  0.00     0.127 C 
ATOM     88  C2  BDP d1199      13.898   7.986  -1.011  0.00  0.00     0.107 C 
ATOM     89  C3  BDP d1199      15.236   7.989  -0.277  0.00  0.00     0.068 C 
ATOM     90  C6  BDP d1199      15.881  11.733  -0.748  0.00  0.00     0.203 C 
ATOM     91  O2  BDP d1199      13.139   6.850  -0.589  0.00  0.00    -0.388 OA
ATOM     92  O6B BDP d1199      16.628  11.673  -1.748  0.00  0.00    -0.646 OA
ATOM     93  H   BDP d1199      16.863   6.867  -0.161  0.00  0.00     0.210 HD
ATOM     94  H   BDP d1199      16.234   9.250  -1.673  0.00  0.00     0.041 H 
ATOM     95  H   BDP d1199      16.914   9.277  -0.057  0.00  0.00     0.041 H 
ATOM     96  H   BDP d1199      12.775   9.171   0.286  0.00  0.00     0.133 H 
ATOM     97  H   BDP d1199      15.054  10.493   0.771  0.00  0.00     0.100 H 
ATOM     98  H   BDP d1199      14.095   7.943  -2.062  0.00  0.00     0.094 H 
ATOM     99  H   BDP d1199      15.042   7.957   0.775  0.00  0.00     0.087 H 
ATOM    100  H   BDP d1199      12.972   6.909   0.365  0.00  0.00     0.210 HD
ENDROOT
TORSDOF 25
ENDMDL
MODEL 40
REMARK VINA RESULT:      -4.2      3.741      6.048
REMARK  0 active torsions:
REMARK  status: ('A' for Active; 'I' for Inactive)
REMARK       I    between atoms: C5_1  and  C6_46 
REMARK       I    between atoms: O1_2  and  C4_60 
REMARK       I    between atoms: O1_2  and  C1_47 
REMARK       I    between atoms: S_3  and  O4_24 
REMARK       I    between atoms: C7_6  and  C8_11 
REMARK       I    between atoms: C7_6  and  N_48 
REMARK       I    between atoms: O3_7  and  C3_41 
REMARK       I    between atoms: O1_9  and  C3_31 
REMARK       I    between atoms: O1_9  and  C1_19 
REMARK       I    between atoms: C6_10  and  C5_34 
REMARK       I    between atoms: C6_10  and  O6_12 
REMARK       I    between atoms: C3_13  and  O1_16 
REMARK       I    between atoms: C2_14  and  N_20 
REMARK       I    between atoms: C1_15  and  O1_45 
REMARK       I    between atoms: O1_16  and  C1_29 
REMARK       I    between atoms: S_17  and  O4_30 
REMARK       I    between atoms: N_20  and  C7_40 
REMARK       I    between atoms: C4_22  and  O4_30 
REMARK       I    between atoms: O4_24  and  C4_28 
REMARK       I    between atoms: C5_25  and  C6_55 
REMARK       I    between atoms: C2_32  and  O2_39 
REMARK       I    between atoms: C5_33  and  C6_51 
REMARK       I    between atoms: C2_36  and  O2_56 
REMARK       I    between atoms: C8_37  and  C7_40 
REMARK       I    between atoms: C2_43  and  N_48 
REMARK       I    between atoms: C3_50  and  O3_53 
REMARK       I    between atoms: O6_54  and  C6_55 
ROOT
ATOM      1  C5  BDP d1197       8.618  12.146  -0.897  0.00  0.00     0.152 C 
ATOM      2  O1  BDP d1197      11.246  14.748  -0.735  0.00  0.00    -0.348 OA
ATOM      3  C1  BDP d1197       9.924  14.207  -0.545  0.00  0.00     0.160 C 
ATOM      4  O5  BDP d1197       9.895  12.801  -0.823  0.00  0.00    -0.340 OA
ATOM      5  C2  BDP d1197       8.960  14.962  -1.461  0.00  0.00     0.110 C 
ATOM      6  O6A BDP d1197       8.512   9.775  -0.819  0.00  0.00    -0.646 OA
ATOM      7  O2  BDP d1197       8.846  16.320  -1.012  0.00  0.00    -0.388 OA
ATOM      8  C6  BDP d1197       8.862  10.783  -1.472  0.00  0.00     0.206 C 
ATOM      9  C3  BDP d1197       7.567  14.336  -1.557  0.00  0.00     0.092 C 
ATOM     10  O6B BDP d1197       9.399  10.719  -2.599  0.00  0.00    -0.646 OA
ATOM     11  O3  BDP d1197       6.870  14.973  -2.635  0.00  0.00    -0.390 OA
ATOM     12  C4  BDP d1197       7.611  12.831  -1.819  0.00  0.00     0.103 C 
ATOM     13  H   BDP d1197       8.206  12.151   0.090  0.00  0.00     0.104 H 
ATOM     14  H   BDP d1197       9.628  14.330   0.477  0.00  0.00     0.133 H 
ATOM     15  H   BDP d1197       9.377  14.912  -2.445  0.00  0.00     0.094 H 
ATOM     16  H   BDP d1197       8.466  16.333  -0.119  0.00  0.00     0.210 HD
ATOM     17  H   BDP d1197       7.074  14.478  -0.618  0.00  0.00     0.091 H 
ATOM     18  H   BDP d1197       7.349  14.821  -3.465  0.00  0.00     0.210 HD
ATOM     19  H   BDP d1197       7.914  12.681  -2.835  0.00  0.00     0.092 H 
ATOM     20  O1  ASG d1198       6.306  12.251  -1.612  0.00  0.00    -0.348 OA
ATOM     21  O7  ASG d1198       4.501   8.412   0.610  0.00  0.00    -0.274 OA
ATOM     22  OSB ASG d1198       0.338  11.717  -4.141  0.00  0.00    -0.572 OA
ATOM     23  C3  ASG d1198       3.591  10.088  -3.176  0.00  0.00     0.094 C 
ATOM     24  C2  ASG d1198       4.417  10.771  -2.074  0.00  0.00     0.087 C 
ATOM     25  S   ASG d1198       1.424  12.580  -4.655  0.00  0.00     0.252 S 
ATOM     26  N   ASG d1198       4.802   9.663  -1.205  0.00  0.00    -0.349 N 
ATOM     27  OSA ASG d1198       1.505  12.431  -6.126  0.00  0.00    -0.572 OA
ATOM     28  C4  ASG d1198       3.474  10.990  -4.397  0.00  0.00     0.114 C 
ATOM     29  C5  ASG d1198       4.877  11.397  -4.836  0.00  0.00     0.090 C 
ATOM     30  O4  ASG d1198       2.755  12.163  -4.000  0.00  0.00    -0.246 OA
ATOM     31  C8  ASG d1198       2.975  10.204   0.310  0.00  0.00    -0.003 C 
ATOM     32  C7  ASG d1198       4.148   9.351  -0.081  0.00  0.00     0.214 C 
ATOM     33  C1  ASG d1198       5.732  11.382  -2.603  0.00  0.00     0.154 C 
ATOM     34  OSC ASG d1198       1.136  13.991  -4.313  0.00  0.00    -0.572 OA
ATOM     35  O6  ASG d1198       3.810  11.710  -6.954  0.00  0.00    -0.398 OA
ATOM     36  C6  ASG d1198       4.863  12.206  -6.127  0.00  0.00     0.043 C 
ATOM     37  O5  ASG d1198       5.498  12.148  -3.788  0.00  0.00    -0.349 OA
ATOM     38  H   ASG d1198       4.115   9.194  -3.443  0.00  0.00     0.091 H 
ATOM     39  H   ASG d1198       3.853  11.559  -1.621  0.00  0.00     0.084 H 
ATOM     40  H   ASG d1198       5.581   9.118  -1.458  0.00  0.00     0.163 HD
ATOM     41  H   ASG d1198       2.972  10.490  -5.199  0.00  0.00     0.093 H 
ATOM     42  H   ASG d1198       5.437  10.506  -5.031  0.00  0.00     0.090 H 
ATOM     43  H   ASG d1198       2.556   9.837   1.223  0.00  0.00     0.040 H 
ATOM     44  H   ASG d1198       2.235  10.169  -0.462  0.00  0.00     0.040 H 
ATOM     45  H   ASG d1198       3.299  11.214   0.448  0.00  0.00     0.040 H 
ATOM     46  H   ASG d1198       6.399  10.576  -2.823  0.00  0.00     0.132 H 
ATOM     47  H   ASG d1198       3.786  12.213  -7.783  0.00  0.00     0.209 HD
ATOM     48  H   ASG d1198       5.800  12.098  -6.632  0.00  0.00     0.078 H 
ATOM     49  H   ASG d1198       4.706  13.242  -5.912  0.00  0.00     0.078 H 
ATOM     50  S   ASG d1196      13.757  13.831  -3.394  0.00  0.00     0.252 S 
ATOM     51  OSB ASG d1196      13.700  15.166  -4.034  0.00  0.00    -0.572 OA
ATOM     52  C7  ASG d1196      12.811  17.376   1.341  0.00  0.00     0.214 C 
ATOM     53  C6  ASG d1196      14.963  11.480  -0.944  0.00  0.00     0.043 C 
ATOM     54  C8  ASG d1196      13.487  17.936   0.126  0.00  0.00    -0.003 C 
ATOM     55  O6  ASG d1196      16.229  11.236  -0.322  0.00  0.00    -0.398 OA
ATOM     56  C1  ASG d1196      14.521  14.469   1.185  0.00  0.00     0.151 C 
ATOM     57  O4  ASG d1196      13.759  14.040  -1.871  0.00  0.00    -0.246 OA
ATOM     58  C4  ASG d1196      13.089  13.196  -0.925  0.00  0.00     0.114 C 
ATOM     59  C3  ASG d1196      12.351  14.174  -0.018  0.00  0.00     0.094 C 
ATOM     60  C5  ASG d1196      14.219  12.536  -0.138  0.00  0.00     0.090 C 
ATOM     61  OSA ASG d1196      12.581  13.035  -3.818  0.00  0.00    -0.572 OA
ATOM     62  OSC ASG d1196      15.020  13.165  -3.796  0.00  0.00    -0.572 OA
ATOM     63  C2  ASG d1196      13.395  15.192   0.442  0.00  0.00     0.087 C 
ATOM     64  O5  ASG d1196      15.141  13.535   0.304  0.00  0.00    -0.349 OA
ATOM     65  O1  ASG d1196      15.512  15.414   1.599  0.00  0.00    -0.369 OA
ATOM     66  N   ASG d1196      12.781  16.047   1.450  0.00  0.00    -0.349 N 
ATOM     67  O7  ASG d1196      12.308  18.104   2.180  0.00  0.00    -0.274 OA
ATOM     68  H   ASG d1196      15.115  11.831  -1.944  0.00  0.00     0.078 H 
ATOM     69  H   ASG d1196      14.391  10.576  -0.976  0.00  0.00     0.078 H 
ATOM     70  H   ASG d1196      13.857  17.134  -0.478  0.00  0.00     0.040 H 
ATOM     71  H   ASG d1196      14.301  18.561   0.427  0.00  0.00     0.040 H 
ATOM     72  H   ASG d1196      12.785  18.513  -0.439  0.00  0.00     0.040 H 
ATOM     73  H   ASG d1196      16.741  12.059  -0.297  0.00  0.00     0.209 HD
ATOM     74  H   ASG d1196      14.111  13.968   2.037  0.00  0.00     0.132 H 
ATOM     75  H   ASG d1196      12.426  12.464  -1.337  0.00  0.00     0.093 H 
ATOM     76  H   ASG d1196      11.918  13.713   0.845  0.00  0.00     0.091 H 
ATOM     77  H   ASG d1196      13.772  12.038   0.697  0.00  0.00     0.090 H 
ATOM     78  H   ASG d1196      13.755  15.728  -0.411  0.00  0.00     0.084 H 
ATOM     79  H   ASG d1196      15.877  15.862   0.819  0.00  0.00     0.212 HD
ATOM     80  H   ASG d1196      12.335  15.636   2.226  0.00  0.00     0.163 HD
ATOM     81  O3  BDP d1199      -1.345   6.438  -2.485  0.00  0.00    -0.393 OA
ATOM     82  O1  BDP d1199       2.283   9.696  -2.725  0.00  0.00    -0.348 OA
ATOM     83  O6A BDP d1199       2.700   6.504  -6.896  0.00  0.00    -0.646 OA
ATOM     84  C4  BDP d1199       0.115   6.553  -4.396  0.00  0.00    -0.005 C 
ATOM     85  O5  BDP d1199       2.049   8.065  -4.342  0.00  0.00    -0.343 OA
ATOM     86  C1  BDP d1199       1.916   8.326  -2.938  0.00  0.00     0.159 C 
ATOM     87  C5  BDP d1199       1.546   6.823  -4.847  0.00  0.00     0.127 C 
ATOM     88  C2  BDP d1199       0.505   8.025  -2.424  0.00  0.00     0.107 C 
ATOM     89  C3  BDP d1199       0.015   6.653  -2.882  0.00  0.00     0.068 C 
ATOM     90  C6  BDP d1199       1.628   6.848  -6.348  0.00  0.00     0.203 C 
ATOM     91  O2  BDP d1199       0.509   8.064  -0.994  0.00  0.00    -0.388 OA
ATOM     92  O6B BDP d1199       0.631   7.228  -7.000  0.00  0.00    -0.646 OA
ATOM     93  H   BDP d1199      -1.634   5.562  -2.785  0.00  0.00     0.210 HD
ATOM     94  H   BDP d1199      -0.539   7.275  -4.841  0.00  0.00     0.041 H 
ATOM     95  H   BDP d1199      -0.168   5.568  -4.701  0.00  0.00     0.041 H 
ATOM     96  H   BDP d1199       2.560   7.676  -2.382  0.00  0.00     0.133 H 
ATOM     97  H   BDP d1199       2.146   6.028  -4.454  0.00  0.00     0.100 H 
ATOM     98  H   BDP d1199      -0.157   8.764  -2.823  0.00  0.00     0.094 H 
ATOM     99  H   BDP d1199       0.631   5.907  -2.423  0.00  0.00     0.087 H 
ATOM    100  H   BDP d1199       1.113   7.387  -0.654  0.00  0.00     0.210 HD
ENDROOT
TORSDOF 25
ENDMDL
MODEL 41
REMARK VINA RESULT:      -4.2      3.962     12.894
REMARK  0 active torsions:
REMARK  status: ('A' for Active; 'I' for Inactive)
REMARK       I    between atoms: C5_1  and  C6_46 
REMARK       I    between atoms: O1_2  and  C4_60 
REMARK       I    between atoms: O1_2  and  C1_47 
REMARK       I    between atoms: S_3  and  O4_24 
REMARK       I    between atoms: C7_6  and  C8_11 
REMARK       I    between atoms: C7_6  and  N_48 
REMARK       I    between atoms: O3_7  and  C3_41 
REMARK       I    between atoms: O1_9  and  C3_31 
REMARK       I    between atoms: O1_9  and  C1_19 
REMARK       I    between atoms: C6_10  and  C5_34 
REMARK       I    between atoms: C6_10  and  O6_12 
REMARK       I    between atoms: C3_13  and  O1_16 
REMARK       I    between atoms: C2_14  and  N_20 
REMARK       I    between atoms: C1_15  and  O1_45 
REMARK       I    between atoms: O1_16  and  C1_29 
REMARK       I    between atoms: S_17  and  O4_30 
REMARK       I    between atoms: N_20  and  C7_40 
REMARK       I    between atoms: C4_22  and  O4_30 
REMARK       I    between atoms: O4_24  and  C4_28 
REMARK       I    between atoms: C5_25  and  C6_55 
REMARK       I    between atoms: C2_32  and  O2_39 
REMARK       I    between atoms: C5_33  and  C6_51 
REMARK       I    between atoms: C2_36  and  O2_56 
REMARK       I    between atoms: C8_37  and  C7_40 
REMARK       I    between atoms: C2_43  and  N_48 
REMARK       I    between atoms: C3_50  and  O3_53 
REMARK       I    between atoms: O6_54  and  C6_55 
ROOT
ATOM      1  C5  BDP d1197       6.630  11.583   1.507  0.00  0.00     0.152 C 
ATOM      2  O1  BDP d1197       3.246  10.092   1.652  0.00  0.00    -0.348 OA
ATOM      3  C1  BDP d1197       4.671  10.132   1.865  0.00  0.00     0.160 C 
ATOM      4  O5  BDP d1197       5.202  11.428   1.561  0.00  0.00    -0.340 OA
ATOM      5  C2  BDP d1197       5.317   9.059   0.987  0.00  0.00     0.110 C 
ATOM      6  O6A BDP d1197       7.572  13.762   1.544  0.00  0.00    -0.646 OA
ATOM      7  O2  BDP d1197       4.933   7.762   1.464  0.00  0.00    -0.388 OA
ATOM      8  C6  BDP d1197       6.897  12.928   0.901  0.00  0.00     0.206 C 
ATOM      9  C3  BDP d1197       6.843   9.147   0.915  0.00  0.00     0.092 C 
ATOM     10  O6B BDP d1197       6.438  13.150  -0.240  0.00  0.00    -0.646 OA
ATOM     11  O3  BDP d1197       7.286   8.275  -0.134  0.00  0.00    -0.390 OA
ATOM     12  C4  BDP d1197       7.342  10.562   0.623  0.00  0.00     0.103 C 
ATOM     13  H   BDP d1197       6.997  11.458   2.504  0.00  0.00     0.104 H 
ATOM     14  H   BDP d1197       4.886   9.938   2.895  0.00  0.00     0.133 H 
ATOM     15  H   BDP d1197       4.962   9.228  -0.008  0.00  0.00     0.094 H 
ATOM     16  H   BDP d1197       5.268   7.637   2.366  0.00  0.00     0.210 HD
ATOM     17  H   BDP d1197       7.238   8.863   1.868  0.00  0.00     0.091 H 
ATOM     18  H   BDP d1197       6.907   8.566  -0.979  0.00  0.00     0.210 HD
ATOM     19  H   BDP d1197       7.130  10.782  -0.402  0.00  0.00     0.092 H 
ATOM     20  O1  ASG d1198       8.765  10.645   0.853  0.00  0.00    -0.348 OA
ATOM     21  O7  ASG d1198      11.782  13.647   3.047  0.00  0.00    -0.274 OA
ATOM     22  OSB ASG d1198      14.573   8.955  -1.536  0.00  0.00    -0.572 OA
ATOM     23  C3  ASG d1198      12.098  11.659  -0.683  0.00  0.00     0.094 C 
ATOM     24  C2  ASG d1198      11.065  11.344   0.410  0.00  0.00     0.087 C 
ATOM     25  S   ASG d1198      13.260   8.522  -2.061  0.00  0.00     0.252 S 
ATOM     26  N   ASG d1198      11.085  12.538   1.249  0.00  0.00    -0.349 N 
ATOM     27  OSA ASG d1198      13.262   8.651  -3.536  0.00  0.00    -0.572 OA
ATOM     28  C4  ASG d1198      11.907  10.742  -1.884  0.00  0.00     0.114 C 
ATOM     29  C5  ASG d1198      10.458  10.850  -2.350  0.00  0.00     0.090 C 
ATOM     30  O4  ASG d1198      12.154   9.401  -1.448  0.00  0.00    -0.246 OA
ATOM     31  C8  ASG d1198      12.573  11.423   2.819  0.00  0.00    -0.003 C 
ATOM     32  C7  ASG d1198      11.788  12.627   2.382  0.00  0.00     0.214 C 
ATOM     33  C1  ASG d1198       9.628  11.226  -0.140  0.00  0.00     0.154 C 
ATOM     34  OSC ASG d1198      13.021   7.109  -1.686  0.00  0.00    -0.572 OA
ATOM     35  O6  ASG d1198      11.379  10.122  -4.435  0.00  0.00    -0.398 OA
ATOM     36  C6  ASG d1198      10.205  10.055  -3.626  0.00  0.00     0.043 C 
ATOM     37  O5  ASG d1198       9.593  10.396  -1.305  0.00  0.00    -0.349 OA
ATOM     38  H   ASG d1198      11.931  12.673  -0.980  0.00  0.00     0.091 H 
ATOM     39  H   ASG d1198      11.304  10.419   0.892  0.00  0.00     0.084 H 
ATOM     40  H   ASG d1198      10.555  13.317   0.966  0.00  0.00     0.163 HD
ATOM     41  H   ASG d1198      12.567  11.010  -2.682  0.00  0.00     0.093 H 
ATOM     42  H   ASG d1198      10.256  11.876  -2.575  0.00  0.00     0.090 H 
ATOM     43  H   ASG d1198      13.080  11.641   3.735  0.00  0.00     0.040 H 
ATOM     44  H   ASG d1198      13.290  11.172   2.065  0.00  0.00     0.040 H 
ATOM     45  H   ASG d1198      11.908  10.598   2.967  0.00  0.00     0.040 H 
ATOM     46  H   ASG d1198       9.295  12.211  -0.392  0.00  0.00     0.132 H 
ATOM     47  H   ASG d1198      11.237   9.621  -5.253  0.00  0.00     0.209 HD
ATOM     48  H   ASG d1198       9.377  10.476  -4.156  0.00  0.00     0.078 H 
ATOM     49  H   ASG d1198       9.980   9.037  -3.387  0.00  0.00     0.078 H 
ATOM     50  S   ASG d1196       1.271  11.771  -1.086  0.00  0.00     0.252 S 
ATOM     51  OSB ASG d1196       0.860  10.487  -1.700  0.00  0.00    -0.572 OA
ATOM     52  C7  ASG d1196       0.813   8.247   3.736  0.00  0.00     0.214 C 
ATOM     53  C6  ASG d1196       0.940  14.460   1.288  0.00  0.00     0.043 C 
ATOM     54  C8  ASG d1196       0.002   7.932   2.515  0.00  0.00    -0.003 C 
ATOM     55  O6  ASG d1196      -0.166  15.156   1.874  0.00  0.00    -0.398 OA
ATOM     56  C1  ASG d1196       0.253  11.567   3.484  0.00  0.00     0.151 C 
ATOM     57  O4  ASG d1196       1.169  11.616   0.440  0.00  0.00    -0.246 OA
ATOM     58  C4  ASG d1196       2.080  12.191   1.387  0.00  0.00     0.114 C 
ATOM     59  C3  ASG d1196       2.406  11.039   2.329  0.00  0.00     0.094 C 
ATOM     60  C5  ASG d1196       1.246  13.231   2.133  0.00  0.00     0.090 C 
ATOM     61  OSA ASG d1196       2.660  12.085  -1.495  0.00  0.00    -0.572 OA
ATOM     62  OSC ASG d1196       0.335  12.832  -1.533  0.00  0.00    -0.572 OA
ATOM     63  C2  ASG d1196       1.060  10.472   2.782  0.00  0.00     0.087 C 
ATOM     64  O5  ASG d1196       0.021  12.636   2.570  0.00  0.00    -0.349 OA
ATOM     65  O1  ASG d1196      -1.017  11.047   3.889  0.00  0.00    -0.369 OA
ATOM     66  N   ASG d1196       1.313   9.481   3.821  0.00  0.00    -0.349 N 
ATOM     67  O7  ASG d1196       1.010   7.410   4.601  0.00  0.00    -0.274 OA
ATOM     68  H   ASG d1196       0.690  14.160   0.292  0.00  0.00     0.078 H 
ATOM     69  H   ASG d1196       1.796  15.101   1.254  0.00  0.00     0.078 H 
ATOM     70  H   ASG d1196      -0.048   8.797   1.887  0.00  0.00     0.040 H 
ATOM     71  H   ASG d1196      -0.986   7.645   2.807  0.00  0.00     0.040 H 
ATOM     72  H   ASG d1196       0.462   7.129   1.978  0.00  0.00     0.040 H 
ATOM     73  H   ASG d1196      -0.938  14.569   1.902  0.00  0.00     0.209 HD
ATOM     74  H   ASG d1196       0.800  11.911   4.336  0.00  0.00     0.132 H 
ATOM     75  H   ASG d1196       2.967  12.628   0.977  0.00  0.00     0.093 H 
ATOM     76  H   ASG d1196       2.960  11.339   3.195  0.00  0.00     0.091 H 
ATOM     77  H   ASG d1196       1.827  13.559   2.969  0.00  0.00     0.090 H 
ATOM     78  H   ASG d1196       0.547  10.076   1.931  0.00  0.00     0.084 H 
ATOM     79  H   ASG d1196      -1.504  10.738   3.109  0.00  0.00     0.212 HD
ATOM     80  H   ASG d1196       1.862   9.726   4.600  0.00  0.00     0.163 HD
ATOM     81  O3  BDP d1199      17.998  13.332   0.064  0.00  0.00    -0.393 OA
ATOM     82  O1  BDP d1199      13.452  11.572  -0.206  0.00  0.00    -0.348 OA
ATOM     83  O6A BDP d1199      14.270  14.592  -4.445  0.00  0.00    -0.646 OA
ATOM     84  C4  BDP d1199      16.625  13.693  -1.880  0.00  0.00    -0.005 C 
ATOM     85  O5  BDP d1199      14.279  12.970  -1.847  0.00  0.00    -0.343 OA
ATOM     86  C1  BDP d1199      14.287  12.716  -0.436  0.00  0.00     0.159 C 
ATOM     87  C5  BDP d1199      15.199  13.939  -2.363  0.00  0.00     0.127 C 
ATOM     88  C2  BDP d1199      15.704  12.509   0.108  0.00  0.00     0.107 C 
ATOM     89  C3  BDP d1199      16.657  13.604  -0.363  0.00  0.00     0.068 C 
ATOM     90  C6  BDP d1199      15.139  13.904  -3.864  0.00  0.00     0.203 C 
ATOM     91  O2  BDP d1199      15.662  12.511   1.537  0.00  0.00    -0.388 OA
ATOM     92  O6B BDP d1199      15.946  13.178  -4.484  0.00  0.00    -0.646 OA
ATOM     93  H   BDP d1199      18.585  14.039  -0.245  0.00  0.00     0.210 HD
ATOM     94  H   BDP d1199      16.986  12.775  -2.296  0.00  0.00     0.041 H 
ATOM     95  H   BDP d1199      17.245  14.505  -2.197  0.00  0.00     0.041 H 
ATOM     96  H   BDP d1199      13.907  13.566   0.091  0.00  0.00     0.133 H 
ATOM     97  H   BDP d1199      14.916  14.904  -1.999  0.00  0.00     0.100 H 
ATOM     98  H   BDP d1199      16.066  11.572  -0.261  0.00  0.00     0.094 H 
ATOM     99  H   BDP d1199      16.340  14.532   0.066  0.00  0.00     0.087 H 
ATOM    100  H   BDP d1199      15.333  13.368   1.850  0.00  0.00     0.210 HD
ENDROOT
TORSDOF 25
ENDMDL
MODEL 42
REMARK VINA RESULT:      -4.1      2.131      2.872
REMARK  0 active torsions:
REMARK  status: ('A' for Active; 'I' for Inactive)
REMARK       I    between atoms: C5_1  and  C6_46 
REMARK       I    between atoms: O1_2  and  C4_60 
REMARK       I    between atoms: O1_2  and  C1_47 
REMARK       I    between atoms: S_3  and  O4_24 
REMARK       I    between atoms: C7_6  and  C8_11 
REMARK       I    between atoms: C7_6  and  N_48 
REMARK       I    between atoms: O3_7  and  C3_41 
REMARK       I    between atoms: O1_9  and  C3_31 
REMARK       I    between atoms: O1_9  and  C1_19 
REMARK       I    between atoms: C6_10  and  C5_34 
REMARK       I    between atoms: C6_10  and  O6_12 
REMARK       I    between atoms: C3_13  and  O1_16 
REMARK       I    between atoms: C2_14  and  N_20 
REMARK       I    between atoms: C1_15  and  O1_45 
REMARK       I    between atoms: O1_16  and  C1_29 
REMARK       I    between atoms: S_17  and  O4_30 
REMARK       I    between atoms: N_20  and  C7_40 
REMARK       I    between atoms: C4_22  and  O4_30 
REMARK       I    between atoms: O4_24  and  C4_28 
REMARK       I    between atoms: C5_25  and  C6_55 
REMARK       I    between atoms: C2_32  and  O2_39 
REMARK       I    between atoms: C5_33  and  C6_51 
REMARK       I    between atoms: C2_36  and  O2_56 
REMARK       I    between atoms: C8_37  and  C7_40 
REMARK       I    between atoms: C2_43  and  N_48 
REMARK       I    between atoms: C3_50  and  O3_53 
REMARK       I    between atoms: O6_54  and  C6_55 
ROOT
ATOM      1  C5  BDP d1197       6.793   9.380  -0.708  0.00  0.00     0.152 C 
ATOM      2  O1  BDP d1197      10.005   9.156   1.116  0.00  0.00    -0.348 OA
ATOM      3  C1  BDP d1197       8.575   9.066   0.965  0.00  0.00     0.160 C 
ATOM      4  O5  BDP d1197       8.189   9.224  -0.406  0.00  0.00    -0.340 OA
ATOM      5  C2  BDP d1197       7.931  10.143   1.839  0.00  0.00     0.110 C 
ATOM      6  O6A BDP d1197       6.041   9.113  -2.945  0.00  0.00    -0.646 OA
ATOM      7  O2  BDP d1197       8.152   9.826   3.221  0.00  0.00    -0.388 OA
ATOM      8  C6  BDP d1197       6.704   9.808  -2.142  0.00  0.00     0.206 C 
ATOM      9  C3  BDP d1197       6.433  10.335   1.592  0.00  0.00     0.092 C 
ATOM     10  O6B BDP d1197       7.294  10.860  -2.470  0.00  0.00    -0.646 OA
ATOM     11  O3  BDP d1197       6.026  11.534   2.266  0.00  0.00    -0.390 OA
ATOM     12  C4  BDP d1197       6.089  10.462   0.109  0.00  0.00     0.103 C 
ATOM     13  H   BDP d1197       6.318   8.448  -0.485  0.00  0.00     0.104 H 
ATOM     14  H   BDP d1197       8.241   8.097   1.274  0.00  0.00     0.133 H 
ATOM     15  H   BDP d1197       8.398  11.068   1.573  0.00  0.00     0.094 H 
ATOM     16  H   BDP d1197       7.719   8.984   3.433  0.00  0.00     0.210 HD
ATOM     17  H   BDP d1197       5.921   9.471   1.962  0.00  0.00     0.091 H 
ATOM     18  H   BDP d1197       6.511  12.290   1.902  0.00  0.00     0.210 HD
ATOM     19  H   BDP d1197       6.422  11.422  -0.227  0.00  0.00     0.092 H 
ATOM     20  O1  ASG d1198       4.663  10.349  -0.082  0.00  0.00    -0.348 OA
ATOM     21  O7  ASG d1198       1.708   8.017  -3.043  0.00  0.00    -0.274 OA
ATOM     22  OSB ASG d1198      -0.999  13.457   0.685  0.00  0.00    -0.572 OA
ATOM     23  C3  ASG d1198       1.600  12.008  -1.620  0.00  0.00     0.094 C 
ATOM     24  C2  ASG d1198       2.487  10.886  -1.059  0.00  0.00     0.087 C 
ATOM     25  S   ASG d1198       0.319  13.922   1.171  0.00  0.00     0.252 S 
ATOM     26  N   ASG d1198       2.484   9.888  -2.124  0.00  0.00    -0.349 N 
ATOM     27  OSA ASG d1198       0.477  15.356   0.844  0.00  0.00    -0.572 OA
ATOM     28  C4  ASG d1198       1.832  13.307  -0.860  0.00  0.00     0.114 C 
ATOM     29  C5  ASG d1198       3.325  13.624  -0.886  0.00  0.00     0.090 C 
ATOM     30  O4  ASG d1198       1.428  13.093   0.496  0.00  0.00    -0.246 OA
ATOM     31  C8  ASG d1198       0.756   8.633  -0.959  0.00  0.00    -0.003 C 
ATOM     32  C7  ASG d1198       1.681   8.820  -2.128  0.00  0.00     0.214 C 
ATOM     33  C1  ASG d1198       3.957  11.319  -0.875  0.00  0.00     0.154 C 
ATOM     34  OSC ASG d1198       0.398  13.734   2.638  0.00  0.00    -0.572 OA
ATOM     35  O6  ASG d1198       2.560  15.865  -0.542  0.00  0.00    -0.398 OA
ATOM     36  C6  ASG d1198       3.636  14.974  -0.251  0.00  0.00     0.043 C 
ATOM     37  O5  ASG d1198       4.038  12.584  -0.212  0.00  0.00    -0.349 OA
ATOM     38  H   ASG d1198       1.882  12.140  -2.643  0.00  0.00     0.091 H 
ATOM     39  H   ASG d1198       2.123  10.566  -0.105  0.00  0.00     0.084 H 
ATOM     40  H   ASG d1198       3.105  10.008  -2.879  0.00  0.00     0.163 HD
ATOM     41  H   ASG d1198       1.281  14.114  -1.298  0.00  0.00     0.093 H 
ATOM     42  H   ASG d1198       3.635  13.680  -1.909  0.00  0.00     0.090 H 
ATOM     43  H   ASG d1198       0.179   7.743  -1.100  0.00  0.00     0.040 H 
ATOM     44  H   ASG d1198       0.100   9.475  -0.885  0.00  0.00     0.040 H 
ATOM     45  H   ASG d1198       1.329   8.547  -0.060  0.00  0.00     0.040 H 
ATOM     46  H   ASG d1198       4.397  11.395  -1.847  0.00  0.00     0.132 H 
ATOM     47  H   ASG d1198       2.740  16.732  -0.146  0.00  0.00     0.209 HD
ATOM     48  H   ASG d1198       4.547  15.363  -0.656  0.00  0.00     0.078 H 
ATOM     49  H   ASG d1198       3.749  14.866   0.808  0.00  0.00     0.078 H 
ATOM     50  S   ASG d1196      12.383  11.439  -0.715  0.00  0.00     0.252 S 
ATOM     51  OSB ASG d1196      12.742  12.193   0.508  0.00  0.00    -0.572 OA
ATOM     52  C7  ASG d1196      12.049   7.155   3.458  0.00  0.00     0.214 C 
ATOM     53  C6  ASG d1196      12.701   8.681  -3.012  0.00  0.00     0.043 C 
ATOM     54  C8  ASG d1196      12.949   8.333   3.683  0.00  0.00    -0.003 C 
ATOM     55  O6  ASG d1196      13.798   7.906  -3.509  0.00  0.00    -0.398 OA
ATOM     56  C1  ASG d1196      12.913   6.875   0.206  0.00  0.00     0.151 C 
ATOM     57  O4  ASG d1196      12.316   9.949  -0.346  0.00  0.00    -0.246 OA
ATOM     58  C4  ASG d1196      11.368   9.012  -0.875  0.00  0.00     0.114 C 
ATOM     59  C3  ASG d1196      10.851   8.278   0.357  0.00  0.00     0.094 C 
ATOM     60  C5  ASG d1196      12.207   8.054  -1.716  0.00  0.00     0.090 C 
ATOM     61  OSA ASG d1196      11.074  11.919  -1.218  0.00  0.00    -0.572 OA
ATOM     62  OSC ASG d1196      13.446  11.644  -1.729  0.00  0.00    -0.572 OA
ATOM     63  C2  ASG d1196      12.091   7.795   1.111  0.00  0.00     0.087 C 
ATOM     64  O5  ASG d1196      13.327   7.601  -0.949  0.00  0.00    -0.349 OA
ATOM     65  O1  ASG d1196      14.087   6.439   0.899  0.00  0.00    -0.369 OA
ATOM     66  N   ASG d1196      11.651   6.937   2.204  0.00  0.00    -0.349 N 
ATOM     67  O7  ASG d1196      11.695   6.440   4.381  0.00  0.00    -0.274 OA
ATOM     68  H   ASG d1196      13.024   9.685  -2.827  0.00  0.00     0.078 H 
ATOM     69  H   ASG d1196      11.910   8.698  -3.733  0.00  0.00     0.078 H 
ATOM     70  H   ASG d1196      13.136   8.822   2.750  0.00  0.00     0.040 H 
ATOM     71  H   ASG d1196      13.874   7.999   4.103  0.00  0.00     0.040 H 
ATOM     72  H   ASG d1196      12.479   9.018   4.356  0.00  0.00     0.040 H 
ATOM     73  H   ASG d1196      14.510   7.896  -2.850  0.00  0.00     0.209 HD
ATOM     74  H   ASG d1196      12.315   6.033  -0.072  0.00  0.00     0.132 H 
ATOM     75  H   ASG d1196      10.567   9.430  -1.448  0.00  0.00     0.093 H 
ATOM     76  H   ASG d1196      10.239   7.431   0.124  0.00  0.00     0.091 H 
ATOM     77  H   ASG d1196      11.576   7.233  -1.983  0.00  0.00     0.090 H 
ATOM     78  H   ASG d1196      12.651   8.647   1.436  0.00  0.00     0.084 H 
ATOM     79  H   ASG d1196      14.622   7.209   1.146  0.00  0.00     0.212 HD
ATOM     80  H   ASG d1196      11.048   6.182   2.013  0.00  0.00     0.163 HD
ATOM     81  O3  BDP d1199      -4.180  11.549  -3.751  0.00  0.00    -0.393 OA
ATOM     82  O1  BDP d1199       0.203  11.670  -1.603  0.00  0.00    -0.348 OA
ATOM     83  O6A BDP d1199       0.078  15.484  -5.236  0.00  0.00    -0.646 OA
ATOM     84  C4  BDP d1199      -2.593  13.293  -4.235  0.00  0.00    -0.005 C 
ATOM     85  O5  BDP d1199      -0.332  13.158  -3.286  0.00  0.00    -0.343 OA
ATOM     86  C1  BDP d1199      -0.504  11.805  -2.844  0.00  0.00     0.159 C 
ATOM     87  C5  BDP d1199      -1.110  13.607  -4.401  0.00  0.00     0.127 C 
ATOM     88  C2  BDP d1199      -1.981  11.423  -2.707  0.00  0.00     0.107 C 
ATOM     89  C3  BDP d1199      -2.785  11.812  -3.944  0.00  0.00     0.068 C 
ATOM     90  C6  BDP d1199      -0.902  15.087  -4.565  0.00  0.00     0.203 C 
ATOM     91  O2  BDP d1199      -2.084  10.010  -2.511  0.00  0.00    -0.388 OA
ATOM     92  O6B BDP d1199      -1.701  15.873  -4.013  0.00  0.00    -0.646 OA
ATOM     93  H   BDP d1199      -4.671  11.803  -4.548  0.00  0.00     0.210 HD
ATOM     94  H   BDP d1199      -2.987  13.867  -3.422  0.00  0.00     0.041 H 
ATOM     95  H   BDP d1199      -3.106  13.541  -5.140  0.00  0.00     0.041 H 
ATOM     96  H   BDP d1199      -0.108  11.129  -3.574  0.00  0.00     0.133 H 
ATOM     97  H   BDP d1199      -0.783  13.085  -5.276  0.00  0.00     0.100 H 
ATOM     98  H   BDP d1199      -2.383  11.953  -1.869  0.00  0.00     0.094 H 
ATOM     99  H   BDP d1199      -2.435  11.228  -4.770  0.00  0.00     0.087 H 
ATOM    100  H   BDP d1199      -1.715   9.549  -3.281  0.00  0.00     0.210 HD
ENDROOT
TORSDOF 25
ENDMDL
MODEL 43
REMARK VINA RESULT:      -4.1      3.623     12.698
REMARK  0 active torsions:
REMARK  status: ('A' for Active; 'I' for Inactive)
REMARK       I    between atoms: C5_1  and  C6_46 
REMARK       I    between atoms: O1_2  and  C4_60 
REMARK       I    between atoms: O1_2  and  C1_47 
REMARK       I    between atoms: S_3  and  O4_24 
REMARK       I    between atoms: C7_6  and  C8_11 
REMARK       I    between atoms: C7_6  and  N_48 
REMARK       I    between atoms: O3_7  and  C3_41 
REMARK       I    between atoms: O1_9  and  C3_31 
REMARK       I    between atoms: O1_9  and  C1_19 
REMARK       I    between atoms: C6_10  and  C5_34 
REMARK       I    between atoms: C6_10  and  O6_12 
REMARK       I    between atoms: C3_13  and  O1_16 
REMARK       I    between atoms: C2_14  and  N_20 
REMARK       I    between atoms: C1_15  and  O1_45 
REMARK       I    between atoms: O1_16  and  C1_29 
REMARK       I    between atoms: S_17  and  O4_30 
REMARK       I    between atoms: N_20  and  C7_40 
REMARK       I    between atoms: C4_22  and  O4_30 
REMARK       I    between atoms: O4_24  and  C4_28 
REMARK       I    between atoms: C5_25  and  C6_55 
REMARK       I    between atoms: C2_32  and  O2_39 
REMARK       I    between atoms: C5_33  and  C6_51 
REMARK       I    between atoms: C2_36  and  O2_56 
REMARK       I    between atoms: C8_37  and  C7_40 
REMARK       I    between atoms: C2_43  and  N_48 
REMARK       I    between atoms: C3_50  and  O3_53 
REMARK       I    between atoms: O6_54  and  C6_55 
ROOT
ATOM      1  C5  BDP d1197       6.564  10.789  -3.236  0.00  0.00     0.152 C 
ATOM      2  O1  BDP d1197       2.955  10.220  -3.824  0.00  0.00    -0.348 OA
ATOM      3  C1  BDP d1197       4.324  10.454  -4.208  0.00  0.00     0.160 C 
ATOM      4  O5  BDP d1197       5.199  10.368  -3.076  0.00  0.00    -0.340 OA
ATOM      5  C2  BDP d1197       4.410  11.836  -4.858  0.00  0.00     0.110 C 
ATOM      6  O6A BDP d1197       8.176  10.184  -1.601  0.00  0.00    -0.646 OA
ATOM      7  O2  BDP d1197       3.701  11.818  -6.105  0.00  0.00    -0.388 OA
ATOM      8  C6  BDP d1197       7.159  10.865  -1.863  0.00  0.00     0.206 C 
ATOM      9  C3  BDP d1197       5.840  12.329  -5.090  0.00  0.00     0.092 C 
ATOM     10  O6B BDP d1197       6.611  11.626  -1.036  0.00  0.00    -0.646 OA
ATOM     11  O3  BDP d1197       5.775  13.718  -5.443  0.00  0.00    -0.390 OA
ATOM     12  C4  BDP d1197       6.728  12.176  -3.855  0.00  0.00     0.103 C 
ATOM     13  H   BDP d1197       7.034  10.086  -3.893  0.00  0.00     0.104 H 
ATOM     14  H   BDP d1197       4.636   9.703  -4.903  0.00  0.00     0.133 H 
ATOM     15  H   BDP d1197       3.966  12.523  -4.168  0.00  0.00     0.094 H 
ATOM     16  H   BDP d1197       4.125  11.187  -6.708  0.00  0.00     0.210 HD
ATOM     17  H   BDP d1197       6.275  11.736  -5.867  0.00  0.00     0.091 H 
ATOM     18  H   BDP d1197       5.377  14.219  -4.714  0.00  0.00     0.210 HD
ATOM     19  H   BDP d1197       6.428  12.912  -3.139  0.00  0.00     0.092 H 
ATOM     20  O1  ASG d1198       8.112  12.378  -4.209  0.00  0.00    -0.348 OA
ATOM     21  O7  ASG d1198      12.294  10.210  -3.342  0.00  0.00    -0.274 OA
ATOM     22  OSB ASG d1198      12.509  16.887  -5.832  0.00  0.00    -0.572 OA
ATOM     23  C3  ASG d1198      11.274  14.325  -3.367  0.00  0.00     0.094 C 
ATOM     24  C2  ASG d1198      10.400  13.187  -3.917  0.00  0.00     0.087 C 
ATOM     25  S   ASG d1198      11.057  17.113  -5.663  0.00  0.00     0.252 S 
ATOM     26  N   ASG d1198      10.965  11.995  -3.293  0.00  0.00    -0.349 N 
ATOM     27  OSA ASG d1198      10.848  18.340  -4.863  0.00  0.00    -0.572 OA
ATOM     28  C4  ASG d1198      10.581  15.669  -3.546  0.00  0.00     0.114 C 
ATOM     29  C5  ASG d1198       9.196  15.589  -2.912  0.00  0.00     0.090 C 
ATOM     30  O4  ASG d1198      10.435  15.896  -4.951  0.00  0.00    -0.246 OA
ATOM     31  C8  ASG d1198      12.239  11.529  -5.314  0.00  0.00    -0.003 C 
ATOM     32  C7  ASG d1198      11.842  11.192  -3.905  0.00  0.00     0.214 C 
ATOM     33  C1  ASG d1198       8.935  13.271  -3.440  0.00  0.00     0.154 C 
ATOM     34  OSC ASG d1198      10.425  17.272  -6.993  0.00  0.00    -0.572 OA
ATOM     35  O6  ASG d1198       9.444  17.964  -2.764  0.00  0.00    -0.398 OA
ATOM     36  C6  ASG d1198       8.474  16.931  -2.938  0.00  0.00     0.043 C 
ATOM     37  O5  ASG d1198       8.423  14.598  -3.596  0.00  0.00    -0.349 OA
ATOM     38  H   ASG d1198      11.409  14.131  -2.323  0.00  0.00     0.091 H 
ATOM     39  H   ASG d1198      10.393  13.208  -4.987  0.00  0.00     0.084 H 
ATOM     40  H   ASG d1198      10.688  11.770  -2.376  0.00  0.00     0.163 HD
ATOM     41  H   ASG d1198      11.145  16.457  -3.090  0.00  0.00     0.093 H 
ATOM     42  H   ASG d1198       9.315  15.317  -1.884  0.00  0.00     0.090 H 
ATOM     43  H   ASG d1198      12.940  10.803  -5.670  0.00  0.00     0.040 H 
ATOM     44  H   ASG d1198      12.688  12.500  -5.336  0.00  0.00     0.040 H 
ATOM     45  H   ASG d1198      11.372  11.523  -5.940  0.00  0.00     0.040 H 
ATOM     46  H   ASG d1198       8.914  12.999  -2.406  0.00  0.00     0.132 H 
ATOM     47  H   ASG d1198       9.002  18.828  -2.777  0.00  0.00     0.209 HD
ATOM     48  H   ASG d1198       7.757  16.971  -2.145  0.00  0.00     0.078 H 
ATOM     49  H   ASG d1198       7.964  17.057  -3.870  0.00  0.00     0.078 H 
ATOM     50  S   ASG d1196       1.218  11.327  -0.666  0.00  0.00     0.252 S 
ATOM     51  OSB ASG d1196       0.300  12.240  -1.385  0.00  0.00    -0.572 OA
ATOM     52  C7  ASG d1196       0.442   8.401  -5.834  0.00  0.00     0.214 C 
ATOM     53  C6  ASG d1196       2.226   8.106   0.596  0.00  0.00     0.043 C 
ATOM     54  C8  ASG d1196      -0.625   9.336  -5.351  0.00  0.00    -0.003 C 
ATOM     55  O6  ASG d1196       1.537   6.987   1.163  0.00  0.00    -0.398 OA
ATOM     56  C1  ASG d1196       0.996   7.137  -2.753  0.00  0.00     0.151 C 
ATOM     57  O4  ASG d1196       1.335  10.035  -1.490  0.00  0.00    -0.246 OA
ATOM     58  C4  ASG d1196       2.535   9.265  -1.645  0.00  0.00     0.114 C 
ATOM     59  C3  ASG d1196       2.612   9.002  -3.144  0.00  0.00     0.094 C 
ATOM     60  C5  ASG d1196       2.241   7.954  -0.919  0.00  0.00     0.090 C 
ATOM     61  OSA ASG d1196       2.539  11.981  -0.516  0.00  0.00    -0.572 OA
ATOM     62  OSC ASG d1196       0.631  11.010   0.659  0.00  0.00    -0.572 OA
ATOM     63  C2  ASG d1196       1.254   8.424  -3.541  0.00  0.00     0.087 C 
ATOM     64  O5  ASG d1196       0.983   7.436  -1.359  0.00  0.00    -0.349 OA
ATOM     65  O1  ASG d1196      -0.284   6.603  -3.104  0.00  0.00    -0.369 OA
ATOM     66  N   ASG d1196       1.334   7.992  -4.931  0.00  0.00    -0.349 N 
ATOM     67  O7  ASG d1196       0.492   8.041  -6.999  0.00  0.00    -0.274 OA
ATOM     68  H   ASG d1196       1.721   9.012   0.862  0.00  0.00     0.078 H 
ATOM     69  H   ASG d1196       3.228   8.145   0.968  0.00  0.00     0.078 H 
ATOM     70  H   ASG d1196      -0.490   9.522  -4.306  0.00  0.00     0.040 H 
ATOM     71  H   ASG d1196      -1.586   8.894  -5.513  0.00  0.00     0.040 H 
ATOM     72  H   ASG d1196      -0.563  10.258  -5.889  0.00  0.00     0.040 H 
ATOM     73  H   ASG d1196       0.629   6.959   0.820  0.00  0.00     0.209 HD
ATOM     74  H   ASG d1196       1.765   6.429  -2.979  0.00  0.00     0.132 H 
ATOM     75  H   ASG d1196       3.432   9.718  -1.277  0.00  0.00     0.093 H 
ATOM     76  H   ASG d1196       3.376   8.304  -3.417  0.00  0.00     0.091 H 
ATOM     77  H   ASG d1196       3.034   7.276  -1.160  0.00  0.00     0.090 H 
ATOM     78  H   ASG d1196       0.499   9.161  -3.366  0.00  0.00     0.084 H 
ATOM     79  H   ASG d1196      -0.974   7.253  -2.894  0.00  0.00     0.212 HD
ATOM     80  H   ASG d1196       2.060   7.387  -5.208  0.00  0.00     0.163 HD
ATOM     81  O3  BDP d1199      17.428  14.817  -3.602  0.00  0.00    -0.393 OA
ATOM     82  O1  BDP d1199      12.580  14.359  -3.966  0.00  0.00    -0.348 OA
ATOM     83  O6A BDP d1199      13.621  17.090   0.418  0.00  0.00    -0.646 OA
ATOM     84  C4  BDP d1199      15.942  15.940  -2.077  0.00  0.00    -0.005 C 
ATOM     85  O5  BDP d1199      13.532  15.482  -2.187  0.00  0.00    -0.343 OA
ATOM     86  C1  BDP d1199      13.698  14.361  -3.067  0.00  0.00     0.159 C 
ATOM     87  C5  BDP d1199      14.621  15.826  -1.323  0.00  0.00     0.127 C 
ATOM     88  C2  BDP d1199      15.034  14.404  -3.815  0.00  0.00     0.107 C 
ATOM     89  C3  BDP d1199      16.204  14.670  -2.871  0.00  0.00     0.068 C 
ATOM     90  C6  BDP d1199      14.295  17.123  -0.636  0.00  0.00     0.203 C 
ATOM     91  O2  BDP d1199      15.244  13.151  -4.473  0.00  0.00    -0.388 OA
ATOM     92  O6B BDP d1199      14.691  18.193  -1.147  0.00  0.00    -0.646 OA
ATOM     93  H   BDP d1199      18.156  14.985  -2.984  0.00  0.00     0.210 HD
ATOM     94  H   BDP d1199      15.896  16.773  -2.748  0.00  0.00     0.041 H 
ATOM     95  H   BDP d1199      16.735  16.083  -1.373  0.00  0.00     0.041 H 
ATOM     96  H   BDP d1199      13.723  13.452  -2.502  0.00  0.00     0.133 H 
ATOM     97  H   BDP d1199      14.746  15.044  -0.604  0.00  0.00     0.100 H 
ATOM     98  H   BDP d1199      14.991  15.204  -4.524  0.00  0.00     0.094 H 
ATOM     99  H   BDP d1199      16.297  13.835  -2.207  0.00  0.00     0.087 H 
ATOM    100  H   BDP d1199      15.280  12.442  -3.813  0.00  0.00     0.210 HD
ENDROOT
TORSDOF 25
ENDMDL
MODEL 44
REMARK VINA RESULT:      -4.1      3.399     12.076
REMARK  0 active torsions:
REMARK  status: ('A' for Active; 'I' for Inactive)
REMARK       I    between atoms: C5_1  and  C6_46 
REMARK       I    between atoms: O1_2  and  C4_60 
REMARK       I    between atoms: O1_2  and  C1_47 
REMARK       I    between atoms: S_3  and  O4_24 
REMARK       I    between atoms: C7_6  and  C8_11 
REMARK       I    between atoms: C7_6  and  N_48 
REMARK       I    between atoms: O3_7  and  C3_41 
REMARK       I    between atoms: O1_9  and  C3_31 
REMARK       I    between atoms: O1_9  and  C1_19 
REMARK       I    between atoms: C6_10  and  C5_34 
REMARK       I    between atoms: C6_10  and  O6_12 
REMARK       I    between atoms: C3_13  and  O1_16 
REMARK       I    between atoms: C2_14  and  N_20 
REMARK       I    between atoms: C1_15  and  O1_45 
REMARK       I    between atoms: O1_16  and  C1_29 
REMARK       I    between atoms: S_17  and  O4_30 
REMARK       I    between atoms: N_20  and  C7_40 
REMARK       I    between atoms: C4_22  and  O4_30 
REMARK       I    between atoms: O4_24  and  C4_28 
REMARK       I    between atoms: C5_25  and  C6_55 
REMARK       I    between atoms: C2_32  and  O2_39 
REMARK       I    between atoms: C5_33  and  C6_51 
REMARK       I    between atoms: C2_36  and  O2_56 
REMARK       I    between atoms: C8_37  and  C7_40 
REMARK       I    between atoms: C2_43  and  N_48 
REMARK       I    between atoms: C3_50  and  O3_53 
REMARK       I    between atoms: O6_54  and  C6_55 
ROOT
ATOM      1  C5  BDP d1197       5.870  10.288  -1.448  0.00  0.00     0.152 C 
ATOM      2  O1  BDP d1197       2.273   9.817  -0.712  0.00  0.00    -0.348 OA
ATOM      3  C1  BDP d1197       3.431   9.951  -1.560  0.00  0.00     0.160 C 
ATOM      4  O5  BDP d1197       4.639   9.946  -0.789  0.00  0.00    -0.340 OA
ATOM      5  C2  BDP d1197       3.296  11.251  -2.353  0.00  0.00     0.110 C 
ATOM      6  O6A BDP d1197       7.939   9.790  -0.397  0.00  0.00    -0.646 OA
ATOM      7  O2  BDP d1197       2.205  11.133  -3.276  0.00  0.00    -0.388 OA
ATOM      8  C6  BDP d1197       6.897  10.482  -0.375  0.00  0.00     0.206 C 
ATOM      9  C3  BDP d1197       4.564  11.656  -3.109  0.00  0.00     0.092 C 
ATOM     10  O6B BDP d1197       6.667  11.349   0.497  0.00  0.00    -0.646 OA
ATOM     11  O3  BDP d1197       4.389  13.001  -3.574  0.00  0.00    -0.390 OA
ATOM     12  C4  BDP d1197       5.818  11.594  -2.238  0.00  0.00     0.103 C 
ATOM     13  H   BDP d1197       6.084   9.502  -2.141  0.00  0.00     0.104 H 
ATOM     14  H   BDP d1197       3.483   9.118  -2.231  0.00  0.00     0.133 H 
ATOM     15  H   BDP d1197       3.117  12.026  -1.636  0.00  0.00     0.094 H 
ATOM     16  H   BDP d1197       2.395  10.425  -3.912  0.00  0.00     0.210 HD
ATOM     17  H   BDP d1197       4.705  10.966  -3.915  0.00  0.00     0.091 H 
ATOM     18  H   BDP d1197       4.265  13.593  -2.815  0.00  0.00     0.210 HD
ATOM     19  H   BDP d1197       5.784  12.414  -1.551  0.00  0.00     0.092 H 
ATOM     20  O1  ASG d1198       7.000  11.699  -3.060  0.00  0.00    -0.348 OA
ATOM     21  O7  ASG d1198      11.217   9.457  -3.419  0.00  0.00    -0.274 OA
ATOM     22  OSB ASG d1198      10.602  15.820  -6.573  0.00  0.00    -0.572 OA
ATOM     23  C3  ASG d1198      10.269  13.586  -3.563  0.00  0.00     0.094 C 
ATOM     24  C2  ASG d1198       9.254  12.435  -3.653  0.00  0.00     0.087 C 
ATOM     25  S   ASG d1198       9.295  16.125  -5.950  0.00  0.00     0.252 S 
ATOM     26  N   ASG d1198       9.993  11.292  -3.127  0.00  0.00    -0.349 N 
ATOM     27  OSA ASG d1198       9.377  17.437  -5.271  0.00  0.00    -0.572 OA
ATOM     28  C4  ASG d1198       9.563  14.933  -3.648  0.00  0.00     0.114 C 
ATOM     29  C5  ASG d1198       8.476  14.979  -2.578  0.00  0.00     0.090 C 
ATOM     30  O4  ASG d1198       8.947  15.017  -4.937  0.00  0.00    -0.246 OA
ATOM     31  C8  ASG d1198      10.499  10.563  -5.392  0.00  0.00    -0.003 C 
ATOM     32  C7  ASG d1198      10.605  10.392  -3.904  0.00  0.00     0.214 C 
ATOM     33  C1  ASG d1198       8.040  12.632  -2.721  0.00  0.00     0.154 C 
ATOM     34  OSC ASG d1198       8.249  16.171  -6.997  0.00  0.00    -0.572 OA
ATOM     35  O6  ASG d1198       8.770  17.343  -2.792  0.00  0.00    -0.398 OA
ATOM     36  C6  ASG d1198       7.795  16.341  -2.510  0.00  0.00     0.043 C 
ATOM     37  O5  ASG d1198       7.511  13.956  -2.844  0.00  0.00    -0.349 OA
ATOM     38  H   ASG d1198      10.750  13.497  -2.612  0.00  0.00     0.091 H 
ATOM     39  H   ASG d1198       8.883  12.344  -4.652  0.00  0.00     0.084 H 
ATOM     40  H   ASG d1198      10.043  11.177  -2.150  0.00  0.00     0.163 HD
ATOM     41  H   ASG d1198      10.251  15.739  -3.502  0.00  0.00     0.093 H 
ATOM     42  H   ASG d1198       8.937  14.811  -1.627  0.00  0.00     0.090 H 
ATOM     43  H   ASG d1198      11.034   9.775  -5.880  0.00  0.00     0.040 H 
ATOM     44  H   ASG d1198      10.919  11.506  -5.674  0.00  0.00     0.040 H 
ATOM     45  H   ASG d1198       9.471  10.528  -5.684  0.00  0.00     0.040 H 
ATOM     46  H   ASG d1198       8.372  12.471  -1.717  0.00  0.00     0.132 H 
ATOM     47  H   ASG d1198       8.355  18.219  -2.753  0.00  0.00     0.209 HD
ATOM     48  H   ASG d1198       7.391  16.494  -1.531  0.00  0.00     0.078 H 
ATOM     49  H   ASG d1198       6.998  16.390  -3.223  0.00  0.00     0.078 H 
ATOM     50  S   ASG d1196       1.722  11.322   2.700  0.00  0.00     0.252 S 
ATOM     51  OSB ASG d1196       0.618  12.193   2.236  0.00  0.00    -0.572 OA
ATOM     52  C7  ASG d1196      -0.783   7.906  -1.534  0.00  0.00     0.214 C 
ATOM     53  C6  ASG d1196       3.085   8.211   3.903  0.00  0.00     0.043 C 
ATOM     54  C8  ASG d1196      -1.617   8.932  -0.828  0.00  0.00    -0.003 C 
ATOM     55  O6  ASG d1196       2.625   7.188   4.792  0.00  0.00    -0.398 OA
ATOM     56  C1  ASG d1196       0.783   6.950   1.300  0.00  0.00     0.151 C 
ATOM     57  O4  ASG d1196       1.546   9.947   2.037  0.00  0.00    -0.246 OA
ATOM     58  C4  ASG d1196       2.617   9.114   1.574  0.00  0.00     0.114 C 
ATOM     59  C3  ASG d1196       2.177   8.693   0.177  0.00  0.00     0.094 C 
ATOM     60  C5  ASG d1196       2.582   7.900   2.499  0.00  0.00     0.090 C 
ATOM     61  OSA ASG d1196       3.018  11.931   2.320  0.00  0.00    -0.572 OA
ATOM     62  OSC ASG d1196       1.621  11.171   4.172  0.00  0.00    -0.572 OA
ATOM     63  C2  ASG d1196       0.762   8.134   0.331  0.00  0.00     0.087 C 
ATOM     64  O5  ASG d1196       1.247   7.394   2.573  0.00  0.00    -0.349 OA
ATOM     65  O1  ASG d1196      -0.543   6.438   1.466  0.00  0.00    -0.369 OA
ATOM     66  N   ASG d1196       0.362   7.556  -0.946  0.00  0.00    -0.349 N 
ATOM     67  O7  ASG d1196      -1.135   7.425  -2.599  0.00  0.00    -0.274 OA
ATOM     68  H   ASG d1196       2.705   9.160   4.219  0.00  0.00     0.078 H 
ATOM     69  H   ASG d1196       4.154   8.245   3.907  0.00  0.00     0.078 H 
ATOM     70  H   ASG d1196      -1.132   9.221   0.081  0.00  0.00     0.040 H 
ATOM     71  H   ASG d1196      -2.578   8.517  -0.604  0.00  0.00     0.040 H 
ATOM     72  H   ASG d1196      -1.737   9.789  -1.456  0.00  0.00     0.040 H 
ATOM     73  H   ASG d1196       1.655   7.163   4.782  0.00  0.00     0.209 HD
ATOM     74  H   ASG d1196       1.425   6.190   0.908  0.00  0.00     0.132 H 
ATOM     75  H   ASG d1196       3.588   9.564   1.563  0.00  0.00     0.093 H 
ATOM     76  H   ASG d1196       2.799   7.937  -0.257  0.00  0.00     0.091 H 
ATOM     77  H   ASG d1196       3.242   7.168   2.083  0.00  0.00     0.090 H 
ATOM     78  H   ASG d1196       0.116   8.918   0.666  0.00  0.00     0.084 H 
ATOM     79  H   ASG d1196      -1.117   7.134   1.821  0.00  0.00     0.212 HD
ATOM     80  H   ASG d1196       0.947   6.896  -1.382  0.00  0.00     0.163 HD
ATOM     81  O3  BDP d1199      15.976  13.786  -5.920  0.00  0.00    -0.393 OA
ATOM     82  O1  BDP d1199      11.292  13.501  -4.569  0.00  0.00    -0.348 OA
ATOM     83  O6A BDP d1199      13.778  16.629  -1.133  0.00  0.00    -0.646 OA
ATOM     84  C4  BDP d1199      15.105  15.126  -4.120  0.00  0.00    -0.005 C 
ATOM     85  O5  BDP d1199      12.799  14.762  -3.356  0.00  0.00    -0.343 OA
ATOM     86  C1  BDP d1199      12.650  13.550  -4.107  0.00  0.00     0.159 C 
ATOM     87  C5  BDP d1199      14.119  15.149  -2.956  0.00  0.00     0.127 C 
ATOM     88  C2  BDP d1199      13.651  13.456  -5.262  0.00  0.00     0.107 C 
ATOM     89  C3  BDP d1199      15.074  13.770  -4.806  0.00  0.00     0.068 C 
ATOM     90  C6  BDP d1199      14.053  16.523  -2.350  0.00  0.00     0.203 C 
ATOM     91  O2  BDP d1199      13.618  12.134  -5.806  0.00  0.00    -0.388 OA
ATOM     92  O6B BDP d1199      14.255  17.515  -3.083  0.00  0.00    -0.646 OA
ATOM     93  H   BDP d1199      16.872  13.987  -5.608  0.00  0.00     0.210 HD
ATOM     94  H   BDP d1199      14.836  15.886  -4.825  0.00  0.00     0.041 H 
ATOM     95  H   BDP d1199      16.090  15.307  -3.746  0.00  0.00     0.041 H 
ATOM     96  H   BDP d1199      12.862  12.705  -3.485  0.00  0.00     0.133 H 
ATOM     97  H   BDP d1199      14.478  14.441  -2.238  0.00  0.00     0.100 H 
ATOM     98  H   BDP d1199      13.372  14.179  -6.001  0.00  0.00     0.094 H 
ATOM     99  H   BDP d1199      15.384  13.006  -4.123  0.00  0.00     0.087 H 
ATOM    100  H   BDP d1199      13.874  11.497  -5.122  0.00  0.00     0.210 HD
ENDROOT
TORSDOF 25
ENDMDL
MODEL 45
REMARK VINA RESULT:      -4.0      3.672      6.384
REMARK  0 active torsions:
REMARK  status: ('A' for Active; 'I' for Inactive)
REMARK       I    between atoms: C5_1  and  C6_46 
REMARK       I    between atoms: O1_2  and  C4_60 
REMARK       I    between atoms: O1_2  and  C1_47 
REMARK       I    between atoms: S_3  and  O4_24 
REMARK       I    between atoms: C7_6  and  C8_11 
REMARK       I    between atoms: C7_6  and  N_48 
REMARK       I    between atoms: O3_7  and  C3_41 
REMARK       I    between atoms: O1_9  and  C3_31 
REMARK       I    between atoms: O1_9  and  C1_19 
REMARK       I    between atoms: C6_10  and  C5_34 
REMARK       I    between atoms: C6_10  and  O6_12 
REMARK       I    between atoms: C3_13  and  O1_16 
REMARK       I    between atoms: C2_14  and  N_20 
REMARK       I    between atoms: C1_15  and  O1_45 
REMARK       I    between atoms: O1_16  and  C1_29 
REMARK       I    between atoms: S_17  and  O4_30 
REMARK       I    between atoms: N_20  and  C7_40 
REMARK       I    between atoms: C4_22  and  O4_30 
REMARK       I    between atoms: O4_24  and  C4_28 
REMARK       I    between atoms: C5_25  and  C6_55 
REMARK       I    between atoms: C2_32  and  O2_39 
REMARK       I    between atoms: C5_33  and  C6_51 
REMARK       I    between atoms: C2_36  and  O2_56 
REMARK       I    between atoms: C8_37  and  C7_40 
REMARK       I    between atoms: C2_43  and  N_48 
REMARK       I    between atoms: C3_50  and  O3_53 
REMARK       I    between atoms: O6_54  and  C6_55 
ROOT
ATOM      1  C5  BDP d1197       9.734  11.257   0.403  0.00  0.00     0.152 C 
ATOM      2  O1  BDP d1197      12.663  13.391   1.155  0.00  0.00    -0.348 OA
ATOM      3  C1  BDP d1197      11.266  13.036   1.152  0.00  0.00     0.160 C 
ATOM      4  O5  BDP d1197      11.074  11.697   0.678  0.00  0.00    -0.340 OA
ATOM      5  C2  BDP d1197      10.519  14.038   0.271  0.00  0.00     0.110 C 
ATOM      6  O6A BDP d1197       9.294   8.939   0.137  0.00  0.00    -0.646 OA
ATOM      7  O2  BDP d1197      10.545  15.329   0.895  0.00  0.00    -0.388 OA
ATOM      8  C6  BDP d1197       9.847   9.957  -0.335  0.00  0.00     0.206 C 
ATOM      9  C3  BDP d1197       9.071  13.646  -0.032  0.00  0.00     0.092 C 
ATOM     10  O6B BDP d1197      10.486   9.955  -1.409  0.00  0.00    -0.646 OA
ATOM     11  O3  BDP d1197       8.587  14.512  -1.067  0.00  0.00    -0.390 OA
ATOM     12  C4  BDP d1197       8.935  12.197  -0.498  0.00  0.00     0.103 C 
ATOM     13  H   BDP d1197       9.223  11.200   1.341  0.00  0.00     0.104 H 
ATOM     14  H   BDP d1197      10.884  13.072   2.151  0.00  0.00     0.133 H 
ATOM     15  H   BDP d1197      11.027  14.050  -0.671  0.00  0.00     0.094 H 
ATOM     16  H   BDP d1197      10.078  15.287   1.744  0.00  0.00     0.210 HD
ATOM     17  H   BDP d1197       8.505  13.741   0.871  0.00  0.00     0.091 H 
ATOM     18  H   BDP d1197       9.125  14.395  -1.865  0.00  0.00     0.210 HD
ATOM     19  H   BDP d1197       9.320  12.133  -1.495  0.00  0.00     0.092 H 
ATOM     20  O1  ASG d1198       7.547  11.799  -0.488  0.00  0.00    -0.348 OA
ATOM     21  O7  ASG d1198       5.004   8.027   1.008  0.00  0.00    -0.274 OA
ATOM     22  OSB ASG d1198       1.865  12.495  -3.575  0.00  0.00    -0.572 OA
ATOM     23  C3  ASG d1198       4.741  10.285  -2.570  0.00  0.00     0.094 C 
ATOM     24  C2  ASG d1198       5.532  10.691  -1.316  0.00  0.00     0.087 C 
ATOM     25  S   ASG d1198       3.108  13.242  -3.867  0.00  0.00     0.252 S 
ATOM     26  N   ASG d1198       5.666   9.437  -0.581  0.00  0.00    -0.349 N 
ATOM     27  OSA ASG d1198       3.323  13.270  -5.331  0.00  0.00    -0.572 OA
ATOM     28  C4  ASG d1198       4.880  11.342  -3.658  0.00  0.00     0.114 C 
ATOM     29  C5  ASG d1198       6.365  11.585  -3.912  0.00  0.00     0.090 C 
ATOM     30  O4  ASG d1198       4.292  12.550  -3.164  0.00  0.00    -0.246 OA
ATOM     31  C8  ASG d1198       3.781  10.052   0.831  0.00  0.00    -0.003 C 
ATOM     32  C7  ASG d1198       4.860   9.088   0.427  0.00  0.00     0.214 C 
ATOM     33  C1  ASG d1198       6.967  11.159  -1.637  0.00  0.00     0.154 C 
ATOM     34  OSC ASG d1198       2.983  14.627  -3.356  0.00  0.00    -0.572 OA
ATOM     35  O6  ASG d1198       5.582  12.320  -6.050  0.00  0.00    -0.398 OA
ATOM     36  C6  ASG d1198       6.599  12.543  -5.074  0.00  0.00     0.043 C 
ATOM     37  O5  ASG d1198       6.969  12.095  -2.719  0.00  0.00    -0.349 OA
ATOM     38  H   ASG d1198       5.163   9.364  -2.913  0.00  0.00     0.091 H 
ATOM     39  H   ASG d1198       5.037  11.492  -0.807  0.00  0.00     0.084 H 
ATOM     40  H   ASG d1198       6.385   8.818  -0.840  0.00  0.00     0.163 HD
ATOM     41  H   ASG d1198       4.402  11.029  -4.563  0.00  0.00     0.093 H 
ATOM     42  H   ASG d1198       6.814  10.651  -4.181  0.00  0.00     0.090 H 
ATOM     43  H   ASG d1198       3.221   9.640   1.644  0.00  0.00     0.040 H 
ATOM     44  H   ASG d1198       3.130  10.227   0.001  0.00  0.00     0.040 H 
ATOM     45  H   ASG d1198       4.225  10.976   1.137  0.00  0.00     0.040 H 
ATOM     46  H   ASG d1198       7.537  10.296  -1.910  0.00  0.00     0.132 H 
ATOM     47  H   ASG d1198       5.715  12.922  -6.799  0.00  0.00     0.209 HD
ATOM     48  H   ASG d1198       7.561  12.359  -5.505  0.00  0.00     0.078 H 
ATOM     49  H   ASG d1198       6.564  13.555  -4.729  0.00  0.00     0.078 H 
ATOM     50  S   ASG d1196      15.291  12.450  -1.379  0.00  0.00     0.252 S 
ATOM     51  OSB ASG d1196      15.487  13.847  -1.827  0.00  0.00    -0.572 OA
ATOM     52  C7  ASG d1196      14.346  15.470   3.707  0.00  0.00     0.214 C 
ATOM     53  C6  ASG d1196      15.895   9.653   0.812  0.00  0.00     0.043 C 
ATOM     54  C8  ASG d1196      15.218  16.070   2.646  0.00  0.00    -0.003 C 
ATOM     55  O6  ASG d1196      17.042   9.144   1.501  0.00  0.00    -0.398 OA
ATOM     56  C1  ASG d1196      15.646  12.381   3.293  0.00  0.00     0.151 C 
ATOM     57  O4  ASG d1196      15.160  12.462   0.153  0.00  0.00    -0.246 OA
ATOM     58  C4  ASG d1196      14.284  11.616   0.910  0.00  0.00     0.114 C 
ATOM     59  C3  ASG d1196      13.596  12.571   1.877  0.00  0.00     0.094 C 
ATOM     60  C5  ASG d1196      15.222  10.698   1.691  0.00  0.00     0.090 C 
ATOM     61  OSA ASG d1196      14.069  11.900  -2.010  0.00  0.00    -0.572 OA
ATOM     62  OSC ASG d1196      16.486  11.657  -1.760  0.00  0.00    -0.572 OA
ATOM     63  C2  ASG d1196      14.716  13.354   2.564  0.00  0.00     0.087 C 
ATOM     64  O5  ASG d1196      16.221  11.484   2.347  0.00  0.00    -0.349 OA
ATOM     65  O1  ASG d1196      16.709  13.106   3.920  0.00  0.00    -0.369 OA
ATOM     66  N   ASG d1196      14.122  14.157   3.626  0.00  0.00    -0.349 N 
ATOM     67  O7  ASG d1196      13.862  16.153   4.594  0.00  0.00    -0.274 OA
ATOM     68  H   ASG d1196      16.199  10.101  -0.112  0.00  0.00     0.078 H 
ATOM     69  H   ASG d1196      15.211   8.857   0.604  0.00  0.00     0.078 H 
ATOM     70  H   ASG d1196      15.536  15.304   1.970  0.00  0.00     0.040 H 
ATOM     71  H   ASG d1196      16.074  16.523   3.101  0.00  0.00     0.040 H 
ATOM     72  H   ASG d1196      14.666  16.813   2.108  0.00  0.00     0.040 H 
ATOM     73  H   ASG d1196      17.657   9.871   1.686  0.00  0.00     0.209 HD
ATOM     74  H   ASG d1196      15.083  11.845   4.028  0.00  0.00     0.132 H 
ATOM     75  H   ASG d1196      13.574  11.050   0.342  0.00  0.00     0.093 H 
ATOM     76  H   ASG d1196      13.014  12.075   2.626  0.00  0.00     0.091 H 
ATOM     77  H   ASG d1196      14.625  10.173   2.406  0.00  0.00     0.090 H 
ATOM     78  H   ASG d1196      15.235  13.933   1.830  0.00  0.00     0.084 H 
ATOM     79  H   ASG d1196      17.212  13.589   3.246  0.00  0.00     0.212 HD
ATOM     80  H   ASG d1196      13.544  13.724   4.294  0.00  0.00     0.163 HD
ATOM     81  O3  BDP d1199      -0.696   7.364  -2.828  0.00  0.00    -0.393 OA
ATOM     82  O1  BDP d1199       3.352  10.042  -2.293  0.00  0.00    -0.348 OA
ATOM     83  O6A BDP d1199       3.764   7.376  -6.819  0.00  0.00    -0.646 OA
ATOM     84  C4  BDP d1199       0.960   7.498  -4.570  0.00  0.00    -0.005 C 
ATOM     85  O5  BDP d1199       3.068   8.682  -4.138  0.00  0.00    -0.343 OA
ATOM     86  C1  BDP d1199       2.824   8.780  -2.728  0.00  0.00     0.159 C 
ATOM     87  C5  BDP d1199       2.455   7.604  -4.854  0.00  0.00     0.127 C 
ATOM     88  C2  BDP d1199       1.338   8.633  -2.385  0.00  0.00     0.107 C 
ATOM     89  C3  BDP d1199       0.716   7.420  -3.072  0.00  0.00     0.068 C 
ATOM     90  C6  BDP d1199       2.698   7.806  -6.323  0.00  0.00     0.203 C 
ATOM     91  O2  BDP d1199       1.195   8.490  -0.969  0.00  0.00    -0.388 OA
ATOM     92  O6B BDP d1199       1.838   8.411  -6.999  0.00  0.00    -0.646 OA
ATOM     93  H   BDP d1199      -1.070   6.587  -3.273  0.00  0.00     0.210 HD
ATOM     94  H   BDP d1199       0.464   8.361  -4.965  0.00  0.00     0.041 H 
ATOM     95  H   BDP d1199       0.579   6.613  -5.034  0.00  0.00     0.041 H 
ATOM     96  H   BDP d1199       3.310   7.976  -2.215  0.00  0.00     0.133 H 
ATOM     97  H   BDP d1199       2.894   6.684  -4.525  0.00  0.00     0.100 H 
ATOM     98  H   BDP d1199       0.830   9.509  -2.732  0.00  0.00     0.094 H 
ATOM     99  H   BDP d1199       1.170   6.538  -2.671  0.00  0.00     0.087 H 
ATOM    100  H   BDP d1199       1.662   7.692  -0.676  0.00  0.00     0.210 HD
ENDROOT
TORSDOF 25
ENDMDL
MODEL 46
REMARK VINA RESULT:      -4.0      3.000     12.521
REMARK  0 active torsions:
REMARK  status: ('A' for Active; 'I' for Inactive)
REMARK       I    between atoms: C5_1  and  C6_46 
REMARK       I    between atoms: O1_2  and  C4_60 
REMARK       I    between atoms: O1_2  and  C1_47 
REMARK       I    between atoms: S_3  and  O4_24 
REMARK       I    between atoms: C7_6  and  C8_11 
REMARK       I    between atoms: C7_6  and  N_48 
REMARK       I    between atoms: O3_7  and  C3_41 
REMARK       I    between atoms: O1_9  and  C3_31 
REMARK       I    between atoms: O1_9  and  C1_19 
REMARK       I    between atoms: C6_10  and  C5_34 
REMARK       I    between atoms: C6_10  and  O6_12 
REMARK       I    between atoms: C3_13  and  O1_16 
REMARK       I    between atoms: C2_14  and  N_20 
REMARK       I    between atoms: C1_15  and  O1_45 
REMARK       I    between atoms: O1_16  and  C1_29 
REMARK       I    between atoms: S_17  and  O4_30 
REMARK       I    between atoms: N_20  and  C7_40 
REMARK       I    between atoms: C4_22  and  O4_30 
REMARK       I    between atoms: O4_24  and  C4_28 
REMARK       I    between atoms: C5_25  and  C6_55 
REMARK       I    between atoms: C2_32  and  O2_39 
REMARK       I    between atoms: C5_33  and  C6_51 
REMARK       I    between atoms: C2_36  and  O2_56 
REMARK       I    between atoms: C8_37  and  C7_40 
REMARK       I    between atoms: C2_43  and  N_48 
REMARK       I    between atoms: C3_50  and  O3_53 
REMARK       I    between atoms: O6_54  and  C6_55 
ROOT
ATOM      1  C5  BDP d1197       4.795  11.400  -0.433  0.00  0.00     0.152 C 
ATOM      2  O1  BDP d1197       1.695  12.978  -1.697  0.00  0.00    -0.348 OA
ATOM      3  C1  BDP d1197       2.763  12.011  -1.688  0.00  0.00     0.160 C 
ATOM      4  O5  BDP d1197       3.562  12.135  -0.504  0.00  0.00    -0.340 OA
ATOM      5  C2  BDP d1197       3.613  12.221  -2.942  0.00  0.00     0.110 C 
ATOM      6  O6A BDP d1197       5.882  11.136   1.662  0.00  0.00    -0.646 OA
ATOM      7  O2  BDP d1197       2.842  11.871  -4.100  0.00  0.00    -0.388 OA
ATOM      8  C6  BDP d1197       5.547  11.927   0.752  0.00  0.00     0.206 C 
ATOM      9  C3  BDP d1197       4.926  11.436  -2.946  0.00  0.00     0.092 C 
ATOM     10  O6B BDP d1197       5.819  13.147   0.769  0.00  0.00    -0.646 OA
ATOM     11  O3  BDP d1197       5.730  11.928  -4.027  0.00  0.00    -0.390 OA
ATOM     12  C4  BDP d1197       5.710  11.585  -1.642  0.00  0.00     0.103 C 
ATOM     13  H   BDP d1197       4.539  10.363  -0.379  0.00  0.00     0.104 H 
ATOM     14  H   BDP d1197       2.353  11.022  -1.686  0.00  0.00     0.133 H 
ATOM     15  H   BDP d1197       3.884  13.256  -2.953  0.00  0.00     0.094 H 
ATOM     16  H   BDP d1197       2.611  10.930  -4.062  0.00  0.00     0.210 HD
ATOM     17  H   BDP d1197       4.693  10.398  -3.057  0.00  0.00     0.091 H 
ATOM     18  H   BDP d1197       5.918  12.870  -3.888  0.00  0.00     0.210 HD
ATOM     19  H   BDP d1197       6.123  12.572  -1.616  0.00  0.00     0.092 H 
ATOM     20  O1  ASG d1198       6.774  10.612  -1.587  0.00  0.00    -0.348 OA
ATOM     21  O7  ASG d1198       8.529   7.532   1.634  0.00  0.00    -0.274 OA
ATOM     22  OSB ASG d1198      12.617   9.080  -3.997  0.00  0.00    -0.572 OA
ATOM     23  C3  ASG d1198      10.514  10.135  -1.059  0.00  0.00     0.094 C 
ATOM     24  C2  ASG d1198       9.020   9.778  -1.103  0.00  0.00     0.087 C 
ATOM     25  S   ASG d1198      11.751  10.187  -4.460  0.00  0.00     0.252 S 
ATOM     26  N   ASG d1198       8.761   9.243   0.230  0.00  0.00    -0.349 N 
ATOM     27  OSA ASG d1198      12.571  11.408  -4.622  0.00  0.00    -0.572 OA
ATOM     28  C4  ASG d1198      10.869  11.100  -2.183  0.00  0.00     0.114 C 
ATOM     29  C5  ASG d1198       9.941  12.307  -2.097  0.00  0.00     0.090 C 
ATOM     30  O4  ASG d1198      10.636  10.424  -3.423  0.00  0.00    -0.246 OA
ATOM     31  C8  ASG d1198       8.973   6.976  -0.629  0.00  0.00    -0.003 C 
ATOM     32  C7  ASG d1198       8.741   7.934   0.504  0.00  0.00     0.214 C 
ATOM     33  C1  ASG d1198       8.112  11.017  -1.254  0.00  0.00     0.154 C 
ATOM     34  OSC ASG d1198      11.137   9.824  -5.758  0.00  0.00    -0.572 OA
ATOM     35  O6  ASG d1198      11.723  13.396  -3.263  0.00  0.00    -0.398 OA
ATOM     36  C6  ASG d1198      10.304  13.384  -3.112  0.00  0.00     0.043 C 
ATOM     37  O5  ASG d1198       8.591  11.877  -2.293  0.00  0.00    -0.349 OA
ATOM     38  H   ASG d1198      10.689  10.608  -0.116  0.00  0.00     0.091 H 
ATOM     39  H   ASG d1198       8.817   9.126  -1.926  0.00  0.00     0.084 H 
ATOM     40  H   ASG d1198       8.594   9.876   0.964  0.00  0.00     0.163 HD
ATOM     41  H   ASG d1198      11.889  11.418  -2.109  0.00  0.00     0.093 H 
ATOM     42  H   ASG d1198      10.050  12.743  -1.125  0.00  0.00     0.090 H 
ATOM     43  H   ASG d1198       8.928   5.972  -0.262  0.00  0.00     0.040 H 
ATOM     44  H   ASG d1198       9.936   7.156  -1.058  0.00  0.00     0.040 H 
ATOM     45  H   ASG d1198       8.219   7.116  -1.375  0.00  0.00     0.040 H 
ATOM     46  H   ASG d1198       8.122  11.542  -0.323  0.00  0.00     0.132 H 
ATOM     47  H   ASG d1198      11.975  14.077  -3.906  0.00  0.00     0.209 HD
ATOM     48  H   ASG d1198       9.970  14.339  -2.762  0.00  0.00     0.078 H 
ATOM     49  H   ASG d1198       9.835  13.178  -4.051  0.00  0.00     0.078 H 
ATOM     50  S   ASG d1196       1.799  16.548  -0.491  0.00  0.00     0.252 S 
ATOM     51  OSB ASG d1196       1.599  17.107  -1.847  0.00  0.00    -0.572 OA
ATOM     52  C7  ASG d1196      -1.723  12.390  -2.976  0.00  0.00     0.214 C 
ATOM     53  C6  ASG d1196       0.643  15.156   2.625  0.00  0.00     0.043 C 
ATOM     54  C8  ASG d1196      -1.779  13.800  -3.483  0.00  0.00    -0.003 C 
ATOM     55  O6  ASG d1196      -0.485  15.391   3.475  0.00  0.00    -0.398 OA
ATOM     56  C1  ASG d1196      -1.551  13.357   0.255  0.00  0.00     0.151 C 
ATOM     57  O4  ASG d1196       0.865  15.338  -0.338  0.00  0.00    -0.246 OA
ATOM     58  C4  ASG d1196       1.190  14.131   0.365  0.00  0.00     0.114 C 
ATOM     59  C3  ASG d1196       0.775  13.023  -0.595  0.00  0.00     0.094 C 
ATOM     60  C5  ASG d1196       0.253  14.129   1.571  0.00  0.00     0.090 C 
ATOM     61  OSA ASG d1196       3.216  16.146  -0.331  0.00  0.00    -0.572 OA
ATOM     62  OSC ASG d1196       1.427  17.581   0.508  0.00  0.00    -0.572 OA
ATOM     63  C2  ASG d1196      -0.668  13.331  -0.995  0.00  0.00     0.087 C 
ATOM     64  O5  ASG d1196      -1.086  14.378   1.135  0.00  0.00    -0.349 OA
ATOM     65  O1  ASG d1196      -2.899  13.668  -0.112  0.00  0.00    -0.369 OA
ATOM     66  N   ASG d1196      -1.171  12.207  -1.775  0.00  0.00    -0.349 N 
ATOM     67  O7  ASG d1196      -2.156  11.460  -3.636  0.00  0.00    -0.274 OA
ATOM     68  H   ASG d1196       0.931  16.070   2.149  0.00  0.00     0.078 H 
ATOM     69  H   ASG d1196       1.465  14.790   3.203  0.00  0.00     0.078 H 
ATOM     70  H   ASG d1196      -1.350  14.457  -2.755  0.00  0.00     0.040 H 
ATOM     71  H   ASG d1196      -2.797  14.076  -3.657  0.00  0.00     0.040 H 
ATOM     72  H   ASG d1196      -1.228  13.872  -4.397  0.00  0.00     0.040 H 
ATOM     73  H   ASG d1196      -1.227  15.722   2.944  0.00  0.00     0.209 HD
ATOM     74  H   ASG d1196      -1.509  12.401   0.731  0.00  0.00     0.132 H 
ATOM     75  H   ASG d1196       2.211  14.027   0.669  0.00  0.00     0.093 H 
ATOM     76  H   ASG d1196       0.810  12.045  -0.160  0.00  0.00     0.091 H 
ATOM     77  H   ASG d1196       0.328  13.164   2.027  0.00  0.00     0.090 H 
ATOM     78  H   ASG d1196      -0.690  14.261  -1.524  0.00  0.00     0.084 H 
ATOM     79  H   ASG d1196      -2.925  14.536  -0.543  0.00  0.00     0.212 HD
ATOM     80  H   ASG d1196      -1.103  11.295  -1.410  0.00  0.00     0.163 HD
ATOM     81  O3  BDP d1199      15.238   6.443   0.432  0.00  0.00    -0.393 OA
ATOM     82  O1  BDP d1199      11.362   8.975  -1.119  0.00  0.00    -0.348 OA
ATOM     83  O6A BDP d1199      14.791  12.387   0.970  0.00  0.00    -0.646 OA
ATOM     84  C4  BDP d1199      15.212   8.850   0.473  0.00  0.00    -0.005 C 
ATOM     85  O5  BDP d1199      13.145  10.041  -0.112  0.00  0.00    -0.343 OA
ATOM     86  C1  BDP d1199      12.349   8.849  -0.085  0.00  0.00     0.159 C 
ATOM     87  C5  BDP d1199      14.331  10.076   0.691  0.00  0.00     0.127 C 
ATOM     88  C2  BDP d1199      13.194   7.582  -0.252  0.00  0.00     0.107 C 
ATOM     89  C3  BDP d1199      14.402   7.580   0.682  0.00  0.00     0.068 C 
ATOM     90  C6  BDP d1199      15.091  11.332   0.366  0.00  0.00     0.203 C 
ATOM     91  O2  BDP d1199      12.384   6.438   0.032  0.00  0.00    -0.388 OA
ATOM     92  O6B BDP d1199      15.985  11.289  -0.507  0.00  0.00    -0.646 OA
ATOM     93  H   BDP d1199      15.997   6.462   1.035  0.00  0.00     0.210 HD
ATOM     94  H   BDP d1199      15.598   8.864  -0.525  0.00  0.00     0.041 H 
ATOM     95  H   BDP d1199      16.018   8.870   1.177  0.00  0.00     0.041 H 
ATOM     96  H   BDP d1199      11.876   8.745   0.870  0.00  0.00     0.133 H 
ATOM     97  H   BDP d1199      14.045  10.068   1.722  0.00  0.00     0.100 H 
ATOM     98  H   BDP d1199      13.552   7.555  -1.259  0.00  0.00     0.094 H 
ATOM     99  H   BDP d1199      14.047   7.532   1.690  0.00  0.00     0.087 H 
ATOM    100  H   BDP d1199      12.071   6.483   0.949  0.00  0.00     0.210 HD
ENDROOT
TORSDOF 25
ENDMDL
MODEL 47
REMARK VINA RESULT:      -4.0      1.860      2.108
REMARK  0 active torsions:
REMARK  status: ('A' for Active; 'I' for Inactive)
REMARK       I    between atoms: C5_1  and  C6_46 
REMARK       I    between atoms: O1_2  and  C4_60 
REMARK       I    between atoms: O1_2  and  C1_47 
REMARK       I    between atoms: S_3  and  O4_24 
REMARK       I    between atoms: C7_6  and  C8_11 
REMARK       I    between atoms: C7_6  and  N_48 
REMARK       I    between atoms: O3_7  and  C3_41 
REMARK       I    between atoms: O1_9  and  C3_31 
REMARK       I    between atoms: O1_9  and  C1_19 
REMARK       I    between atoms: C6_10  and  C5_34 
REMARK       I    between atoms: C6_10  and  O6_12 
REMARK       I    between atoms: C3_13  and  O1_16 
REMARK       I    between atoms: C2_14  and  N_20 
REMARK       I    between atoms: C1_15  and  O1_45 
REMARK       I    between atoms: O1_16  and  C1_29 
REMARK       I    between atoms: S_17  and  O4_30 
REMARK       I    between atoms: N_20  and  C7_40 
REMARK       I    between atoms: C4_22  and  O4_30 
REMARK       I    between atoms: O4_24  and  C4_28 
REMARK       I    between atoms: C5_25  and  C6_55 
REMARK       I    between atoms: C2_32  and  O2_39 
REMARK       I    between atoms: C5_33  and  C6_51 
REMARK       I    between atoms: C2_36  and  O2_56 
REMARK       I    between atoms: C8_37  and  C7_40 
REMARK       I    between atoms: C2_43  and  N_48 
REMARK       I    between atoms: C3_50  and  O3_53 
REMARK       I    between atoms: O6_54  and  C6_55 
ROOT
ATOM      1  C5  BDP d1197       6.853   9.981  -1.669  0.00  0.00     0.152 C 
ATOM      2  O1  BDP d1197      10.126   9.610   0.020  0.00  0.00    -0.348 OA
ATOM      3  C1  BDP d1197       8.877   9.150  -0.534  0.00  0.00     0.160 C 
ATOM      4  O5  BDP d1197       8.208  10.202  -1.242  0.00  0.00    -0.340 OA
ATOM      5  C2  BDP d1197       8.009   8.626   0.611  0.00  0.00     0.110 C 
ATOM      6  O6A BDP d1197       5.882  11.431  -3.279  0.00  0.00    -0.646 OA
ATOM      7  O2  BDP d1197       8.604   7.439   1.151  0.00  0.00    -0.388 OA
ATOM      8  C6  BDP d1197       6.316  11.308  -2.112  0.00  0.00     0.206 C 
ATOM      9  C3  BDP d1197       6.560   8.336   0.213  0.00  0.00     0.092 C 
ATOM     10  O6B BDP d1197       6.315  12.240  -1.278  0.00  0.00    -0.646 OA
ATOM     11  O3  BDP d1197       5.808   8.119   1.415  0.00  0.00    -0.390 OA
ATOM     12  C4  BDP d1197       5.919   9.483  -0.568  0.00  0.00     0.103 C 
ATOM     13  H   BDP d1197       6.883   9.230  -2.430  0.00  0.00     0.104 H 
ATOM     14  H   BDP d1197       9.064   8.367  -1.239  0.00  0.00     0.133 H 
ATOM     15  H   BDP d1197       7.967   9.407   1.341  0.00  0.00     0.094 H 
ATOM     16  H   BDP d1197       8.629   6.750   0.468  0.00  0.00     0.210 HD
ATOM     17  H   BDP d1197       6.555   7.478  -0.426  0.00  0.00     0.091 H 
ATOM     18  H   BDP d1197       5.837   8.918   1.964  0.00  0.00     0.210 HD
ATOM     19  H   BDP d1197       5.731  10.284   0.116  0.00  0.00     0.092 H 
ATOM     20  O1  ASG d1198       4.677   9.048  -1.160  0.00  0.00    -0.348 OA
ATOM     21  O7  ASG d1198       2.525   9.401  -5.425  0.00  0.00    -0.274 OA
ATOM     22  OSB ASG d1198      -1.512   7.530   0.145  0.00  0.00    -0.572 OA
ATOM     23  C3  ASG d1198       0.966   9.832  -1.507  0.00  0.00     0.094 C 
ATOM     24  C2  ASG d1198       2.342   9.244  -1.859  0.00  0.00     0.087 C 
ATOM     25  S   ASG d1198      -0.461   7.825   1.145  0.00  0.00     0.252 S 
ATOM     26  N   ASG d1198       2.570   9.712  -3.222  0.00  0.00    -0.349 N 
ATOM     27  OSA ASG d1198      -1.009   8.749   2.163  0.00  0.00    -0.572 OA
ATOM     28  C4  ASG d1198       0.751   9.829   0.001  0.00  0.00     0.114 C 
ATOM     29  C5  ASG d1198       1.922  10.553   0.660  0.00  0.00     0.090 C 
ATOM     30  O4  ASG d1198       0.747   8.466   0.435  0.00  0.00    -0.246 OA
ATOM     31  C8  ASG d1198       1.817   7.569  -4.094  0.00  0.00    -0.003 C 
ATOM     32  C7  ASG d1198       2.327   8.966  -4.304  0.00  0.00     0.214 C 
ATOM     33  C1  ASG d1198       3.483   9.834  -1.002  0.00  0.00     0.154 C 
ATOM     34  OSC ASG d1198      -0.032   6.566   1.794  0.00  0.00    -0.572 OA
ATOM     35  O6  ASG d1198       0.340  10.902   2.420  0.00  0.00    -0.398 OA
ATOM     36  C6  ASG d1198       1.730  10.705   2.164  0.00  0.00     0.043 C 
ATOM     37  O5  ASG d1198       3.130   9.839   0.384  0.00  0.00    -0.349 OA
ATOM     38  H   ASG d1198       0.963  10.840  -1.864  0.00  0.00     0.091 H 
ATOM     39  H   ASG d1198       2.342   8.185  -1.712  0.00  0.00     0.084 H 
ATOM     40  H   ASG d1198       2.921  10.622  -3.352  0.00  0.00     0.163 HD
ATOM     41  H   ASG d1198      -0.168  10.314   0.260  0.00  0.00     0.093 H 
ATOM     42  H   ASG d1198       1.976  11.540   0.250  0.00  0.00     0.090 H 
ATOM     43  H   ASG d1198       1.669   7.097  -5.043  0.00  0.00     0.040 H 
ATOM     44  H   ASG d1198       0.887   7.604  -3.565  0.00  0.00     0.040 H 
ATOM     45  H   ASG d1198       2.530   7.010  -3.525  0.00  0.00     0.040 H 
ATOM     46  H   ASG d1198       3.651  10.837  -1.333  0.00  0.00     0.132 H 
ATOM     47  H   ASG d1198       0.197  11.001   3.374  0.00  0.00     0.209 HD
ATOM     48  H   ASG d1198       2.285  11.549   2.516  0.00  0.00     0.078 H 
ATOM     49  H   ASG d1198       2.077   9.829   2.670  0.00  0.00     0.078 H 
ATOM     50  S   ASG d1196      10.877  12.976   1.543  0.00  0.00     0.252 S 
ATOM     51  OSB ASG d1196      11.099  12.415   2.895  0.00  0.00    -0.572 OA
ATOM     52  C7  ASG d1196      13.240   7.631   0.233  0.00  0.00     0.214 C 
ATOM     53  C6  ASG d1196      11.919  13.857  -1.792  0.00  0.00     0.043 C 
ATOM     54  C8  ASG d1196      13.563   8.276   1.547  0.00  0.00    -0.003 C 
ATOM     55  O6  ASG d1196      13.126  14.368  -2.367  0.00  0.00    -0.398 OA
ATOM     56  C1  ASG d1196      13.504  10.534  -1.472  0.00  0.00     0.151 C 
ATOM     57  O4  ASG d1196      11.537  12.030   0.528  0.00  0.00    -0.246 OA
ATOM     58  C4  ASG d1196      11.008  11.717  -0.768  0.00  0.00     0.114 C 
ATOM     59  C3  ASG d1196      11.107  10.199  -0.848  0.00  0.00     0.094 C 
ATOM     60  C5  ASG d1196      12.004  12.338  -1.745  0.00  0.00     0.090 C 
ATOM     61  OSA ASG d1196       9.421  13.089   1.293  0.00  0.00    -0.572 OA
ATOM     62  OSC ASG d1196      11.531  14.306   1.468  0.00  0.00    -0.572 OA
ATOM     63  C2  ASG d1196      12.552   9.851  -0.487  0.00  0.00     0.087 C 
ATOM     64  O5  ASG d1196      13.332  11.946  -1.387  0.00  0.00    -0.349 OA
ATOM     65  O1  ASG d1196      14.858  10.230  -1.125  0.00  0.00    -0.369 OA
ATOM     66  N   ASG d1196      12.746   8.425  -0.718  0.00  0.00    -0.349 N 
ATOM     67  O7  ASG d1196      13.416   6.438   0.051  0.00  0.00    -0.274 OA
ATOM     68  H   ASG d1196      11.802  14.242  -0.800  0.00  0.00     0.078 H 
ATOM     69  H   ASG d1196      11.078  14.157  -2.382  0.00  0.00     0.078 H 
ATOM     70  H   ASG d1196      13.338   9.321   1.496  0.00  0.00     0.040 H 
ATOM     71  H   ASG d1196      14.603   8.145   1.763  0.00  0.00     0.040 H 
ATOM     72  H   ASG d1196      12.980   7.822   2.321  0.00  0.00     0.040 H 
ATOM     73  H   ASG d1196      13.884  14.092  -1.826  0.00  0.00     0.209 HD
ATOM     74  H   ASG d1196      13.290  10.186  -2.461  0.00  0.00     0.132 H 
ATOM     75  H   ASG d1196      10.013  12.058  -0.962  0.00  0.00     0.093 H 
ATOM     76  H   ASG d1196      10.893   9.807  -1.821  0.00  0.00     0.091 H 
ATOM     77  H   ASG d1196      11.754  11.978  -2.721  0.00  0.00     0.090 H 
ATOM     78  H   ASG d1196      12.737  10.148   0.524  0.00  0.00     0.084 H 
ATOM     79  H   ASG d1196      15.041  10.549  -0.227  0.00  0.00     0.212 HD
ATOM     80  H   ASG d1196      12.508   8.040  -1.592  0.00  0.00     0.163 HD
ATOM     81  O3  BDP d1199      -4.327   9.191  -4.626  0.00  0.00    -0.393 OA
ATOM     82  O1  BDP d1199      -0.113   9.143  -2.160  0.00  0.00    -0.348 OA
ATOM     83  O6A BDP d1199      -2.573  13.673  -1.069  0.00  0.00    -0.646 OA
ATOM     84  C4  BDP d1199      -3.780  10.918  -3.041  0.00  0.00    -0.005 C 
ATOM     85  O5  BDP d1199      -1.551  10.944  -2.011  0.00  0.00    -0.343 OA
ATOM     86  C1  BDP d1199      -1.030   9.955  -2.909  0.00  0.00     0.159 C 
ATOM     87  C5  BDP d1199      -2.643  11.754  -2.461  0.00  0.00     0.127 C 
ATOM     88  C2  BDP d1199      -2.138   9.118  -3.556  0.00  0.00     0.107 C 
ATOM     89  C3  BDP d1199      -3.251   9.994  -4.126  0.00  0.00     0.068 C 
ATOM     90  C6  BDP d1199      -3.135  12.580  -1.306  0.00  0.00     0.203 C 
ATOM     91  O2  BDP d1199      -1.577   8.333  -4.612  0.00  0.00    -0.388 OA
ATOM     92  O6B BDP d1199      -4.075  12.142  -0.608  0.00  0.00    -0.646 OA
ATOM     93  H   BDP d1199      -5.021   9.767  -4.982  0.00  0.00     0.210 HD
ATOM     94  H   BDP d1199      -4.222  10.333  -2.262  0.00  0.00     0.041 H 
ATOM     95  H   BDP d1199      -4.512  11.573  -3.466  0.00  0.00     0.041 H 
ATOM     96  H   BDP d1199      -0.526  10.429  -3.725  0.00  0.00     0.133 H 
ATOM     97  H   BDP d1199      -2.295  12.386  -3.252  0.00  0.00     0.100 H 
ATOM     98  H   BDP d1199      -2.562   8.491  -2.800  0.00  0.00     0.094 H 
ATOM     99  H   BDP d1199      -2.845  10.568  -4.933  0.00  0.00     0.087 H 
ATOM    100  H   BDP d1199      -1.199   8.920  -5.285  0.00  0.00     0.210 HD
ENDROOT
TORSDOF 25
ENDMDL
MODEL 48
REMARK VINA RESULT:      -4.0      2.597     12.283
REMARK  0 active torsions:
REMARK  status: ('A' for Active; 'I' for Inactive)
REMARK       I    between atoms: C5_1  and  C6_46 
REMARK       I    between atoms: O1_2  and  C4_60 
REMARK       I    between atoms: O1_2  and  C1_47 
REMARK       I    between atoms: S_3  and  O4_24 
REMARK       I    between atoms: C7_6  and  C8_11 
REMARK       I    between atoms: C7_6  and  N_48 
REMARK       I    between atoms: O3_7  and  C3_41 
REMARK       I    between atoms: O1_9  and  C3_31 
REMARK       I    between atoms: O1_9  and  C1_19 
REMARK       I    between atoms: C6_10  and  C5_34 
REMARK       I    between atoms: C6_10  and  O6_12 
REMARK       I    between atoms: C3_13  and  O1_16 
REMARK       I    between atoms: C2_14  and  N_20 
REMARK       I    between atoms: C1_15  and  O1_45 
REMARK       I    between atoms: O1_16  and  C1_29 
REMARK       I    between atoms: S_17  and  O4_30 
REMARK       I    between atoms: N_20  and  C7_40 
REMARK       I    between atoms: C4_22  and  O4_30 
REMARK       I    between atoms: O4_24  and  C4_28 
REMARK       I    between atoms: C5_25  and  C6_55 
REMARK       I    between atoms: C2_32  and  O2_39 
REMARK       I    between atoms: C5_33  and  C6_51 
REMARK       I    between atoms: C2_36  and  O2_56 
REMARK       I    between atoms: C8_37  and  C7_40 
REMARK       I    between atoms: C2_43  and  N_48 
REMARK       I    between atoms: C3_50  and  O3_53 
REMARK       I    between atoms: O6_54  and  C6_55 
ROOT
ATOM      1  C5  BDP d1197       3.130  10.945  -1.454  0.00  0.00     0.152 C 
ATOM      2  O1  BDP d1197      -0.467  10.560  -0.670  0.00  0.00    -0.348 OA
ATOM      3  C1  BDP d1197       0.868  11.072  -0.485  0.00  0.00     0.160 C 
ATOM      4  O5  BDP d1197       1.718  10.706  -1.579  0.00  0.00    -0.340 OA
ATOM      5  C2  BDP d1197       1.413  10.525   0.835  0.00  0.00     0.110 C 
ATOM      6  O6A BDP d1197       4.506  10.867  -3.388  0.00  0.00    -0.646 OA
ATOM      7  O2  BDP d1197       0.672  11.092   1.925  0.00  0.00    -0.388 OA
ATOM      8  C6  BDP d1197       3.794  10.221  -2.587  0.00  0.00     0.206 C 
ATOM      9  C3  BDP d1197       2.907  10.777   1.047  0.00  0.00     0.092 C 
ATOM     10  O6B BDP d1197       3.613   8.987  -2.671  0.00  0.00    -0.646 OA
ATOM     11  O3  BDP d1197       3.333   9.990   2.168  0.00  0.00    -0.390 OA
ATOM     12  C4  BDP d1197       3.750  10.398  -0.170  0.00  0.00     0.103 C 
ATOM     13  H   BDP d1197       3.270  12.005  -1.453  0.00  0.00     0.104 H 
ATOM     14  H   BDP d1197       0.841  12.142  -0.453  0.00  0.00     0.133 H 
ATOM     15  H   BDP d1197       1.293   9.462   0.794  0.00  0.00     0.094 H 
ATOM     16  H   BDP d1197       0.799  12.053   1.937  0.00  0.00     0.210 HD
ATOM     17  H   BDP d1197       3.047  11.825   1.213  0.00  0.00     0.091 H 
ATOM     18  H   BDP d1197       3.189   9.050   1.976  0.00  0.00     0.210 HD
ATOM     19  H   BDP d1197       3.784   9.330  -0.228  0.00  0.00     0.092 H 
ATOM     20  O1  ASG d1198       5.089  10.919  -0.030  0.00  0.00    -0.348 OA
ATOM     21  O7  ASG d1198       8.235  13.257  -2.782  0.00  0.00    -0.274 OA
ATOM     22  OSB ASG d1198      10.722  10.138   3.126  0.00  0.00    -0.572 OA
ATOM     23  C3  ASG d1198       8.788  10.021  -0.101  0.00  0.00     0.094 C 
ATOM     24  C2  ASG d1198       7.528  10.895  -0.195  0.00  0.00     0.087 C 
ATOM     25  S   ASG d1198       9.465   9.407   3.400  0.00  0.00     0.252 S 
ATOM     26  N   ASG d1198       7.655  11.533  -1.501  0.00  0.00    -0.349 N 
ATOM     27  OSA ASG d1198       9.768   7.966   3.555  0.00  0.00    -0.572 OA
ATOM     28  C4  ASG d1198       8.625   8.955   0.975  0.00  0.00     0.114 C 
ATOM     29  C5  ASG d1198       7.347   8.172   0.691  0.00  0.00     0.090 C 
ATOM     30  O4  ASG d1198       8.486   9.627   2.231  0.00  0.00    -0.246 OA
ATOM     31  C8  ASG d1198       8.546  13.537  -0.446  0.00  0.00    -0.003 C 
ATOM     32  C7  ASG d1198       8.139  12.767  -1.670  0.00  0.00     0.214 C 
ATOM     33  C1  ASG d1198       6.226  10.066  -0.243  0.00  0.00     0.154 C 
ATOM     34  OSC ASG d1198       8.856   9.924   4.647  0.00  0.00    -0.572 OA
ATOM     35  O6  ASG d1198       8.453   6.470   1.957  0.00  0.00    -0.398 OA
ATOM     36  C6  ASG d1198       7.165   7.002   1.651  0.00  0.00     0.043 C 
ATOM     37  O5  ASG d1198       6.225   9.057   0.771  0.00  0.00    -0.349 OA
ATOM     38  H   ASG d1198       8.906   9.549  -1.054  0.00  0.00     0.091 H 
ATOM     39  H   ASG d1198       7.464  11.547   0.651  0.00  0.00     0.084 H 
ATOM     40  H   ASG d1198       7.371  11.029  -2.297  0.00  0.00     0.163 HD
ATOM     41  H   ASG d1198       9.463   8.290   0.989  0.00  0.00     0.093 H 
ATOM     42  H   ASG d1198       7.421   7.759  -0.294  0.00  0.00     0.090 H 
ATOM     43  H   ASG d1198       8.911  14.500  -0.736  0.00  0.00     0.040 H 
ATOM     44  H   ASG d1198       9.316  13.004   0.071  0.00  0.00     0.040 H 
ATOM     45  H   ASG d1198       7.700  13.655   0.198  0.00  0.00     0.040 H 
ATOM     46  H   ASG d1198       6.171   9.606  -1.207  0.00  0.00     0.132 H 
ATOM     47  H   ASG d1198       8.358   5.723   2.568  0.00  0.00     0.209 HD
ATOM     48  H   ASG d1198       6.562   6.248   1.192  0.00  0.00     0.078 H 
ATOM     49  H   ASG d1198       6.681   7.333   2.546  0.00  0.00     0.078 H 
ATOM     50  S   ASG d1196      -1.484   7.240  -2.137  0.00  0.00     0.252 S 
ATOM     51  OSB ASG d1196      -2.047   6.746  -0.860  0.00  0.00    -0.572 OA
ATOM     52  C7  ASG d1196      -3.587  12.307   0.265  0.00  0.00     0.214 C 
ATOM     53  C6  ASG d1196      -1.647   9.063  -5.241  0.00  0.00     0.043 C 
ATOM     54  C8  ASG d1196      -4.208  10.998   0.649  0.00  0.00    -0.003 C 
ATOM     55  O6  ASG d1196      -2.662   9.283  -6.227  0.00  0.00    -0.398 OA
ATOM     56  C1  ASG d1196      -3.347  11.454  -2.993  0.00  0.00     0.151 C 
ATOM     57  O4  ASG d1196      -1.897   8.712  -2.295  0.00  0.00    -0.246 OA
ATOM     58  C4  ASG d1196      -1.073   9.741  -2.861  0.00  0.00     0.114 C 
ATOM     59  C3  ASG d1196      -1.188  10.890  -1.867  0.00  0.00     0.094 C 
ATOM     60  C5  ASG d1196      -1.780  10.125  -4.158  0.00  0.00     0.090 C 
ATOM     61  OSA ASG d1196      -0.009   7.104  -2.106  0.00  0.00    -0.572 OA
ATOM     62  OSC ASG d1196      -2.065   6.448  -3.250  0.00  0.00    -0.572 OA
ATOM     63  C2  ASG d1196      -2.686  11.115  -1.655  0.00  0.00     0.087 C 
ATOM     64  O5  ASG d1196      -3.165  10.365  -3.894  0.00  0.00    -0.349 OA
ATOM     65  O1  ASG d1196      -4.752  11.643  -2.803  0.00  0.00    -0.369 OA
ATOM     66  N   ASG d1196      -2.853  12.318  -0.848  0.00  0.00    -0.349 N 
ATOM     67  O7  ASG d1196      -3.743  13.308   0.945  0.00  0.00    -0.274 OA
ATOM     68  H   ASG d1196      -1.769   8.091  -4.810  0.00  0.00     0.078 H 
ATOM     69  H   ASG d1196      -0.679   9.123  -5.694  0.00  0.00     0.078 H 
ATOM     70  H   ASG d1196      -3.950  10.255  -0.076  0.00  0.00     0.040 H 
ATOM     71  H   ASG d1196      -5.272  11.105   0.688  0.00  0.00     0.040 H 
ATOM     72  H   ASG d1196      -3.846  10.699   1.611  0.00  0.00     0.040 H 
ATOM     73  H   ASG d1196      -3.536   9.226  -5.809  0.00  0.00     0.209 HD
ATOM     74  H   ASG d1196      -2.905  12.346  -3.385  0.00  0.00     0.132 H 
ATOM     75  H   ASG d1196      -0.052   9.476  -3.041  0.00  0.00     0.093 H 
ATOM     76  H   ASG d1196      -0.750  11.803  -2.217  0.00  0.00     0.091 H 
ATOM     77  H   ASG d1196      -1.306  11.011  -4.525  0.00  0.00     0.090 H 
ATOM     78  H   ASG d1196      -3.107  10.239  -1.207  0.00  0.00     0.084 H 
ATOM     79  H   ASG d1196      -5.143  10.829  -2.448  0.00  0.00     0.212 HD
ATOM     80  H   ASG d1196      -2.416  13.154  -1.130  0.00  0.00     0.163 HD
ATOM     81  O3  BDP d1199      14.670  11.790  -0.763  0.00  0.00    -0.393 OA
ATOM     82  O1  BDP d1199       9.978  10.790   0.144  0.00  0.00    -0.348 OA
ATOM     83  O6A BDP d1199      12.208   6.438  -1.817  0.00  0.00    -0.646 OA
ATOM     84  C4  BDP d1199      13.793   9.560  -0.998  0.00  0.00    -0.005 C 
ATOM     85  O5  BDP d1199      11.380   9.184  -0.741  0.00  0.00    -0.343 OA
ATOM     86  C1  BDP d1199      11.072  10.584  -0.761  0.00  0.00     0.159 C 
ATOM     87  C5  BDP d1199      12.570   8.746  -1.408  0.00  0.00     0.127 C 
ATOM     88  C2  BDP d1199      12.283  11.450  -0.402  0.00  0.00     0.107 C 
ATOM     89  C3  BDP d1199      13.524  11.044  -1.193  0.00  0.00     0.068 C 
ATOM     90  C6  BDP d1199      12.782   7.290  -1.102  0.00  0.00     0.203 C 
ATOM     91  O2  BDP d1199      11.980  12.819  -0.682  0.00  0.00    -0.388 OA
ATOM     92  O6B BDP d1199      13.509   6.976  -0.135  0.00  0.00    -0.646 OA
ATOM     93  H   BDP d1199      15.445  11.517  -1.277  0.00  0.00     0.210 HD
ATOM     94  H   BDP d1199      14.014   9.373   0.033  0.00  0.00     0.041 H 
ATOM     95  H   BDP d1199      14.624   9.272  -1.607  0.00  0.00     0.041 H 
ATOM     96  H   BDP d1199      10.798  10.885  -1.751  0.00  0.00     0.133 H 
ATOM     97  H   BDP d1199      12.444   8.893  -2.460  0.00  0.00     0.100 H 
ATOM     98  H   BDP d1199      12.492  11.311   0.638  0.00  0.00     0.094 H 
ATOM     99  H   BDP d1199      13.346  11.252  -2.227  0.00  0.00     0.087 H 
ATOM    100  H   BDP d1199      11.795  12.922  -1.628  0.00  0.00     0.210 HD
ENDROOT
TORSDOF 25
ENDMDL
MODEL 49
REMARK VINA RESULT:      -4.0      3.083      5.763
REMARK  0 active torsions:
REMARK  status: ('A' for Active; 'I' for Inactive)
REMARK       I    between atoms: C5_1  and  C6_46 
REMARK       I    between atoms: O1_2  and  C4_60 
REMARK       I    between atoms: O1_2  and  C1_47 
REMARK       I    between atoms: S_3  and  O4_24 
REMARK       I    between atoms: C7_6  and  C8_11 
REMARK       I    between atoms: C7_6  and  N_48 
REMARK       I    between atoms: O3_7  and  C3_41 
REMARK       I    between atoms: O1_9  and  C3_31 
REMARK       I    between atoms: O1_9  and  C1_19 
REMARK       I    between atoms: C6_10  and  C5_34 
REMARK       I    between atoms: C6_10  and  O6_12 
REMARK       I    between atoms: C3_13  and  O1_16 
REMARK       I    between atoms: C2_14  and  N_20 
REMARK       I    between atoms: C1_15  and  O1_45 
REMARK       I    between atoms: O1_16  and  C1_29 
REMARK       I    between atoms: S_17  and  O4_30 
REMARK       I    between atoms: N_20  and  C7_40 
REMARK       I    between atoms: C4_22  and  O4_30 
REMARK       I    between atoms: O4_24  and  C4_28 
REMARK       I    between atoms: C5_25  and  C6_55 
REMARK       I    between atoms: C2_32  and  O2_39 
REMARK       I    between atoms: C5_33  and  C6_51 
REMARK       I    between atoms: C2_36  and  O2_56 
REMARK       I    between atoms: C8_37  and  C7_40 
REMARK       I    between atoms: C2_43  and  N_48 
REMARK       I    between atoms: C3_50  and  O3_53 
REMARK       I    between atoms: O6_54  and  C6_55 
ROOT
ATOM      1  C5  BDP d1197       6.775  12.143  -1.286  0.00  0.00     0.152 C 
ATOM      2  O1  BDP d1197       9.675  11.507  -3.496  0.00  0.00    -0.348 OA
ATOM      3  C1  BDP d1197       8.354  11.982  -3.172  0.00  0.00     0.160 C 
ATOM      4  O5  BDP d1197       8.112  11.916  -1.761  0.00  0.00    -0.340 OA
ATOM      5  C2  BDP d1197       7.338  11.134  -3.938  0.00  0.00     0.110 C 
ATOM      6  O6A BDP d1197       6.408  12.575   1.019  0.00  0.00    -0.646 OA
ATOM      7  O2  BDP d1197       7.464  11.398  -5.343  0.00  0.00    -0.388 OA
ATOM      8  C6  BDP d1197       6.751  11.737   0.156  0.00  0.00     0.206 C 
ATOM      9  C3  BDP d1197       5.886  11.355  -3.505  0.00  0.00     0.092 C 
ATOM     10  O6B BDP d1197       7.068  10.559   0.431  0.00  0.00    -0.646 OA
ATOM     11  O3  BDP d1197       5.088  10.322  -4.099  0.00  0.00    -0.390 OA
ATOM     12  C4  BDP d1197       5.707  11.306  -1.988  0.00  0.00     0.103 C 
ATOM     13  H   BDP d1197       6.548  13.173  -1.468  0.00  0.00     0.104 H 
ATOM     14  H   BDP d1197       8.261  13.010  -3.458  0.00  0.00     0.133 H 
ATOM     15  H   BDP d1197       7.564  10.113  -3.712  0.00  0.00     0.094 H 
ATOM     16  H   BDP d1197       7.253  12.328  -5.517  0.00  0.00     0.210 HD
ATOM     17  H   BDP d1197       5.588  12.331  -3.827  0.00  0.00     0.091 H 
ATOM     18  H   BDP d1197       5.390   9.456  -3.781  0.00  0.00     0.210 HD
ATOM     19  H   BDP d1197       5.805  10.287  -1.676  0.00  0.00     0.092 H 
ATOM     20  O1  ASG d1198       4.401  11.802  -1.626  0.00  0.00    -0.348 OA
ATOM     21  O7  ASG d1198       2.583  14.810   1.627  0.00  0.00    -0.274 OA
ATOM     22  OSB ASG d1198      -1.943  10.367  -1.627  0.00  0.00    -0.572 OA
ATOM     23  C3  ASG d1198       1.217  11.020   0.311  0.00  0.00     0.094 C 
ATOM     24  C2  ASG d1198       2.300  11.865  -0.378  0.00  0.00     0.087 C 
ATOM     25  S   ASG d1198      -0.872   9.567  -2.262  0.00  0.00     0.252 S 
ATOM     26  N   ASG d1198       2.701  12.811   0.659  0.00  0.00    -0.349 N 
ATOM     27  OSA ASG d1198      -1.072   8.139  -1.927  0.00  0.00    -0.572 OA
ATOM     28  C4  ASG d1198       0.991   9.717  -0.445  0.00  0.00     0.114 C 
ATOM     29  C5  ASG d1198       2.331   9.005  -0.596  0.00  0.00     0.090 C 
ATOM     30  O4  ASG d1198       0.496  10.052  -1.746  0.00  0.00    -0.246 OA
ATOM     31  C8  ASG d1198       1.249  14.506  -0.311  0.00  0.00    -0.003 C 
ATOM     32  C7  ASG d1198       2.225  14.057   0.739  0.00  0.00     0.214 C 
ATOM     33  C1  ASG d1198       3.562  11.050  -0.732  0.00  0.00     0.154 C 
ATOM     34  OSC ASG d1198      -0.928   9.746  -3.731  0.00  0.00    -0.572 OA
ATOM     35  O6  ASG d1198       0.948   7.063  -0.797  0.00  0.00    -0.398 OA
ATOM     36  C6  ASG d1198       2.182   7.630  -1.237  0.00  0.00     0.043 C 
ATOM     37  O5  ASG d1198       3.212   9.820  -1.374  0.00  0.00    -0.349 OA
ATOM     38  H   ASG d1198       1.577  10.802   1.294  0.00  0.00     0.091 H 
ATOM     39  H   ASG d1198       1.921  12.286  -1.286  0.00  0.00     0.084 H 
ATOM     40  H   ASG d1198       3.354  12.515   1.333  0.00  0.00     0.163 HD
ATOM     41  H   ASG d1198       0.299   9.085   0.074  0.00  0.00     0.093 H 
ATOM     42  H   ASG d1198       2.739   8.852   0.382  0.00  0.00     0.090 H 
ATOM     43  H   ASG d1198       0.959  15.517  -0.119  0.00  0.00     0.040 H 
ATOM     44  H   ASG d1198       0.384  13.876  -0.287  0.00  0.00     0.040 H 
ATOM     45  H   ASG d1198       1.708  14.444  -1.275  0.00  0.00     0.040 H 
ATOM     46  H   ASG d1198       4.080  10.843   0.180  0.00  0.00     0.132 H 
ATOM     47  H   ASG d1198       0.835   6.185  -1.194  0.00  0.00     0.209 HD
ATOM     48  H   ASG d1198       2.995   7.002  -0.939  0.00  0.00     0.078 H 
ATOM     49  H   ASG d1198       2.188   7.718  -2.303  0.00  0.00     0.078 H 
ATOM     50  S   ASG d1196      11.548   8.637  -1.924  0.00  0.00     0.252 S 
ATOM     51  OSB ASG d1196      11.535   7.831  -3.166  0.00  0.00    -0.572 OA
ATOM     52  C7  ASG d1196      11.880  12.907  -6.112  0.00  0.00     0.214 C 
ATOM     53  C6  ASG d1196      12.888  11.172   0.259  0.00  0.00     0.043 C 
ATOM     54  C8  ASG d1196      12.390  11.531  -6.421  0.00  0.00    -0.003 C 
ATOM     55  O6  ASG d1196      14.207  11.611   0.601  0.00  0.00    -0.398 OA
ATOM     56  C1  ASG d1196      13.184  12.896  -2.997  0.00  0.00     0.151 C 
ATOM     57  O4  ASG d1196      11.845  10.094  -2.313  0.00  0.00    -0.246 OA
ATOM     58  C4  ASG d1196      11.261  11.247  -1.691  0.00  0.00     0.114 C 
ATOM     59  C3  ASG d1196      10.815  12.111  -2.865  0.00  0.00     0.094 C 
ATOM     60  C5  ASG d1196      12.427  11.928  -0.980  0.00  0.00     0.090 C 
ATOM     61  OSA ASG d1196      10.231   8.526  -1.254  0.00  0.00    -0.572 OA
ATOM     62  OSC ASG d1196      12.633   8.136  -1.044  0.00  0.00    -0.572 OA
ATOM     63  C2  ASG d1196      12.036  12.247  -3.775  0.00  0.00     0.087 C 
ATOM     64  O5  ASG d1196      13.524  12.068  -1.887  0.00  0.00    -0.349 OA
ATOM     65  O1  ASG d1196      14.337  13.005  -3.838  0.00  0.00    -0.369 OA
ATOM     66  N   ASG d1196      11.715  13.208  -4.823  0.00  0.00    -0.349 N 
ATOM     67  O7  ASG d1196      11.623  13.704  -6.999  0.00  0.00    -0.274 OA
ATOM     68  H   ASG d1196      12.900  10.121   0.056  0.00  0.00     0.078 H 
ATOM     69  H   ASG d1196      12.218  11.362   1.071  0.00  0.00     0.078 H 
ATOM     70  H   ASG d1196      12.551  10.997  -5.509  0.00  0.00     0.040 H 
ATOM     71  H   ASG d1196      13.312  11.605  -6.959  0.00  0.00     0.040 H 
ATOM     72  H   ASG d1196      11.671  11.010  -7.018  0.00  0.00     0.040 H 
ATOM     73  H   ASG d1196      14.808  11.436  -0.140  0.00  0.00     0.209 HD
ATOM     74  H   ASG d1196      12.877  13.865  -2.666  0.00  0.00     0.132 H 
ATOM     75  H   ASG d1196      10.454  11.055  -1.015  0.00  0.00     0.093 H 
ATOM     76  H   ASG d1196      10.491  13.090  -2.576  0.00  0.00     0.091 H 
ATOM     77  H   ASG d1196      12.081  12.887  -0.654  0.00  0.00     0.090 H 
ATOM     78  H   ASG d1196      12.299  11.280  -4.149  0.00  0.00     0.084 H 
ATOM     79  H   ASG d1196      14.607  12.121  -4.133  0.00  0.00     0.212 HD
ATOM     80  H   ASG d1196      11.370  14.096  -4.576  0.00  0.00     0.163 HD
ATOM     81  O3  BDP d1199      -3.909  13.010   3.126  0.00  0.00    -0.393 OA
ATOM     82  O1  BDP d1199      -0.026  11.726   0.459  0.00  0.00    -0.348 OA
ATOM     83  O6A BDP d1199      -0.735   8.042   4.158  0.00  0.00    -0.646 OA
ATOM     84  C4  BDP d1199      -2.810  10.892   3.447  0.00  0.00    -0.005 C 
ATOM     85  O5  BDP d1199      -0.733  10.418   2.225  0.00  0.00    -0.343 OA
ATOM     86  C1  BDP d1199      -0.584  11.773   1.780  0.00  0.00     0.159 C 
ATOM     87  C5  BDP d1199      -1.460  10.183   3.436  0.00  0.00     0.127 C 
ATOM     88  C2  BDP d1199      -1.906  12.545   1.817  0.00  0.00     0.107 C 
ATOM     89  C3  BDP d1199      -2.626  12.373   3.152  0.00  0.00     0.068 C 
ATOM     90  C6  BDP d1199      -1.644   8.700   3.604  0.00  0.00     0.203 C 
ATOM     91  O2  BDP d1199      -1.643  13.935   1.606  0.00  0.00    -0.388 OA
ATOM     92  O6B BDP d1199      -2.690   8.169   3.170  0.00  0.00    -0.646 OA
ATOM     93  H   BDP d1199      -4.348  12.888   3.982  0.00  0.00     0.210 HD
ATOM     94  H   BDP d1199      -3.443  10.459   2.701  0.00  0.00     0.041 H 
ATOM     95  H   BDP d1199      -3.255  10.781   4.413  0.00  0.00     0.041 H 
ATOM     96  H   BDP d1199       0.069  12.305   2.441  0.00  0.00     0.133 H 
ATOM     97  H   BDP d1199      -0.897  10.584   4.254  0.00  0.00     0.100 H 
ATOM     98  H   BDP d1199      -2.537  12.156   1.046  0.00  0.00     0.094 H 
ATOM     99  H   BDP d1199      -2.030  12.828   3.916  0.00  0.00     0.087 H 
ATOM    100  H   BDP d1199      -1.071  14.267   2.315  0.00  0.00     0.210 HD
ENDROOT
TORSDOF 25
ENDMDL
MODEL 50
REMARK VINA RESULT:      -4.0      3.556     12.026
REMARK  0 active torsions:
REMARK  status: ('A' for Active; 'I' for Inactive)
REMARK       I    between atoms: C5_1  and  C6_46 
REMARK       I    between atoms: O1_2  and  C4_60 
REMARK       I    between atoms: O1_2  and  C1_47 
REMARK       I    between atoms: S_3  and  O4_24 
REMARK       I    between atoms: C7_6  and  C8_11 
REMARK       I    between atoms: C7_6  and  N_48 
REMARK       I    between atoms: O3_7  and  C3_41 
REMARK       I    between atoms: O1_9  and  C3_31 
REMARK       I    between atoms: O1_9  and  C1_19 
REMARK       I    between atoms: C6_10  and  C5_34 
REMARK       I    between atoms: C6_10  and  O6_12 
REMARK       I    between atoms: C3_13  and  O1_16 
REMARK       I    between atoms: C2_14  and  N_20 
REMARK       I    between atoms: C1_15  and  O1_45 
REMARK       I    between atoms: O1_16  and  C1_29 
REMARK       I    between atoms: S_17  and  O4_30 
REMARK       I    between atoms: N_20  and  C7_40 
REMARK       I    between atoms: C4_22  and  O4_30 
REMARK       I    between atoms: O4_24  and  C4_28 
REMARK       I    between atoms: C5_25  and  C6_55 
REMARK       I    between atoms: C2_32  and  O2_39 
REMARK       I    between atoms: C5_33  and  C6_51 
REMARK       I    between atoms: C2_36  and  O2_56 
REMARK       I    between atoms: C8_37  and  C7_40 
REMARK       I    between atoms: C2_43  and  N_48 
REMARK       I    between atoms: C3_50  and  O3_53 
REMARK       I    between atoms: O6_54  and  C6_55 
ROOT
ATOM      1  C5  BDP d1197       3.608  11.100  -0.726  0.00  0.00     0.152 C 
ATOM      2  O1  BDP d1197       0.932   8.817  -1.879  0.00  0.00    -0.348 OA
ATOM      3  C1  BDP d1197       1.774   9.463  -0.904  0.00  0.00     0.160 C 
ATOM      4  O5  BDP d1197       2.558  10.502  -1.504  0.00  0.00    -0.340 OA
ATOM      5  C2  BDP d1197       2.673   8.401  -0.269  0.00  0.00     0.110 C 
ATOM      6  O6A BDP d1197       4.574  13.147  -1.441  0.00  0.00    -0.646 OA
ATOM      7  O2  BDP d1197       1.869   7.503   0.509  0.00  0.00    -0.388 OA
ATOM      8  C6  BDP d1197       4.430  11.926  -1.669  0.00  0.00     0.206 C 
ATOM      9  C3  BDP d1197       3.794   8.971   0.603  0.00  0.00     0.092 C 
ATOM     10  O6B BDP d1197       4.951  11.344  -2.646  0.00  0.00    -0.646 OA
ATOM     11  O3  BDP d1197       4.704   7.904   0.905  0.00  0.00    -0.390 OA
ATOM     12  C4  BDP d1197       4.565  10.097  -0.084  0.00  0.00     0.103 C 
ATOM     13  H   BDP d1197       3.140  11.649   0.063  0.00  0.00     0.104 H 
ATOM     14  H   BDP d1197       1.167   9.923  -0.153  0.00  0.00     0.133 H 
ATOM     15  H   BDP d1197       3.156   7.890  -1.077  0.00  0.00     0.094 H 
ATOM     16  H   BDP d1197       1.446   7.993   1.232  0.00  0.00     0.210 HD
ATOM     17  H   BDP d1197       3.351   9.385   1.485  0.00  0.00     0.091 H 
ATOM     18  H   BDP d1197       5.082   7.559   0.081  0.00  0.00     0.210 HD
ATOM     19  H   BDP d1197       5.175   9.662  -0.848  0.00  0.00     0.092 H 
ATOM     20  O1  ASG d1198       5.401  10.783   0.872  0.00  0.00    -0.348 OA
ATOM     21  O7  ASG d1198       6.410  15.326   2.005  0.00  0.00    -0.274 OA
ATOM     22  OSB ASG d1198      10.841  10.282   4.400  0.00  0.00    -0.572 OA
ATOM     23  C3  ASG d1198       8.948  11.954   1.610  0.00  0.00     0.094 C 
ATOM     24  C2  ASG d1198       7.413  11.911   1.680  0.00  0.00     0.087 C 
ATOM     25  S   ASG d1198      10.235   9.208   3.583  0.00  0.00     0.252 S 
ATOM     26  N   ASG d1198       7.022  13.283   1.372  0.00  0.00    -0.349 N 
ATOM     27  OSA ASG d1198      11.296   8.544   2.793  0.00  0.00    -0.572 OA
ATOM     28  C4  ASG d1198       9.519  10.550   1.467  0.00  0.00     0.114 C 
ATOM     29  C5  ASG d1198       8.862   9.879   0.264  0.00  0.00     0.090 C 
ATOM     30  O4  ASG d1198       9.174   9.820   2.649  0.00  0.00    -0.246 OA
ATOM     31  C8  ASG d1198       6.772  13.755   3.746  0.00  0.00    -0.003 C 
ATOM     32  C7  ASG d1198       6.724  14.189   2.309  0.00  0.00     0.214 C 
ATOM     33  C1  ASG d1198       6.788  11.026   0.581  0.00  0.00     0.154 C 
ATOM     34  OSC ASG d1198       9.585   8.219   4.474  0.00  0.00    -0.572 OA
ATOM     35  O6  ASG d1198      10.856   8.557   0.278  0.00  0.00    -0.398 OA
ATOM     36  C6  ASG d1198       9.463   8.510  -0.029  0.00  0.00     0.043 C 
ATOM     37  O5  ASG d1198       7.456   9.763   0.501  0.00  0.00    -0.349 OA
ATOM     38  H   ASG d1198       9.200  12.530   0.745  0.00  0.00     0.091 H 
ATOM     39  H   ASG d1198       7.095  11.525   2.626  0.00  0.00     0.084 H 
ATOM     40  H   ASG d1198       6.976  13.555   0.428  0.00  0.00     0.163 HD
ATOM     41  H   ASG d1198      10.581  10.577   1.333  0.00  0.00     0.093 H 
ATOM     42  H   ASG d1198       9.041  10.490  -0.596  0.00  0.00     0.090 H 
ATOM     43  H   ASG d1198       6.511  14.580   4.376  0.00  0.00     0.040 H 
ATOM     44  H   ASG d1198       7.760  13.422   3.986  0.00  0.00     0.040 H 
ATOM     45  H   ASG d1198       6.079  12.955   3.901  0.00  0.00     0.040 H 
ATOM     46  H   ASG d1198       6.889  11.544  -0.349  0.00  0.00     0.132 H 
ATOM     47  H   ASG d1198      11.256   7.692   0.097  0.00  0.00     0.209 HD
ATOM     48  H   ASG d1198       9.328   8.269  -1.063  0.00  0.00     0.078 H 
ATOM     49  H   ASG d1198       8.979   7.761   0.564  0.00  0.00     0.078 H 
ATOM     50  S   ASG d1196       1.757   8.005  -5.468  0.00  0.00     0.252 S 
ATOM     51  OSB ASG d1196       1.705   6.543  -5.242  0.00  0.00    -0.572 OA
ATOM     52  C7  ASG d1196      -2.507   7.603  -1.281  0.00  0.00     0.214 C 
ATOM     53  C6  ASG d1196       0.273  11.214  -6.164  0.00  0.00     0.043 C 
ATOM     54  C8  ASG d1196      -2.257   6.438  -2.190  0.00  0.00    -0.003 C 
ATOM     55  O6  ASG d1196      -0.797  11.668  -6.999  0.00  0.00    -0.398 OA
ATOM     56  C1  ASG d1196      -2.200   9.859  -3.775  0.00  0.00     0.151 C 
ATOM     57  O4  ASG d1196       0.587   8.641  -4.700  0.00  0.00    -0.246 OA
ATOM     58  C4  ASG d1196       0.639   9.902  -4.019  0.00  0.00     0.114 C 
ATOM     59  C3  ASG d1196       0.021   9.610  -2.657  0.00  0.00     0.094 C 
ATOM     60  C5  ASG d1196      -0.302  10.803  -4.815  0.00  0.00     0.090 C 
ATOM     61  OSA ASG d1196       3.055   8.529  -4.983  0.00  0.00    -0.572 OA
ATOM     62  OSC ASG d1196       1.589   8.269  -6.918  0.00  0.00    -0.572 OA
ATOM     63  C2  ASG d1196      -1.318   8.927  -2.940  0.00  0.00     0.087 C 
ATOM     64  O5  ASG d1196      -1.550  10.135  -5.013  0.00  0.00    -0.349 OA
ATOM     65  O1  ASG d1196      -3.446   9.216  -4.062  0.00  0.00    -0.369 OA
ATOM     66  N   ASG d1196      -2.030   8.784  -1.675  0.00  0.00    -0.349 N 
ATOM     67  O7  ASG d1196      -3.112   7.470  -0.229  0.00  0.00    -0.274 OA
ATOM     68  H   ASG d1196       0.755  10.375  -6.621  0.00  0.00     0.078 H 
ATOM     69  H   ASG d1196       0.990  11.997  -6.031  0.00  0.00     0.078 H 
ATOM     70  H   ASG d1196      -1.715   6.768  -3.051  0.00  0.00     0.040 H 
ATOM     71  H   ASG d1196      -3.192   6.017  -2.496  0.00  0.00     0.040 H 
ATOM     72  H   ASG d1196      -1.686   5.697  -1.672  0.00  0.00     0.040 H 
ATOM     73  H   ASG d1196      -1.442  10.953  -7.115  0.00  0.00     0.209 HD
ATOM     74  H   ASG d1196      -2.369  10.762  -3.228  0.00  0.00     0.132 H 
ATOM     75  H   ASG d1196       1.609  10.343  -3.924  0.00  0.00     0.093 H 
ATOM     76  H   ASG d1196      -0.159  10.488  -2.072  0.00  0.00     0.091 H 
ATOM     77  H   ASG d1196      -0.439  11.698  -4.244  0.00  0.00     0.090 H 
ATOM     78  H   ASG d1196      -1.134   7.996  -3.434  0.00  0.00     0.084 H 
ATOM     79  H   ASG d1196      -3.282   8.398  -4.557  0.00  0.00     0.212 HD
ATOM     80  H   ASG d1196      -2.160   9.574  -1.102  0.00  0.00     0.163 HD
ATOM     81  O3  BDP d1199      12.765  15.729   4.667  0.00  0.00    -0.393 OA
ATOM     82  O1  BDP d1199       9.535  12.612   2.746  0.00  0.00    -0.348 OA
ATOM     83  O6A BDP d1199      13.560  13.052  -0.627  0.00  0.00    -0.646 OA
ATOM     84  C4  BDP d1199      13.242  14.516   2.643  0.00  0.00    -0.005 C 
ATOM     85  O5  BDP d1199      11.482  13.141   1.622  0.00  0.00    -0.343 OA
ATOM     86  C1  BDP d1199      10.453  13.678   2.464  0.00  0.00     0.159 C 
ATOM     87  C5  BDP d1199      12.633  13.953   1.363  0.00  0.00     0.127 C 
ATOM     88  C2  BDP d1199      11.018  14.300   3.745  0.00  0.00     0.107 C 
ATOM     89  C3  BDP d1199      12.181  15.245   3.451  0.00  0.00     0.068 C 
ATOM     90  C6  BDP d1199      13.645  13.125   0.620  0.00  0.00     0.203 C 
ATOM     91  O2  BDP d1199       9.982  15.029   4.409  0.00  0.00    -0.388 OA
ATOM     92  O6B BDP d1199      14.527  12.523   1.270  0.00  0.00    -0.646 OA
ATOM     93  H   BDP d1199      13.500  16.326   4.457  0.00  0.00     0.210 HD
ATOM     94  H   BDP d1199      13.642  13.713   3.228  0.00  0.00     0.041 H 
ATOM     95  H   BDP d1199      14.020  15.203   2.387  0.00  0.00     0.041 H 
ATOM     96  H   BDP d1199       9.951  14.479   1.963  0.00  0.00     0.133 H 
ATOM     97  H   BDP d1199      12.331  14.793   0.773  0.00  0.00     0.100 H 
ATOM     98  H   BDP d1199      11.383  13.507   4.365  0.00  0.00     0.094 H 
ATOM     99  H   BDP d1199      11.803  16.078   2.895  0.00  0.00     0.087 H 
ATOM    100  H   BDP d1199       9.667  15.741   3.832  0.00  0.00     0.210 HD
ENDROOT
TORSDOF 25
ENDMDL
MODEL 51
REMARK VINA RESULT:      -3.9      2.906     12.964
REMARK  0 active torsions:
REMARK  status: ('A' for Active; 'I' for Inactive)
REMARK       I    between atoms: C5_1  and  C6_46 
REMARK       I    between atoms: O1_2  and  C4_60 
REMARK       I    between atoms: O1_2  and  C1_47 
REMARK       I    between atoms: S_3  and  O4_24 
REMARK       I    between atoms: C7_6  and  C8_11 
REMARK       I    between atoms: C7_6  and  N_48 
REMARK       I    between atoms: O3_7  and  C3_41 
REMARK       I    between atoms: O1_9  and  C3_31 
REMARK       I    between atoms: O1_9  and  C1_19 
REMARK       I    between atoms: C6_10  and  C5_34 
REMARK       I    between atoms: C6_10  and  O6_12 
REMARK       I    between atoms: C3_13  and  O1_16 
REMARK       I    between atoms: C2_14  and  N_20 
REMARK       I    between atoms: C1_15  and  O1_45 
REMARK       I    between atoms: O1_16  and  C1_29 
REMARK       I    between atoms: S_17  and  O4_30 
REMARK       I    between atoms: N_20  and  C7_40 
REMARK       I    between atoms: C4_22  and  O4_30 
REMARK       I    between atoms: O4_24  and  C4_28 
REMARK       I    between atoms: C5_25  and  C6_55 
REMARK       I    between atoms: C2_32  and  O2_39 
REMARK       I    between atoms: C5_33  and  C6_51 
REMARK       I    between atoms: C2_36  and  O2_56 
REMARK       I    between atoms: C8_37  and  C7_40 
REMARK       I    between atoms: C2_43  and  N_48 
REMARK       I    between atoms: C3_50  and  O3_53 
REMARK       I    between atoms: O6_54  and  C6_55 
ROOT
ATOM      1  C5  BDP d1197       6.293  10.472   1.345  0.00  0.00     0.152 C 
ATOM      2  O1  BDP d1197       3.044  11.199  -0.273  0.00  0.00    -0.348 OA
ATOM      3  C1  BDP d1197       4.154  10.370   0.124  0.00  0.00     0.160 C 
ATOM      4  O5  BDP d1197       5.025  11.068   1.023  0.00  0.00    -0.340 OA
ATOM      5  C2  BDP d1197       4.905   9.939  -1.137  0.00  0.00     0.110 C 
ATOM      6  O6A BDP d1197       7.531  11.284   3.201  0.00  0.00    -0.646 OA
ATOM      7  O2  BDP d1197       4.074   9.058  -1.905  0.00  0.00    -0.388 OA
ATOM      8  C6  BDP d1197       7.098  11.520   2.051  0.00  0.00     0.206 C 
ATOM      9  C3  BDP d1197       6.251   9.263  -0.862  0.00  0.00     0.092 C 
ATOM     10  O6B BDP d1197       7.314  12.592   1.443  0.00  0.00    -0.646 OA
ATOM     11  O3  BDP d1197       6.955   9.163  -2.107  0.00  0.00    -0.390 OA
ATOM     12  C4  BDP d1197       7.113  10.042   0.130  0.00  0.00     0.103 C 
ATOM     13  H   BDP d1197       6.089   9.595   1.922  0.00  0.00     0.104 H 
ATOM     14  H   BDP d1197       3.791   9.509   0.645  0.00  0.00     0.133 H 
ATOM     15  H   BDP d1197       5.127  10.835  -1.678  0.00  0.00     0.094 H 
ATOM     16  H   BDP d1197       3.890   8.257  -1.391  0.00  0.00     0.210 HD
ATOM     17  H   BDP d1197       6.059   8.304  -0.428  0.00  0.00     0.091 H 
ATOM     18  H   BDP d1197       7.109  10.051  -2.465  0.00  0.00     0.210 HD
ATOM     19  H   BDP d1197       7.481  10.916  -0.366  0.00  0.00     0.092 H 
ATOM     20  O1  ASG d1198       8.222   9.230   0.570  0.00  0.00    -0.348 OA
ATOM     21  O7  ASG d1198      10.333   8.155   4.732  0.00  0.00    -0.274 OA
ATOM     22  OSB ASG d1198      13.952   6.746  -1.246  0.00  0.00    -0.572 OA
ATOM     23  C3  ASG d1198      12.008   9.101   0.955  0.00  0.00     0.094 C 
ATOM     24  C2  ASG d1198      10.532   8.759   1.215  0.00  0.00     0.087 C 
ATOM     25  S   ASG d1198      13.006   7.475  -2.120  0.00  0.00     0.252 S 
ATOM     26  N   ASG d1198      10.390   8.950   2.655  0.00  0.00    -0.349 N 
ATOM     27  OSA ASG d1198      13.757   8.462  -2.928  0.00  0.00    -0.572 OA
ATOM     28  C4  ASG d1198      12.241   9.387  -0.523  0.00  0.00     0.114 C 
ATOM     29  C5  ASG d1198      11.266  10.473  -0.966  0.00  0.00     0.090 C 
ATOM     30  O4  ASG d1198      11.955   8.185  -1.246  0.00  0.00    -0.246 OA
ATOM     31  C8  ASG d1198      10.647   6.556   3.007  0.00  0.00    -0.003 C 
ATOM     32  C7  ASG d1198      10.450   7.947   3.537  0.00  0.00     0.214 C 
ATOM     33  C1  ASG d1198       9.560   9.756   0.549  0.00  0.00     0.154 C 
ATOM     34  OSC ASG d1198      12.323   6.514  -3.016  0.00  0.00    -0.572 OA
ATOM     35  O6  ASG d1198      12.912  10.856  -2.659  0.00  0.00    -0.398 OA
ATOM     36  C6  ASG d1198      11.509  10.911  -2.405  0.00  0.00     0.043 C 
ATOM     37  O5  ASG d1198       9.926   9.993  -0.814  0.00  0.00    -0.349 OA
ATOM     38  H   ASG d1198      12.225   9.979   1.525  0.00  0.00     0.091 H 
ATOM     39  H   ASG d1198      10.304   7.784   0.838  0.00  0.00     0.084 H 
ATOM     40  H   ASG d1198      10.244   9.862   2.994  0.00  0.00     0.163 HD
ATOM     41  H   ASG d1198      13.247   9.707  -0.700  0.00  0.00     0.093 H 
ATOM     42  H   ASG d1198      11.421  11.333  -0.347  0.00  0.00     0.090 H 
ATOM     43  H   ASG d1198      10.674   5.865   3.823  0.00  0.00     0.040 H 
ATOM     44  H   ASG d1198      11.570   6.507   2.468  0.00  0.00     0.040 H 
ATOM     45  H   ASG d1198       9.839   6.304   2.354  0.00  0.00     0.040 H 
ATOM     46  H   ASG d1198       9.609  10.673   1.097  0.00  0.00     0.132 H 
ATOM     47  H   ASG d1198      13.087  11.132  -3.572  0.00  0.00     0.209 HD
ATOM     48  H   ASG d1198      11.155  11.911  -2.544  0.00  0.00     0.078 H 
ATOM     49  H   ASG d1198      10.987  10.265  -3.080  0.00  0.00     0.078 H 
ATOM     50  S   ASG d1196       3.065  14.900  -0.991  0.00  0.00     0.252 S 
ATOM     51  OSB ASG d1196       2.747  14.715  -2.425  0.00  0.00    -0.572 OA
ATOM     52  C7  ASG d1196      -0.423  10.034  -0.811  0.00  0.00     0.214 C 
ATOM     53  C6  ASG d1196       2.189  15.221   2.489  0.00  0.00     0.043 C 
ATOM     54  C8  ASG d1196      -0.578  11.009  -1.939  0.00  0.00    -0.003 C 
ATOM     55  O6  ASG d1196       1.112  15.838   3.203  0.00  0.00    -0.398 OA
ATOM     56  C1  ASG d1196      -0.075  12.472   1.499  0.00  0.00     0.151 C 
ATOM     57  O4  ASG d1196       2.200  13.917  -0.187  0.00  0.00    -0.246 OA
ATOM     58  C4  ASG d1196       2.628  13.217   0.990  0.00  0.00     0.114 C 
ATOM     59  C3  ASG d1196       2.200  11.777   0.736  0.00  0.00     0.094 C 
ATOM     60  C5  ASG d1196       1.776  13.805   2.112  0.00  0.00     0.090 C 
ATOM     61  OSA ASG d1196       4.507  14.639  -0.772  0.00  0.00    -0.572 OA
ATOM     62  OSC ASG d1196       2.714  16.288  -0.603  0.00  0.00    -0.572 OA
ATOM     63  C2  ASG d1196       0.720  11.837   0.356  0.00  0.00     0.087 C 
ATOM     64  O5  ASG d1196       0.401  13.797   1.722  0.00  0.00    -0.349 OA
ATOM     65  O1  ASG d1196      -1.458  12.552   1.139  0.00  0.00    -0.369 OA
ATOM     66  N   ASG d1196       0.218  10.471   0.274  0.00  0.00    -0.349 N 
ATOM     67  O7  ASG d1196      -0.856   8.896  -0.891  0.00  0.00    -0.274 OA
ATOM     68  H   ASG d1196       2.401  15.782   1.603  0.00  0.00     0.078 H 
ATOM     69  H   ASG d1196       3.065  15.194   3.102  0.00  0.00     0.078 H 
ATOM     70  H   ASG d1196      -0.132  11.943  -1.668  0.00  0.00     0.040 H 
ATOM     71  H   ASG d1196      -1.617  11.157  -2.143  0.00  0.00     0.040 H 
ATOM     72  H   ASG d1196      -0.095  10.624  -2.813  0.00  0.00     0.040 H 
ATOM     73  H   ASG d1196       0.321  15.858   2.641  0.00  0.00     0.209 HD
ATOM     74  H   ASG d1196       0.043  11.876   2.379  0.00  0.00     0.132 H 
ATOM     75  H   ASG d1196       3.671  13.284   1.220  0.00  0.00     0.093 H 
ATOM     76  H   ASG d1196       2.309  11.142   1.591  0.00  0.00     0.091 H 
ATOM     77  H   ASG d1196       1.927  13.191   2.976  0.00  0.00     0.090 H 
ATOM     78  H   ASG d1196       0.620  12.385  -0.558  0.00  0.00     0.084 H 
ATOM     79  H   ASG d1196      -1.554  13.094   0.341  0.00  0.00     0.212 HD
ATOM     80  H   ASG d1196       0.353   9.859   1.034  0.00  0.00     0.163 HD
ATOM     81  O3  BDP d1199      16.988   6.659   3.675  0.00  0.00    -0.393 OA
ATOM     82  O1  BDP d1199      12.902   8.068   1.404  0.00  0.00    -0.348 OA
ATOM     83  O6A BDP d1199      16.304  12.090   1.254  0.00  0.00    -0.646 OA
ATOM     84  C4  BDP d1199      16.854   8.772   2.530  0.00  0.00    -0.005 C 
ATOM     85  O5  BDP d1199      14.699   9.504   1.606  0.00  0.00    -0.343 OA
ATOM     86  C1  BDP d1199      13.962   8.476   2.281  0.00  0.00     0.159 C 
ATOM     87  C5  BDP d1199      15.934   9.939   2.187  0.00  0.00     0.127 C 
ATOM     88  C2  BDP d1199      14.852   7.298   2.690  0.00  0.00     0.107 C 
ATOM     89  C3  BDP d1199      16.119   7.765   3.401  0.00  0.00     0.068 C 
ATOM     90  C6  BDP d1199      16.611  10.876   1.226  0.00  0.00     0.203 C 
ATOM     91  O2  BDP d1199      14.117   6.438   3.566  0.00  0.00    -0.388 OA
ATOM     92  O6B BDP d1199      17.444  10.413   0.417  0.00  0.00    -0.646 OA
ATOM     93  H   BDP d1199      17.785   6.978   4.126  0.00  0.00     0.210 HD
ATOM     94  H   BDP d1199      17.170   8.293   1.626  0.00  0.00     0.041 H 
ATOM     95  H   BDP d1199      17.704   9.142   3.063  0.00  0.00     0.041 H 
ATOM     96  H   BDP d1199      13.561   8.854   3.199  0.00  0.00     0.133 H 
ATOM     97  H   BDP d1199      15.720  10.440   3.108  0.00  0.00     0.100 H 
ATOM     98  H   BDP d1199      15.141   6.778   1.801  0.00  0.00     0.094 H 
ATOM     99  H   BDP d1199      15.836   8.219   4.328  0.00  0.00     0.087 H 
ATOM    100  H   BDP d1199      13.866   6.927   4.364  0.00  0.00     0.210 HD
ENDROOT
TORSDOF 25
ENDMDL
MODEL 52
REMARK VINA RESULT:      -3.9      3.505      5.064
REMARK  0 active torsions:
REMARK  status: ('A' for Active; 'I' for Inactive)
REMARK       I    between atoms: C5_1  and  C6_46 
REMARK       I    between atoms: O1_2  and  C4_60 
REMARK       I    between atoms: O1_2  and  C1_47 
REMARK       I    between atoms: S_3  and  O4_24 
REMARK       I    between atoms: C7_6  and  C8_11 
REMARK       I    between atoms: C7_6  and  N_48 
REMARK       I    between atoms: O3_7  and  C3_41 
REMARK       I    between atoms: O1_9  and  C3_31 
REMARK       I    between atoms: O1_9  and  C1_19 
REMARK       I    between atoms: C6_10  and  C5_34 
REMARK       I    between atoms: C6_10  and  O6_12 
REMARK       I    between atoms: C3_13  and  O1_16 
REMARK       I    between atoms: C2_14  and  N_20 
REMARK       I    between atoms: C1_15  and  O1_45 
REMARK       I    between atoms: O1_16  and  C1_29 
REMARK       I    between atoms: S_17  and  O4_30 
REMARK       I    between atoms: N_20  and  C7_40 
REMARK       I    between atoms: C4_22  and  O4_30 
REMARK       I    between atoms: O4_24  and  C4_28 
REMARK       I    between atoms: C5_25  and  C6_55 
REMARK       I    between atoms: C2_32  and  O2_39 
REMARK       I    between atoms: C5_33  and  C6_51 
REMARK       I    between atoms: C2_36  and  O2_56 
REMARK       I    between atoms: C8_37  and  C7_40 
REMARK       I    between atoms: C2_43  and  N_48 
REMARK       I    between atoms: C3_50  and  O3_53 
REMARK       I    between atoms: O6_54  and  C6_55 
ROOT
ATOM      1  C5  BDP d1197       8.252  10.710  -0.063  0.00  0.00     0.152 C 
ATOM      2  O1  BDP d1197      11.493   8.933   0.135  0.00  0.00    -0.348 OA
ATOM      3  C1  BDP d1197      10.133   9.134  -0.297  0.00  0.00     0.160 C 
ATOM      4  O5  BDP d1197       9.653  10.427   0.093  0.00  0.00    -0.340 OA
ATOM      5  C2  BDP d1197       9.268   8.027   0.308  0.00  0.00     0.110 C 
ATOM      6  O6A BDP d1197       7.492  12.956   0.052  0.00  0.00    -0.646 OA
ATOM      7  O2  BDP d1197       9.633   6.769  -0.277  0.00  0.00    -0.388 OA
ATOM      8  C6  BDP d1197       7.983  11.988   0.673  0.00  0.00     0.206 C 
ATOM      9  C3  BDP d1197       7.763   8.250   0.144  0.00  0.00     0.092 C 
ATOM     10  O6B BDP d1197       8.254  12.021   1.893  0.00  0.00    -0.646 OA
ATOM     11  O3  BDP d1197       7.084   7.301   0.977  0.00  0.00    -0.390 OA
ATOM     12  C4  BDP d1197       7.326   9.659   0.545  0.00  0.00     0.103 C 
ATOM     13  H   BDP d1197       8.055  10.745  -1.114  0.00  0.00     0.104 H 
ATOM     14  H   BDP d1197      10.085   9.092  -1.366  0.00  0.00     0.133 H 
ATOM     15  H   BDP d1197       9.458   8.037   1.361  0.00  0.00     0.094 H 
ATOM     16  H   BDP d1197       9.450   6.790  -1.229  0.00  0.00     0.210 HD
ATOM     17  H   BDP d1197       7.519   8.126  -0.891  0.00  0.00     0.091 H 
ATOM     18  H   BDP d1197       7.332   7.447   1.903  0.00  0.00     0.210 HD
ATOM     19  H   BDP d1197       7.374   9.729   1.611  0.00  0.00     0.092 H 
ATOM     20  O1  ASG d1198       5.974   9.904   0.102  0.00  0.00    -0.348 OA
ATOM     21  O7  ASG d1198       3.608  13.430  -2.112  0.00  0.00    -0.274 OA
ATOM     22  OSB ASG d1198      -0.267   8.492   1.265  0.00  0.00    -0.572 OA
ATOM     23  C3  ASG d1198       2.509  11.033   1.206  0.00  0.00     0.094 C 
ATOM     24  C2  ASG d1198       3.689  10.759   0.261  0.00  0.00     0.087 C 
ATOM     25  S   ASG d1198       0.901   7.873   1.930  0.00  0.00     0.252 S 
ATOM     26  N   ASG d1198       3.901  12.045  -0.397  0.00  0.00    -0.349 N 
ATOM     27  OSA ASG d1198       0.654   7.817   3.389  0.00  0.00    -0.572 OA
ATOM     28  C4  ASG d1198       2.423   9.959   2.283  0.00  0.00     0.114 C 
ATOM     29  C5  ASG d1198       3.773   9.870   2.987  0.00  0.00     0.090 C 
ATOM     30  O4  ASG d1198       2.157   8.713   1.631  0.00  0.00    -0.246 OA
ATOM     31  C8  ASG d1198       2.629  11.280  -2.325  0.00  0.00    -0.003 C 
ATOM     32  C7  ASG d1198       3.412  12.340  -1.605  0.00  0.00     0.214 C 
ATOM     33  C1  ASG d1198       4.998  10.437   1.013  0.00  0.00     0.154 C 
ATOM     34  OSC ASG d1198       1.098   6.502   1.406  0.00  0.00    -0.572 OA
ATOM     35  O6  ASG d1198       2.456   8.979   4.775  0.00  0.00    -0.398 OA
ATOM     36  C6  ASG d1198       3.744   8.902   4.164  0.00  0.00     0.043 C 
ATOM     37  O5  ASG d1198       4.770   9.469   2.042  0.00  0.00    -0.349 OA
ATOM     38  H   ASG d1198       2.696  11.981   1.664  0.00  0.00     0.091 H 
ATOM     39  H   ASG d1198       3.470   9.928  -0.377  0.00  0.00     0.084 H 
ATOM     40  H   ASG d1198       4.430  12.729   0.074  0.00  0.00     0.163 HD
ATOM     41  H   ASG d1198       1.656  10.188   2.994  0.00  0.00     0.093 H 
ATOM     42  H   ASG d1198       4.008  10.836   3.382  0.00  0.00     0.090 H 
ATOM     43  H   ASG d1198       2.305  11.658  -3.272  0.00  0.00     0.040 H 
ATOM     44  H   ASG d1198       1.776  11.007  -1.739  0.00  0.00     0.040 H 
ATOM     45  H   ASG d1198       3.247  10.420  -2.477  0.00  0.00     0.040 H 
ATOM     46  H   ASG d1198       5.353  11.347   1.450  0.00  0.00     0.132 H 
ATOM     47  H   ASG d1198       2.418   8.370   5.528  0.00  0.00     0.209 HD
ATOM     48  H   ASG d1198       4.497   9.173   4.874  0.00  0.00     0.078 H 
ATOM     49  H   ASG d1198       3.932   7.905   3.826  0.00  0.00     0.078 H 
ATOM     50  S   ASG d1196      13.083  10.062   3.362  0.00  0.00     0.252 S 
ATOM     51  OSB ASG d1196      13.288   8.679   3.849  0.00  0.00    -0.572 OA
ATOM     52  C7  ASG d1196      14.107   7.138  -1.765  0.00  0.00     0.214 C 
ATOM     53  C6  ASG d1196      14.014  12.983   1.467  0.00  0.00     0.043 C 
ATOM     54  C8  ASG d1196      14.670   6.598  -0.484  0.00  0.00    -0.003 C 
ATOM     55  O6  ASG d1196      15.252  13.637   1.170  0.00  0.00    -0.398 OA
ATOM     56  C1  ASG d1196      14.856  10.333  -0.968  0.00  0.00     0.151 C 
ATOM     57  O4  ASG d1196      13.435  10.090   1.866  0.00  0.00    -0.246 OA
ATOM     58  C4  ASG d1196      12.746  10.862   0.873  0.00  0.00     0.114 C 
ATOM     59  C3  ASG d1196      12.504   9.873  -0.260  0.00  0.00     0.094 C 
ATOM     60  C5  ASG d1196      13.769  11.902   0.423  0.00  0.00     0.090 C 
ATOM     61  OSA ASG d1196      11.671  10.454   3.581  0.00  0.00    -0.572 OA
ATOM     62  OSC ASG d1196      14.003  10.966   4.096  0.00  0.00    -0.572 OA
ATOM     63  C2  ASG d1196      13.863   9.240  -0.564  0.00  0.00     0.087 C 
ATOM     64  O5  ASG d1196      15.004  11.253   0.111  0.00  0.00    -0.349 OA
ATOM     65  O1  ASG d1196      16.136   9.749  -1.232  0.00  0.00    -0.369 OA
ATOM     66  N   ASG d1196      13.722   8.415  -1.758  0.00  0.00    -0.349 N 
ATOM     67  O7  ASG d1196      14.002   6.438  -2.758  0.00  0.00    -0.274 OA
ATOM     68  H   ASG d1196      14.066  12.539   2.440  0.00  0.00     0.078 H 
ATOM     69  H   ASG d1196      13.213  13.692   1.452  0.00  0.00     0.078 H 
ATOM     70  H   ASG d1196      14.675   7.370   0.257  0.00  0.00     0.040 H 
ATOM     71  H   ASG d1196      15.671   6.257  -0.650  0.00  0.00     0.040 H 
ATOM     72  H   ASG d1196      14.068   5.782  -0.146  0.00  0.00     0.040 H 
ATOM     73  H   ASG d1196      15.973  12.987   1.186  0.00  0.00     0.209 HD
ATOM     74  H   ASG d1196      14.492  10.831  -1.841  0.00  0.00     0.132 H 
ATOM     75  H   ASG d1196      11.836  11.328   1.191  0.00  0.00     0.093 H 
ATOM     76  H   ASG d1196      12.130  10.329  -1.154  0.00  0.00     0.091 H 
ATOM     77  H   ASG d1196      13.367  12.386  -0.443  0.00  0.00     0.090 H 
ATOM     78  H   ASG d1196      14.191   8.695   0.296  0.00  0.00     0.084 H 
ATOM     79  H   ASG d1196      16.458   9.300  -0.434  0.00  0.00     0.212 HD
ATOM     80  H   ASG d1196      13.334   8.806  -2.573  0.00  0.00     0.163 HD
ATOM     81  O3  BDP d1199      -3.036  13.340  -0.243  0.00  0.00    -0.393 OA
ATOM     82  O1  BDP d1199       1.255  11.134   0.510  0.00  0.00    -0.348 OA
ATOM     83  O6A BDP d1199      -0.059  13.668   4.939  0.00  0.00    -0.646 OA
ATOM     84  C4  BDP d1199      -1.996  13.323   1.928  0.00  0.00    -0.005 C 
ATOM     85  O5  BDP d1199       0.262  12.390   2.174  0.00  0.00    -0.343 OA
ATOM     86  C1  BDP d1199       0.478  12.315   0.758  0.00  0.00     0.159 C 
ATOM     87  C5  BDP d1199      -0.661  13.370   2.663  0.00  0.00     0.127 C 
ATOM     88  C2  BDP d1199      -0.834  12.313  -0.030  0.00  0.00     0.107 C 
ATOM     89  C3  BDP d1199      -1.772  13.427   0.428  0.00  0.00     0.068 C 
ATOM     90  C6  BDP d1199      -0.863  13.144   4.135  0.00  0.00     0.203 C 
ATOM     91  O2  BDP d1199      -0.547  12.489  -1.420  0.00  0.00    -0.388 OA
ATOM     92  O6B BDP d1199      -1.816  12.426   4.510  0.00  0.00    -0.646 OA
ATOM     93  H   BDP d1199      -3.614  14.055   0.062  0.00  0.00     0.210 HD
ATOM     94  H   BDP d1199      -2.490  12.399   2.149  0.00  0.00     0.041 H 
ATOM     95  H   BDP d1199      -2.601  14.146   2.250  0.00  0.00     0.041 H 
ATOM     96  H   BDP d1199       1.005  13.185   0.422  0.00  0.00     0.133 H 
ATOM     97  H   BDP d1199      -0.249  14.342   2.488  0.00  0.00     0.100 H 
ATOM     98  H   BDP d1199      -1.322  11.377   0.142  0.00  0.00     0.094 H 
ATOM     99  H   BDP d1199      -1.319  14.367   0.188  0.00  0.00     0.087 H 
ATOM    100  H   BDP d1199      -0.107  13.343  -1.554  0.00  0.00     0.210 HD
ENDROOT
TORSDOF 25
ENDMDL
MODEL 53
REMARK VINA RESULT:      -3.9      2.706     12.284
REMARK  0 active torsions:
REMARK  status: ('A' for Active; 'I' for Inactive)
REMARK       I    between atoms: C5_1  and  C6_46 
REMARK       I    between atoms: O1_2  and  C4_60 
REMARK       I    between atoms: O1_2  and  C1_47 
REMARK       I    between atoms: S_3  and  O4_24 
REMARK       I    between atoms: C7_6  and  C8_11 
REMARK       I    between atoms: C7_6  and  N_48 
REMARK       I    between atoms: O3_7  and  C3_41 
REMARK       I    between atoms: O1_9  and  C3_31 
REMARK       I    between atoms: O1_9  and  C1_19 
REMARK       I    between atoms: C6_10  and  C5_34 
REMARK       I    between atoms: C6_10  and  O6_12 
REMARK       I    between atoms: C3_13  and  O1_16 
REMARK       I    between atoms: C2_14  and  N_20 
REMARK       I    between atoms: C1_15  and  O1_45 
REMARK       I    between atoms: O1_16  and  C1_29 
REMARK       I    between atoms: S_17  and  O4_30 
REMARK       I    between atoms: N_20  and  C7_40 
REMARK       I    between atoms: C4_22  and  O4_30 
REMARK       I    between atoms: O4_24  and  C4_28 
REMARK       I    between atoms: C5_25  and  C6_55 
REMARK       I    between atoms: C2_32  and  O2_39 
REMARK       I    between atoms: C5_33  and  C6_51 
REMARK       I    between atoms: C2_36  and  O2_56 
REMARK       I    between atoms: C8_37  and  C7_40 
REMARK       I    between atoms: C2_43  and  N_48 
REMARK       I    between atoms: C3_50  and  O3_53 
REMARK       I    between atoms: O6_54  and  C6_55 
ROOT
ATOM      1  C5  BDP d1197       4.052  10.274  -0.649  0.00  0.00     0.152 C 
ATOM      2  O1  BDP d1197       1.444  11.088  -3.146  0.00  0.00    -0.348 OA
ATOM      3  C1  BDP d1197       2.474  10.281  -2.543  0.00  0.00     0.160 C 
ATOM      4  O5  BDP d1197       2.886  10.826  -1.283  0.00  0.00    -0.340 OA
ATOM      5  C2  BDP d1197       3.654  10.204  -3.514  0.00  0.00     0.110 C 
ATOM      6  O6A BDP d1197       4.475  10.744   1.640  0.00  0.00    -0.646 OA
ATOM      7  O2  BDP d1197       3.264   9.455  -4.673  0.00  0.00    -0.388 OA
ATOM      8  C6  BDP d1197       4.413  11.197   0.475  0.00  0.00     0.206 C 
ATOM      9  C3  BDP d1197       4.920   9.592  -2.911  0.00  0.00     0.092 C 
ATOM     10  O6B BDP d1197       4.652  12.391   0.190  0.00  0.00    -0.646 OA
ATOM     11  O3  BDP d1197       6.001   9.828  -3.823  0.00  0.00    -0.390 OA
ATOM     12  C4  BDP d1197       5.281  10.193  -1.553  0.00  0.00     0.103 C 
ATOM     13  H   BDP d1197       3.805   9.277  -0.352  0.00  0.00     0.104 H 
ATOM     14  H   BDP d1197       2.095   9.299  -2.350  0.00  0.00     0.133 H 
ATOM     15  H   BDP d1197       3.903  11.213  -3.767  0.00  0.00     0.094 H 
ATOM     16  H   BDP d1197       3.045   8.547  -4.413  0.00  0.00     0.210 HD
ATOM     17  H   BDP d1197       4.744   8.547  -2.756  0.00  0.00     0.091 H 
ATOM     18  H   BDP d1197       6.127  10.783  -3.935  0.00  0.00     0.210 HD
ATOM     19  H   BDP d1197       5.655  11.182  -1.719  0.00  0.00     0.092 H 
ATOM     20  O1  ASG d1198       6.293   9.393  -0.907  0.00  0.00    -0.348 OA
ATOM     21  O7  ASG d1198       7.058   7.581   3.459  0.00  0.00    -0.274 OA
ATOM     22  OSB ASG d1198      12.608   7.837  -1.008  0.00  0.00    -0.572 OA
ATOM     23  C3  ASG d1198       9.717   9.478   0.757  0.00  0.00     0.094 C 
ATOM     24  C2  ASG d1198       8.307   8.972   0.413  0.00  0.00     0.087 C 
ATOM     25  S   ASG d1198      11.902   8.666  -2.010  0.00  0.00     0.252 S 
ATOM     26  N   ASG d1198       7.673   8.823   1.719  0.00  0.00    -0.349 N 
ATOM     27  OSA ASG d1198      12.718   9.865  -2.306  0.00  0.00    -0.572 OA
ATOM     28  C4  ASG d1198      10.376  10.106  -0.464  0.00  0.00     0.114 C 
ATOM     29  C5  ASG d1198       9.448  11.184  -1.015  0.00  0.00     0.090 C 
ATOM     30  O4  ASG d1198      10.528   9.078  -1.449  0.00  0.00    -0.246 OA
ATOM     31  C8  ASG d1198       8.159   6.439   1.694  0.00  0.00    -0.003 C 
ATOM     32  C7  ASG d1198       7.590   7.656   2.366  0.00  0.00     0.214 C 
ATOM     33  C1  ASG d1198       7.469  10.013  -0.359  0.00  0.00     0.154 C 
ATOM     34  OSC ASG d1198      11.705   7.880  -3.250  0.00  0.00    -0.572 OA
ATOM     35  O6  ASG d1198      11.481  12.064  -1.918  0.00  0.00    -0.398 OA
ATOM     36  C6  ASG d1198      10.081  11.950  -2.170  0.00  0.00     0.043 C 
ATOM     37  O5  ASG d1198       8.222  10.578  -1.436  0.00  0.00    -0.349 OA
ATOM     38  H   ASG d1198       9.599  10.220   1.519  0.00  0.00     0.091 H 
ATOM     39  H   ASG d1198       8.365   8.092  -0.192  0.00  0.00     0.084 H 
ATOM     40  H   ASG d1198       7.288   9.622   2.146  0.00  0.00     0.163 HD
ATOM     41  H   ASG d1198      11.323  10.535  -0.213  0.00  0.00     0.093 H 
ATOM     42  H   ASG d1198       9.259  11.892  -0.235  0.00  0.00     0.090 H 
ATOM     43  H   ASG d1198       8.020   5.587   2.326  0.00  0.00     0.040 H 
ATOM     44  H   ASG d1198       9.204   6.585   1.516  0.00  0.00     0.040 H 
ATOM     45  H   ASG d1198       7.657   6.278   0.763  0.00  0.00     0.040 H 
ATOM     46  H   ASG d1198       7.195  10.784   0.330  0.00  0.00     0.132 H 
ATOM     47  H   ASG d1198      11.902  12.551  -2.644  0.00  0.00     0.209 HD
ATOM     48  H   ASG d1198       9.645  12.925  -2.239  0.00  0.00     0.078 H 
ATOM     49  H   ASG d1198       9.913  11.433  -3.092  0.00  0.00     0.078 H 
ATOM     50  S   ASG d1196       1.140  14.846  -3.119  0.00  0.00     0.252 S 
ATOM     51  OSB ASG d1196       1.343  14.962  -4.582  0.00  0.00    -0.572 OA
ATOM     52  C7  ASG d1196      -1.435   9.805  -5.076  0.00  0.00     0.214 C 
ATOM     53  C6  ASG d1196      -0.868  14.308  -0.176  0.00  0.00     0.043 C 
ATOM     54  C8  ASG d1196      -1.357  10.993  -5.988  0.00  0.00    -0.003 C 
ATOM     55  O6  ASG d1196      -2.199  14.663   0.212  0.00  0.00    -0.398 OA
ATOM     56  C1  ASG d1196      -2.238  11.682  -2.387  0.00  0.00     0.151 C 
ATOM     57  O4  ASG d1196       0.218  13.642  -2.867  0.00  0.00    -0.246 OA
ATOM     58  C4  ASG d1196       0.337  12.733  -1.765  0.00  0.00     0.114 C 
ATOM     59  C3  ASG d1196       0.239  11.357  -2.412  0.00  0.00     0.094 C 
ATOM     60  C5  ASG d1196      -0.915  12.985  -0.927  0.00  0.00     0.090 C 
ATOM     61  OSA ASG d1196       2.452  14.656  -2.458  0.00  0.00    -0.572 OA
ATOM     62  OSC ASG d1196       0.476  16.080  -2.632  0.00  0.00    -0.572 OA
ATOM     63  C2  ASG d1196      -1.025  11.384  -3.272  0.00  0.00     0.087 C 
ATOM     64  O5  ASG d1196      -2.068  12.957  -1.772  0.00  0.00    -0.349 OA
ATOM     65  O1  ASG d1196      -3.422  11.732  -3.190  0.00  0.00    -0.369 OA
ATOM     66  N   ASG d1196      -1.261  10.036  -3.775  0.00  0.00    -0.349 N 
ATOM     67  O7  ASG d1196      -1.641   8.684  -5.511  0.00  0.00    -0.274 OA
ATOM     68  H   ASG d1196      -0.463  15.069  -0.811  0.00  0.00     0.078 H 
ATOM     69  H   ASG d1196      -0.248  14.213   0.691  0.00  0.00     0.078 H 
ATOM     70  H   ASG d1196      -1.171  11.874  -5.410  0.00  0.00     0.040 H 
ATOM     71  H   ASG d1196      -2.282  11.100  -6.514  0.00  0.00     0.040 H 
ATOM     72  H   ASG d1196      -0.562  10.853  -6.690  0.00  0.00     0.040 H 
ATOM     73  H   ASG d1196      -2.755  14.747  -0.579  0.00  0.00     0.209 HD
ATOM     74  H   ASG d1196      -2.327  10.915  -1.647  0.00  0.00     0.132 H 
ATOM     75  H   ASG d1196       1.224  12.828  -1.173  0.00  0.00     0.093 H 
ATOM     76  H   ASG d1196       0.156  10.557  -1.705  0.00  0.00     0.091 H 
ATOM     77  H   ASG d1196      -0.965  12.207  -0.194  0.00  0.00     0.090 H 
ATOM     78  H   ASG d1196      -0.902  12.113  -4.045  0.00  0.00     0.084 H 
ATOM     79  H   ASG d1196      -3.331  12.430  -3.858  0.00  0.00     0.212 HD
ATOM     80  H   ASG d1196      -1.291   9.283  -3.142  0.00  0.00     0.163 HD
ATOM     81  O3  BDP d1199      13.836   6.887   4.562  0.00  0.00    -0.393 OA
ATOM     82  O1  BDP d1199      10.559   8.444   1.295  0.00  0.00    -0.348 OA
ATOM     83  O6A BDP d1199      13.172  12.651   3.095  0.00  0.00    -0.646 OA
ATOM     84  C4  BDP d1199      13.768   9.185   3.851  0.00  0.00    -0.005 C 
ATOM     85  O5  BDP d1199      11.951   9.935   2.378  0.00  0.00    -0.343 OA
ATOM     86  C1  BDP d1199      11.198   8.727   2.549  0.00  0.00     0.159 C 
ATOM     87  C5  BDP d1199      12.847  10.324   3.426  0.00  0.00     0.127 C 
ATOM     88  C2  BDP d1199      12.071   7.561   3.022  0.00  0.00     0.107 C 
ATOM     89  C3  BDP d1199      12.949   7.954   4.207  0.00  0.00     0.068 C 
ATOM     90  C6  BDP d1199      13.651  11.503   2.955  0.00  0.00     0.203 C 
ATOM     91  O2  BDP d1199      11.229   6.471   3.409  0.00  0.00    -0.388 OA
ATOM     92  O6B BDP d1199      14.764  11.300   2.422  0.00  0.00    -0.646 OA
ATOM     93  H   BDP d1199      14.383   7.158   5.316  0.00  0.00     0.210 HD
ATOM     94  H   BDP d1199      14.431   8.948   3.045  0.00  0.00     0.041 H 
ATOM     95  H   BDP d1199      14.330   9.492   4.708  0.00  0.00     0.041 H 
ATOM     96  H   BDP d1199      10.466   8.857   3.319  0.00  0.00     0.133 H 
ATOM     97  H   BDP d1199      12.268  10.587   4.288  0.00  0.00     0.100 H 
ATOM     98  H   BDP d1199      12.712   7.278   2.213  0.00  0.00     0.094 H 
ATOM     99  H   BDP d1199      12.312   8.166   5.041  0.00  0.00     0.087 H 
ATOM    100  H   BDP d1199      10.659   6.748   4.142  0.00  0.00     0.210 HD
ENDROOT
TORSDOF 25
ENDMDL
MODEL 54
REMARK VINA RESULT:      -3.9      2.978      5.713
REMARK  0 active torsions:
REMARK  status: ('A' for Active; 'I' for Inactive)
REMARK       I    between atoms: C5_1  and  C6_46 
REMARK       I    between atoms: O1_2  and  C4_60 
REMARK       I    between atoms: O1_2  and  C1_47 
REMARK       I    between atoms: S_3  and  O4_24 
REMARK       I    between atoms: C7_6  and  C8_11 
REMARK       I    between atoms: C7_6  and  N_48 
REMARK       I    between atoms: O3_7  and  C3_41 
REMARK       I    between atoms: O1_9  and  C3_31 
REMARK       I    between atoms: O1_9  and  C1_19 
REMARK       I    between atoms: C6_10  and  C5_34 
REMARK       I    between atoms: C6_10  and  O6_12 
REMARK       I    between atoms: C3_13  and  O1_16 
REMARK       I    between atoms: C2_14  and  N_20 
REMARK       I    between atoms: C1_15  and  O1_45 
REMARK       I    between atoms: O1_16  and  C1_29 
REMARK       I    between atoms: S_17  and  O4_30 
REMARK       I    between atoms: N_20  and  C7_40 
REMARK       I    between atoms: C4_22  and  O4_30 
REMARK       I    between atoms: O4_24  and  C4_28 
REMARK       I    between atoms: C5_25  and  C6_55 
REMARK       I    between atoms: C2_32  and  O2_39 
REMARK       I    between atoms: C5_33  and  C6_51 
REMARK       I    between atoms: C2_36  and  O2_56 
REMARK       I    between atoms: C8_37  and  C7_40 
REMARK       I    between atoms: C2_43  and  N_48 
REMARK       I    between atoms: C3_50  and  O3_53 
REMARK       I    between atoms: O6_54  and  C6_55 
ROOT
ATOM      1  C5  BDP d1197       7.512  12.209  -1.825  0.00  0.00     0.152 C 
ATOM      2  O1  BDP d1197      10.923  12.473  -3.238  0.00  0.00    -0.348 OA
ATOM      3  C1  BDP d1197       9.528  12.810  -3.111  0.00  0.00     0.160 C 
ATOM      4  O5  BDP d1197       8.941  12.160  -1.976  0.00  0.00    -0.340 OA
ATOM      5  C2  BDP d1197       8.815  12.400  -4.401  0.00  0.00     0.110 C 
ATOM      6  O6A BDP d1197       6.535  11.635   0.261  0.00  0.00    -0.646 OA
ATOM      7  O2  BDP d1197       9.273  13.229  -5.478  0.00  0.00    -0.388 OA
ATOM      8  C6  BDP d1197       7.156  11.230  -0.747  0.00  0.00     0.206 C 
ATOM      9  C3  BDP d1197       7.288  12.464  -4.319  0.00  0.00     0.092 C 
ATOM     10  O6B BDP d1197       7.490  10.037  -0.914  0.00  0.00    -0.646 OA
ATOM     11  O3  BDP d1197       6.757  11.807  -5.477  0.00  0.00    -0.390 OA
ATOM     12  C4  BDP d1197       6.733  11.784  -3.068  0.00  0.00     0.103 C 
ATOM     13  H   BDP d1197       7.254  13.225  -1.615  0.00  0.00     0.104 H 
ATOM     14  H   BDP d1197       9.425  13.864  -2.956  0.00  0.00     0.133 H 
ATOM     15  H   BDP d1197       9.062  11.372  -4.569  0.00  0.00     0.094 H 
ATOM     16  H   BDP d1197       9.036  14.153  -5.298  0.00  0.00     0.210 HD
ATOM     17  H   BDP d1197       7.001  13.494  -4.272  0.00  0.00     0.091 H 
ATOM     18  H   BDP d1197       7.040  10.879  -5.482  0.00  0.00     0.210 HD
ATOM     19  H   BDP d1197       6.833  10.726  -3.195  0.00  0.00     0.092 H 
ATOM     20  O1  ASG d1198       5.341  12.122  -2.894  0.00  0.00    -0.348 OA
ATOM     21  O7  ASG d1198       2.508  13.527   0.702  0.00  0.00    -0.274 OA
ATOM     22  OSB ASG d1198      -0.649  11.034  -5.183  0.00  0.00    -0.572 OA
ATOM     23  C3  ASG d1198       1.846  10.699  -2.385  0.00  0.00     0.094 C 
ATOM     24  C2  ASG d1198       2.993  11.721  -2.343  0.00  0.00     0.087 C 
ATOM     25  S   ASG d1198       0.611  10.543  -5.783  0.00  0.00     0.252 S 
ATOM     26  N   ASG d1198       3.036  12.124  -0.941  0.00  0.00    -0.349 N 
ATOM     27  OSA ASG d1198       0.453   9.116  -6.139  0.00  0.00    -0.572 OA
ATOM     28  C4  ASG d1198       1.930   9.848  -3.645  0.00  0.00     0.114 C 
ATOM     29  C5  ASG d1198       3.320   9.222  -3.716  0.00  0.00     0.090 C 
ATOM     30  O4  ASG d1198       1.756  10.718  -4.767  0.00  0.00    -0.246 OA
ATOM     31  C8  ASG d1198       1.742  14.117  -1.465  0.00  0.00    -0.003 C 
ATOM     32  C7  ASG d1198       2.453  13.234  -0.479  0.00  0.00     0.214 C 
ATOM     33  C1  ASG d1198       4.368  11.091  -2.654  0.00  0.00     0.154 C 
ATOM     34  OSC ASG d1198       0.917  11.329  -7.000  0.00  0.00    -0.572 OA
ATOM     35  O6  ASG d1198       2.202   7.595  -5.067  0.00  0.00    -0.398 OA
ATOM     36  C6  ASG d1198       3.454   8.254  -4.885  0.00  0.00     0.043 C 
ATOM     37  O5  ASG d1198       4.298  10.261  -3.818  0.00  0.00    -0.349 OA
ATOM     38  H   ASG d1198       1.960  10.074  -1.525  0.00  0.00     0.091 H 
ATOM     39  H   ASG d1198       2.825  12.498  -3.058  0.00  0.00     0.084 H 
ATOM     40  H   ASG d1198       3.518  11.549  -0.304  0.00  0.00     0.163 HD
ATOM     41  H   ASG d1198       1.185   9.079  -3.641  0.00  0.00     0.093 H 
ATOM     42  H   ASG d1198       3.476   8.656  -2.821  0.00  0.00     0.090 H 
ATOM     43  H   ASG d1198       1.329  14.961  -0.954  0.00  0.00     0.040 H 
ATOM     44  H   ASG d1198       0.956  13.565  -1.936  0.00  0.00     0.040 H 
ATOM     45  H   ASG d1198       2.436  14.455  -2.206  0.00  0.00     0.040 H 
ATOM     46  H   ASG d1198       4.652  10.500  -1.810  0.00  0.00     0.132 H 
ATOM     47  H   ASG d1198       2.268   6.973  -5.809  0.00  0.00     0.209 HD
ATOM     48  H   ASG d1198       4.215   7.532  -4.671  0.00  0.00     0.078 H 
ATOM     49  H   ASG d1198       3.725   8.785  -5.774  0.00  0.00     0.078 H 
ATOM     50  S   ASG d1196      12.568   9.147  -2.568  0.00  0.00     0.252 S 
ATOM     51  OSB ASG d1196      12.939   8.944  -3.987  0.00  0.00    -0.572 OA
ATOM     52  C7  ASG d1196      13.596  14.775  -4.342  0.00  0.00     0.214 C 
ATOM     53  C6  ASG d1196      13.089  10.472   0.742  0.00  0.00     0.043 C 
ATOM     54  C8  ASG d1196      14.282  13.644  -5.048  0.00  0.00    -0.003 C 
ATOM     55  O6  ASG d1196      14.236  10.681   1.573  0.00  0.00    -0.398 OA
ATOM     56  C1  ASG d1196      14.059  13.402  -1.292  0.00  0.00     0.151 C 
ATOM     57  O4  ASG d1196      12.831  10.621  -2.220  0.00  0.00    -0.246 OA
ATOM     58  C4  ASG d1196      12.012  11.420  -1.355  0.00  0.00     0.114 C 
ATOM     59  C3  ASG d1196      11.810  12.714  -2.134  0.00  0.00     0.094 C 
ATOM     60  C5  ASG d1196      12.898  11.697  -0.143  0.00  0.00     0.090 C 
ATOM     61  OSA ASG d1196      11.138   8.806  -2.383  0.00  0.00    -0.572 OA
ATOM     62  OSC ASG d1196      13.430   8.285  -1.723  0.00  0.00    -0.572 OA
ATOM     63  C2  ASG d1196      13.207  13.183  -2.544  0.00  0.00     0.087 C 
ATOM     64  O5  ASG d1196      14.173  12.172  -0.581  0.00  0.00    -0.349 OA
ATOM     65  O1  ASG d1196      15.375  13.819  -1.670  0.00  0.00    -0.369 OA
ATOM     66  N   ASG d1196      13.084  14.507  -3.140  0.00  0.00    -0.349 N 
ATOM     67  O7  ASG d1196      13.508  15.881  -4.850  0.00  0.00    -0.274 OA
ATOM     68  H   ASG d1196      13.240   9.606   0.131  0.00  0.00     0.078 H 
ATOM     69  H   ASG d1196      12.221  10.322   1.349  0.00  0.00     0.078 H 
ATOM     70  H   ASG d1196      14.249  12.768  -4.434  0.00  0.00     0.040 H 
ATOM     71  H   ASG d1196      15.301  13.908  -5.239  0.00  0.00     0.040 H 
ATOM     72  H   ASG d1196      13.785  13.448  -5.975  0.00  0.00     0.040 H 
ATOM     73  H   ASG d1196      15.018  10.816   1.016  0.00  0.00     0.209 HD
ATOM     74  H   ASG d1196      13.598  14.149  -0.682  0.00  0.00     0.132 H 
ATOM     75  H   ASG d1196      11.079  10.987  -1.062  0.00  0.00     0.093 H 
ATOM     76  H   ASG d1196      11.342  13.489  -1.562  0.00  0.00     0.091 H 
ATOM     77  H   ASG d1196      12.401  12.438   0.448  0.00  0.00     0.090 H 
ATOM     78  H   ASG d1196      13.636  12.457  -3.202  0.00  0.00     0.084 H 
ATOM     79  H   ASG d1196      15.785  13.135  -2.223  0.00  0.00     0.212 HD
ATOM     80  H   ASG d1196      12.613  15.218  -2.647  0.00  0.00     0.163 HD
ATOM     81  O3  BDP d1199      -3.977  11.478  -0.474  0.00  0.00    -0.393 OA
ATOM     82  O1  BDP d1199       0.551  11.318  -2.293  0.00  0.00    -0.348 OA
ATOM     83  O6A BDP d1199      -0.765   6.438  -0.801  0.00  0.00    -0.646 OA
ATOM     84  C4  BDP d1199      -2.822   9.389  -0.784  0.00  0.00    -0.005 C 
ATOM     85  O5  BDP d1199      -0.470   9.408  -1.492  0.00  0.00    -0.343 OA
ATOM     86  C1  BDP d1199      -0.327  10.818  -1.274  0.00  0.00     0.159 C 
ATOM     87  C5  BDP d1199      -1.459   8.706  -0.729  0.00  0.00     0.127 C 
ATOM     88  C2  BDP d1199      -1.674  11.545  -1.272  0.00  0.00     0.107 C 
ATOM     89  C3  BDP d1199      -2.694  10.848  -0.375  0.00  0.00     0.068 C 
ATOM     90  C6  BDP d1199      -1.555   7.299  -1.250  0.00  0.00     0.203 C 
ATOM     91  O2  BDP d1199      -1.485  12.884  -0.806  0.00  0.00    -0.388 OA
ATOM     92  O6B BDP d1199      -2.407   7.037  -2.127  0.00  0.00    -0.646 OA
ATOM     93  H   BDP d1199      -4.608  11.019   0.102  0.00  0.00     0.210 HD
ATOM     94  H   BDP d1199      -3.205   9.334  -1.782  0.00  0.00     0.041 H 
ATOM     95  H   BDP d1199      -3.488   8.893  -0.110  0.00  0.00     0.041 H 
ATOM     96  H   BDP d1199       0.089  10.998  -0.304  0.00  0.00     0.133 H 
ATOM     97  H   BDP d1199      -1.159   8.705   0.298  0.00  0.00     0.100 H 
ATOM     98  H   BDP d1199      -2.054  11.541  -2.273  0.00  0.00     0.094 H 
ATOM     99  H   BDP d1199      -2.353  10.917   0.637  0.00  0.00     0.087 H 
ATOM    100  H   BDP d1199      -1.142  12.865   0.100  0.00  0.00     0.210 HD
ENDROOT
TORSDOF 25
ENDMDL
MODEL 55
REMARK VINA RESULT:      -3.8      2.297      2.851
REMARK  0 active torsions:
REMARK  status: ('A' for Active; 'I' for Inactive)
REMARK       I    between atoms: C5_1  and  C6_46 
REMARK       I    between atoms: O1_2  and  C4_60 
REMARK       I    between atoms: O1_2  and  C1_47 
REMARK       I    between atoms: S_3  and  O4_24 
REMARK       I    between atoms: C7_6  and  C8_11 
REMARK       I    between atoms: C7_6  and  N_48 
REMARK       I    between atoms: O3_7  and  C3_41 
REMARK       I    between atoms: O1_9  and  C3_31 
REMARK       I    between atoms: O1_9  and  C1_19 
REMARK       I    between atoms: C6_10  and  C5_34 
REMARK       I    between atoms: C6_10  and  O6_12 
REMARK       I    between atoms: C3_13  and  O1_16 
REMARK       I    between atoms: C2_14  and  N_20 
REMARK       I    between atoms: C1_15  and  O1_45 
REMARK       I    between atoms: O1_16  and  C1_29 
REMARK       I    between atoms: S_17  and  O4_30 
REMARK       I    between atoms: N_20  and  C7_40 
REMARK       I    between atoms: C4_22  and  O4_30 
REMARK       I    between atoms: O4_24  and  C4_28 
REMARK       I    between atoms: C5_25  and  C6_55 
REMARK       I    between atoms: C2_32  and  O2_39 
REMARK       I    between atoms: C5_33  and  C6_51 
REMARK       I    between atoms: C2_36  and  O2_56 
REMARK       I    between atoms: C8_37  and  C7_40 
REMARK       I    between atoms: C2_43  and  N_48 
REMARK       I    between atoms: C3_50  and  O3_53 
REMARK       I    between atoms: O6_54  and  C6_55 
ROOT
ATOM      1  C5  BDP d1197       4.846  10.129  -1.717  0.00  0.00     0.152 C 
ATOM      2  O1  BDP d1197       7.671   9.690   0.635  0.00  0.00    -0.348 OA
ATOM      3  C1  BDP d1197       6.558   9.257  -0.173  0.00  0.00     0.160 C 
ATOM      4  O5  BDP d1197       6.083  10.319  -1.010  0.00  0.00    -0.340 OA
ATOM      5  C2  BDP d1197       5.452   8.763   0.760  0.00  0.00     0.110 C 
ATOM      6  O6A BDP d1197       4.280  11.590  -3.501  0.00  0.00    -0.646 OA
ATOM      7  O2  BDP d1197       5.887   7.565   1.418  0.00  0.00    -0.388 OA
ATOM      8  C6  BDP d1197       4.451  11.466  -2.268  0.00  0.00     0.206 C 
ATOM      9  C3  BDP d1197       4.114   8.506   0.062  0.00  0.00     0.092 C 
ATOM     10  O6B BDP d1197       4.295  12.403  -1.455  0.00  0.00    -0.646 OA
ATOM     11  O3  BDP d1197       3.118   8.316   1.075  0.00  0.00    -0.390 OA
ATOM     12  C4  BDP d1197       3.685   9.662  -0.841  0.00  0.00     0.103 C 
ATOM     13  H   BDP d1197       5.019   9.371  -2.453  0.00  0.00     0.104 H 
ATOM     14  H   BDP d1197       6.871   8.464  -0.820  0.00  0.00     0.133 H 
ATOM     15  H   BDP d1197       5.274   9.550   1.462  0.00  0.00     0.094 H 
ATOM     16  H   BDP d1197       6.039   6.871   0.758  0.00  0.00     0.210 HD
ATOM     17  H   BDP d1197       4.225   7.643  -0.562  0.00  0.00     0.091 H 
ATOM     18  H   BDP d1197       3.049   9.119   1.616  0.00  0.00     0.210 HD
ATOM     19  H   BDP d1197       3.376  10.473  -0.215  0.00  0.00     0.092 H 
ATOM     20  O1  ASG d1198       2.588   9.254  -1.685  0.00  0.00    -0.348 OA
ATOM     21  O7  ASG d1198       1.410   9.627  -6.312  0.00  0.00    -0.274 OA
ATOM     22  OSB ASG d1198      -3.773   7.899  -1.733  0.00  0.00    -0.572 OA
ATOM     23  C3  ASG d1198      -0.940  10.126  -2.820  0.00  0.00     0.094 C 
ATOM     24  C2  ASG d1198       0.463   9.502  -2.867  0.00  0.00     0.087 C 
ATOM     25  S   ASG d1198      -2.954   8.175  -0.532  0.00  0.00     0.252 S 
ATOM     26  N   ASG d1198       0.990   9.954  -4.151  0.00  0.00    -0.349 N 
ATOM     27  OSA ASG d1198      -3.683   9.120   0.344  0.00  0.00    -0.572 OA
ATOM     28  C4  ASG d1198      -1.474  10.140  -1.393  0.00  0.00     0.114 C 
ATOM     29  C5  ASG d1198      -0.453  10.840  -0.501  0.00  0.00     0.090 C 
ATOM     30  O4  ASG d1198      -1.606   8.780  -0.968  0.00  0.00    -0.246 OA
ATOM     31  C8  ASG d1198       0.386   7.823  -5.160  0.00  0.00    -0.003 C 
ATOM     32  C7  ASG d1198       0.965   9.206  -5.259  0.00  0.00     0.214 C 
ATOM     33  C1  ASG d1198       1.409  10.070  -1.788  0.00  0.00     0.154 C 
ATOM     34  OSC ASG d1198      -2.706   6.910   0.197  0.00  0.00    -0.572 OA
ATOM     35  O6  ASG d1198      -2.366  11.241   0.879  0.00  0.00    -0.398 OA
ATOM     36  C6  ASG d1198      -0.959  11.008   0.927  0.00  0.00     0.043 C 
ATOM     37  O5  ASG d1198       0.768  10.094  -0.509  0.00  0.00    -0.349 OA
ATOM     38  H   ASG d1198      -0.841  11.131  -3.172  0.00  0.00     0.091 H 
ATOM     39  H   ASG d1198       0.405   8.444  -2.722  0.00  0.00     0.084 H 
ATOM     40  H   ASG d1198       1.384  10.854  -4.205  0.00  0.00     0.163 HD
ATOM     41  H   ASG d1198      -2.414  10.649  -1.338  0.00  0.00     0.093 H 
ATOM     42  H   ASG d1198      -0.287  11.822  -0.891  0.00  0.00     0.090 H 
ATOM     43  H   ASG d1198       0.433   7.348  -6.117  0.00  0.00     0.040 H 
ATOM     44  H   ASG d1198      -0.634   7.885  -4.843  0.00  0.00     0.040 H 
ATOM     45  H   ASG d1198       0.946   7.251  -4.451  0.00  0.00     0.040 H 
ATOM     46  H   ASG d1198       1.670  11.066  -2.077  0.00  0.00     0.132 H 
ATOM     47  H   ASG d1198      -2.707  11.351   1.781  0.00  0.00     0.209 HD
ATOM     48  H   ASG d1198      -0.470  11.840   1.389  0.00  0.00     0.078 H 
ATOM     49  H   ASG d1198      -0.750  10.127   1.498  0.00  0.00     0.078 H 
ATOM     50  S   ASG d1196       8.164  13.048   2.277  0.00  0.00     0.252 S 
ATOM     51  OSB ASG d1196       8.077  12.491   3.646  0.00  0.00    -0.572 OA
ATOM     52  C7  ASG d1196      10.615   7.636   1.514  0.00  0.00     0.214 C 
ATOM     53  C6  ASG d1196       9.918  13.878  -0.759  0.00  0.00     0.043 C 
ATOM     54  C8  ASG d1196      10.666   8.283   2.866  0.00  0.00    -0.003 C 
ATOM     55  O6  ASG d1196      11.234  14.354  -1.063  0.00  0.00    -0.398 OA
ATOM     56  C1  ASG d1196      11.312  10.519  -0.101  0.00  0.00     0.151 C 
ATOM     57  O4  ASG d1196       9.002  12.078   1.428  0.00  0.00    -0.246 OA
ATOM     58  C4  ASG d1196       8.755  11.769   0.050  0.00  0.00     0.114 C 
ATOM     59  C3  ASG d1196       8.830  10.248  -0.004  0.00  0.00     0.094 C 
ATOM     60  C5  ASG d1196       9.953  12.357  -0.692  0.00  0.00     0.090 C 
ATOM     61  OSA ASG d1196       6.799  13.195   1.720  0.00  0.00    -0.572 OA
ATOM     62  OSC ASG d1196       8.853  14.360   2.341  0.00  0.00    -0.572 OA
ATOM     63  C2  ASG d1196      10.154   9.867   0.659  0.00  0.00     0.087 C 
ATOM     64  O5  ASG d1196      11.162  11.936  -0.057  0.00  0.00    -0.349 OA
ATOM     65  O1  ASG d1196      12.553  10.184   0.530  0.00  0.00    -0.369 OA
ATOM     66  N   ASG d1196      10.357   8.435   0.478  0.00  0.00    -0.349 N 
ATOM     67  O7  ASG d1196      10.795   6.438   1.376  0.00  0.00    -0.274 OA
ATOM     68  H   ASG d1196       9.602  14.273   0.184  0.00  0.00     0.078 H 
ATOM     69  H   ASG d1196       9.232  14.194  -1.516  0.00  0.00     0.078 H 
ATOM     70  H   ASG d1196      10.483   9.332   2.766  0.00  0.00     0.040 H 
ATOM     71  H   ASG d1196      11.631   8.129   3.299  0.00  0.00     0.040 H 
ATOM     72  H   ASG d1196       9.919   7.850   3.497  0.00  0.00     0.040 H 
ATOM     73  H   ASG d1196      11.850  14.064  -0.372  0.00  0.00     0.209 HD
ATOM     74  H   ASG d1196      11.307  10.169  -1.111  0.00  0.00     0.132 H 
ATOM     75  H   ASG d1196       7.833  12.132  -0.354  0.00  0.00     0.093 H 
ATOM     76  H   ASG d1196       8.819   9.854  -0.999  0.00  0.00     0.091 H 
ATOM     77  H   ASG d1196       9.908  11.996  -1.699  0.00  0.00     0.090 H 
ATOM     78  H   ASG d1196      10.126  10.167   1.686  0.00  0.00     0.084 H 
ATOM     79  H   ASG d1196      12.547  10.505   1.445  0.00  0.00     0.212 HD
ATOM     80  H   ASG d1196      10.301   8.049  -0.427  0.00  0.00     0.163 HD
ATOM     81  O3  BDP d1199      -5.458   9.592  -6.999  0.00  0.00    -0.393 OA
ATOM     82  O1  BDP d1199      -1.872   9.460  -3.688  0.00  0.00    -0.348 OA
ATOM     83  O6A BDP d1199      -4.392  14.057  -3.159  0.00  0.00    -0.646 OA
ATOM     84  C4  BDP d1199      -5.219  11.318  -5.338  0.00  0.00    -0.005 C 
ATOM     85  O5  BDP d1199      -3.262  11.296  -3.854  0.00  0.00    -0.343 OA
ATOM     86  C1  BDP d1199      -2.587  10.287  -4.618  0.00  0.00     0.159 C 
ATOM     87  C5  BDP d1199      -4.211  12.129  -4.530  0.00  0.00     0.127 C 
ATOM     88  C2  BDP d1199      -3.551   9.473  -5.485  0.00  0.00     0.107 C 
ATOM     89  C3  BDP d1199      -4.493  10.372  -6.282  0.00  0.00     0.068 C 
ATOM     90  C6  BDP d1199      -4.917  12.976  -3.508  0.00  0.00     0.203 C 
ATOM     91  O2  BDP d1199      -2.797   8.667  -6.395  0.00  0.00    -0.388 OA
ATOM     92  O6B BDP d1199      -5.996  12.567  -3.027  0.00  0.00    -0.646 OA
ATOM     93  H   BDP d1199      -6.045  10.182  -7.497  0.00  0.00     0.210 HD
ATOM     94  H   BDP d1199      -5.832  10.749  -4.670  0.00  0.00     0.041 H 
ATOM     95  H   BDP d1199      -5.826  11.987  -5.911  0.00  0.00     0.041 H 
ATOM     96  H   BDP d1199      -1.908  10.744  -5.308  0.00  0.00     0.133 H 
ATOM     97  H   BDP d1199      -3.686  12.747  -5.228  0.00  0.00     0.100 H 
ATOM     98  H   BDP d1199      -4.144   8.862  -4.836  0.00  0.00     0.094 H 
ATOM     99  H   BDP d1199      -3.910  10.930  -6.984  0.00  0.00     0.087 H 
ATOM    100  H   BDP d1199      -2.269   9.239  -6.972  0.00  0.00     0.210 HD
ENDROOT
TORSDOF 25
ENDMDL
MODEL 56
REMARK VINA RESULT:      -3.8      2.686      3.288
REMARK  0 active torsions:
REMARK  status: ('A' for Active; 'I' for Inactive)
REMARK       I    between atoms: C5_1  and  C6_46 
REMARK       I    between atoms: O1_2  and  C4_60 
REMARK       I    between atoms: O1_2  and  C1_47 
REMARK       I    between atoms: S_3  and  O4_24 
REMARK       I    between atoms: C7_6  and  C8_11 
REMARK       I    between atoms: C7_6  and  N_48 
REMARK       I    between atoms: O3_7  and  C3_41 
REMARK       I    between atoms: O1_9  and  C3_31 
REMARK       I    between atoms: O1_9  and  C1_19 
REMARK       I    between atoms: C6_10  and  C5_34 
REMARK       I    between atoms: C6_10  and  O6_12 
REMARK       I    between atoms: C3_13  and  O1_16 
REMARK       I    between atoms: C2_14  and  N_20 
REMARK       I    between atoms: C1_15  and  O1_45 
REMARK       I    between atoms: O1_16  and  C1_29 
REMARK       I    between atoms: S_17  and  O4_30 
REMARK       I    between atoms: N_20  and  C7_40 
REMARK       I    between atoms: C4_22  and  O4_30 
REMARK       I    between atoms: O4_24  and  C4_28 
REMARK       I    between atoms: C5_25  and  C6_55 
REMARK       I    between atoms: C2_32  and  O2_39 
REMARK       I    between atoms: C5_33  and  C6_51 
REMARK       I    between atoms: C2_36  and  O2_56 
REMARK       I    between atoms: C8_37  and  C7_40 
REMARK       I    between atoms: C2_43  and  N_48 
REMARK       I    between atoms: C3_50  and  O3_53 
REMARK       I    between atoms: O6_54  and  C6_55 
ROOT
ATOM      1  C5  BDP d1197       5.561  10.484  -2.700  0.00  0.00     0.152 C 
ATOM      2  O1  BDP d1197       8.664  12.451  -2.244  0.00  0.00    -0.348 OA
ATOM      3  C1  BDP d1197       7.433  11.828  -1.825  0.00  0.00     0.160 C 
ATOM      4  O5  BDP d1197       6.891  11.004  -2.865  0.00  0.00    -0.340 OA
ATOM      5  C2  BDP d1197       6.447  12.930  -1.435  0.00  0.00     0.110 C 
ATOM      6  O6A BDP d1197       4.815   8.713  -4.093  0.00  0.00    -0.646 OA
ATOM      7  O2  BDP d1197       6.919  13.591  -0.252  0.00  0.00    -0.388 OA
ATOM      8  C6  BDP d1197       5.149   9.916  -4.024  0.00  0.00     0.206 C 
ATOM      9  C3  BDP d1197       5.016  12.437  -1.208  0.00  0.00     0.092 C 
ATOM     10  O6B BDP d1197       5.148  10.687  -5.009  0.00  0.00    -0.646 OA
ATOM     11  O3  BDP d1197       4.163  13.586  -1.121  0.00  0.00    -0.390 OA
ATOM     12  C4  BDP d1197       4.515  11.536  -2.336  0.00  0.00     0.103 C 
ATOM     13  H   BDP d1197       5.598   9.777  -1.898  0.00  0.00     0.104 H 
ATOM     14  H   BDP d1197       7.619  11.191  -0.986  0.00  0.00     0.133 H 
ATOM     15  H   BDP d1197       6.402  13.604  -2.265  0.00  0.00     0.094 H 
ATOM     16  H   BDP d1197       6.949  12.957   0.482  0.00  0.00     0.210 HD
ATOM     17  H   BDP d1197       5.003  11.855  -0.310  0.00  0.00     0.091 H 
ATOM     18  H   BDP d1197       4.203  14.084  -1.952  0.00  0.00     0.210 HD
ATOM     19  H   BDP d1197       4.329  12.150  -3.193  0.00  0.00     0.092 H 
ATOM     20  O1  ASG d1198       3.295  10.874  -1.940  0.00  0.00    -0.348 OA
ATOM     21  O7  ASG d1198       1.502   6.438  -2.133  0.00  0.00    -0.274 OA
ATOM     22  OSB ASG d1198      -3.063  11.772  -0.900  0.00  0.00    -0.572 OA
ATOM     23  C3  ASG d1198      -0.318  10.183  -2.926  0.00  0.00     0.094 C 
ATOM     24  C2  ASG d1198       1.038   9.980  -2.232  0.00  0.00     0.087 C 
ATOM     25  S   ASG d1198      -2.074  12.832  -1.197  0.00  0.00     0.252 S 
ATOM     26  N   ASG d1198       1.401   8.613  -2.591  0.00  0.00    -0.349 N 
ATOM     27  OSA ASG d1198      -2.634  13.743  -2.220  0.00  0.00    -0.572 OA
ATOM     28  C4  ASG d1198      -0.647  11.665  -3.040  0.00  0.00     0.114 C 
ATOM     29  C5  ASG d1198       0.516  12.369  -3.733  0.00  0.00     0.090 C 
ATOM     30  O4  ASG d1198      -0.775  12.183  -1.712  0.00  0.00    -0.246 OA
ATOM     31  C8  ASG d1198       0.573   7.820  -0.444  0.00  0.00    -0.003 C 
ATOM     32  C7  ASG d1198       1.190   7.564  -1.789  0.00  0.00     0.214 C 
ATOM     33  C1  ASG d1198       2.148  10.886  -2.807  0.00  0.00     0.154 C 
ATOM     34  OSC ASG d1198      -1.780  13.592   0.039  0.00  0.00    -0.572 OA
ATOM     35  O6  ASG d1198      -1.168  13.971  -4.298  0.00  0.00    -0.398 OA
ATOM     36  C6  ASG d1198       0.221  13.840  -3.999  0.00  0.00     0.043 C 
ATOM     37  O5  ASG d1198       1.692  12.237  -2.928  0.00  0.00    -0.349 OA
ATOM     38  H   ASG d1198      -0.226   9.763  -3.906  0.00  0.00     0.091 H 
ATOM     39  H   ASG d1198       0.956  10.193  -1.187  0.00  0.00     0.084 H 
ATOM     40  H   ASG d1198       1.820   8.454  -3.467  0.00  0.00     0.163 HD
ATOM     41  H   ASG d1198      -1.548  11.819  -3.596  0.00  0.00     0.093 H 
ATOM     42  H   ASG d1198       0.668  11.903  -4.685  0.00  0.00     0.090 H 
ATOM     43  H   ASG d1198       0.467   6.894   0.082  0.00  0.00     0.040 H 
ATOM     44  H   ASG d1198      -0.389   8.269  -0.572  0.00  0.00     0.040 H 
ATOM     45  H   ASG d1198       1.202   8.478   0.118  0.00  0.00     0.040 H 
ATOM     46  H   ASG d1198       2.407  10.508  -3.773  0.00  0.00     0.132 H 
ATOM     47  H   ASG d1198      -1.376  14.903  -4.471  0.00  0.00     0.209 HD
ATOM     48  H   ASG d1198       0.804  14.182  -4.829  0.00  0.00     0.078 H 
ATOM     49  H   ASG d1198       0.470  14.427  -3.139  0.00  0.00     0.078 H 
ATOM     50  S   ASG d1196       9.521  13.814  -5.653  0.00  0.00     0.252 S 
ATOM     51  OSB ASG d1196       9.601  15.212  -5.172  0.00  0.00    -0.572 OA
ATOM     52  C7  ASG d1196      11.613  13.037  -0.095  0.00  0.00     0.214 C 
ATOM     53  C6  ASG d1196      10.869  10.524  -6.238  0.00  0.00     0.043 C 
ATOM     54  C8  ASG d1196      11.878  14.330  -0.807  0.00  0.00    -0.003 C 
ATOM     55  O6  ASG d1196      12.149  10.017  -6.632  0.00  0.00    -0.398 OA
ATOM     56  C1  ASG d1196      12.199  11.179  -2.852  0.00  0.00     0.151 C 
ATOM     57  O4  ASG d1196      10.191  12.916  -4.601  0.00  0.00    -0.246 OA
ATOM     58  C4  ASG d1196       9.743  11.604  -4.233  0.00  0.00     0.114 C 
ATOM     59  C3  ASG d1196       9.746  11.629  -2.709  0.00  0.00     0.094 C 
ATOM     60  C5  ASG d1196      10.849  10.673  -4.723  0.00  0.00     0.090 C 
ATOM     61  OSA ASG d1196       8.099  13.441  -5.838  0.00  0.00    -0.572 OA
ATOM     62  OSC ASG d1196      10.266  13.707  -6.931  0.00  0.00    -0.572 OA
ATOM     63  C2  ASG d1196      11.132  12.126  -2.299  0.00  0.00     0.087 C 
ATOM     64  O5  ASG d1196      12.117  11.161  -4.275  0.00  0.00    -0.349 OA
ATOM     65  O1  ASG d1196      13.500  11.653  -2.490  0.00  0.00    -0.369 OA
ATOM     66  N   ASG d1196      11.247  12.001  -0.851  0.00  0.00    -0.349 N 
ATOM     67  O7  ASG d1196      11.722  12.946   1.117  0.00  0.00    -0.274 OA
ATOM     68  H   ASG d1196      10.704  11.477  -6.696  0.00  0.00     0.078 H 
ATOM     69  H   ASG d1196      10.098   9.850  -6.548  0.00  0.00     0.078 H 
ATOM     70  H   ASG d1196      11.728  14.195  -1.857  0.00  0.00     0.040 H 
ATOM     71  H   ASG d1196      12.887  14.636  -0.627  0.00  0.00     0.040 H 
ATOM     72  H   ASG d1196      11.208  15.081  -0.444  0.00  0.00     0.040 H 
ATOM     73  H   ASG d1196      12.843  10.633  -6.348  0.00  0.00     0.209 HD
ATOM     74  H   ASG d1196      12.039  10.200  -2.452  0.00  0.00     0.132 H 
ATOM     75  H   ASG d1196       8.790  11.310  -4.621  0.00  0.00     0.093 H 
ATOM     76  H   ASG d1196       9.580  10.668  -2.266  0.00  0.00     0.091 H 
ATOM     77  H   ASG d1196      10.650   9.705  -4.313  0.00  0.00     0.090 H 
ATOM     78  H   ASG d1196      11.259  13.128  -2.652  0.00  0.00     0.084 H 
ATOM     79  H   ASG d1196      13.636  12.540  -2.857  0.00  0.00     0.212 HD
ATOM     80  H   ASG d1196      11.051  11.137  -0.422  0.00  0.00     0.163 HD
ATOM     81  O3  BDP d1199      -5.390   6.696  -2.402  0.00  0.00    -0.393 OA
ATOM     82  O1  BDP d1199      -1.388   9.489  -2.263  0.00  0.00    -0.348 OA
ATOM     83  O6A BDP d1199      -3.615  10.091  -7.000  0.00  0.00    -0.646 OA
ATOM     84  C4  BDP d1199      -4.850   8.207  -4.197  0.00  0.00    -0.005 C 
ATOM     85  O5  BDP d1199      -2.709   9.409  -4.155  0.00  0.00    -0.343 OA
ATOM     86  C1  BDP d1199      -2.189   8.620  -3.076  0.00  0.00     0.159 C 
ATOM     87  C5  BDP d1199      -3.708   8.822  -4.998  0.00  0.00     0.127 C 
ATOM     88  C2  BDP d1199      -3.298   7.940  -2.267  0.00  0.00     0.107 C 
ATOM     89  C3  BDP d1199      -4.303   7.229  -3.169  0.00  0.00     0.068 C 
ATOM     90  C6  BDP d1199      -4.229   9.880  -5.930  0.00  0.00     0.203 C 
ATOM     91  O2  BDP d1199      -2.712   6.984  -1.379  0.00  0.00    -0.388 OA
ATOM     92  O6B BDP d1199      -5.247  10.526  -5.600  0.00  0.00    -0.646 OA
ATOM     93  H   BDP d1199      -6.015   6.249  -2.994  0.00  0.00     0.210 HD
ATOM     94  H   BDP d1199      -5.389   8.984  -3.694  0.00  0.00     0.041 H 
ATOM     95  H   BDP d1199      -5.503   7.684  -4.864  0.00  0.00     0.041 H 
ATOM     96  H   BDP d1199      -1.594   7.818  -3.462  0.00  0.00     0.133 H 
ATOM     97  H   BDP d1199      -3.259   8.024  -5.552  0.00  0.00     0.100 H 
ATOM     98  H   BDP d1199      -3.820   8.698  -1.720  0.00  0.00     0.094 H 
ATOM     99  H   BDP d1199      -3.800   6.422  -3.661  0.00  0.00     0.087 H 
ATOM    100  H   BDP d1199      -2.246   6.308  -1.894  0.00  0.00     0.210 HD
ENDROOT
TORSDOF 25
ENDMDL
MODEL 57
REMARK VINA RESULT:      -3.8      2.665     12.349
REMARK  0 active torsions:
REMARK  status: ('A' for Active; 'I' for Inactive)
REMARK       I    between atoms: C5_1  and  C6_46 
REMARK       I    between atoms: O1_2  and  C4_60 
REMARK       I    between atoms: O1_2  and  C1_47 
REMARK       I    between atoms: S_3  and  O4_24 
REMARK       I    between atoms: C7_6  and  C8_11 
REMARK       I    between atoms: C7_6  and  N_48 
REMARK       I    between atoms: O3_7  and  C3_41 
REMARK       I    between atoms: O1_9  and  C3_31 
REMARK       I    between atoms: O1_9  and  C1_19 
REMARK       I    between atoms: C6_10  and  C5_34 
REMARK       I    between atoms: C6_10  and  O6_12 
REMARK       I    between atoms: C3_13  and  O1_16 
REMARK       I    between atoms: C2_14  and  N_20 
REMARK       I    between atoms: C1_15  and  O1_45 
REMARK       I    between atoms: O1_16  and  C1_29 
REMARK       I    between atoms: S_17  and  O4_30 
REMARK       I    between atoms: N_20  and  C7_40 
REMARK       I    between atoms: C4_22  and  O4_30 
REMARK       I    between atoms: O4_24  and  C4_28 
REMARK       I    between atoms: C5_25  and  C6_55 
REMARK       I    between atoms: C2_32  and  O2_39 
REMARK       I    between atoms: C5_33  and  C6_51 
REMARK       I    between atoms: C2_36  and  O2_56 
REMARK       I    between atoms: C8_37  and  C7_40 
REMARK       I    between atoms: C2_43  and  N_48 
REMARK       I    between atoms: C3_50  and  O3_53 
REMARK       I    between atoms: O6_54  and  C6_55 
ROOT
ATOM      1  C5  BDP d1197       4.504  10.998  -1.692  0.00  0.00     0.152 C 
ATOM      2  O1  BDP d1197       0.864  10.625  -1.138  0.00  0.00    -0.348 OA
ATOM      3  C1  BDP d1197       2.187  11.126  -0.862  0.00  0.00     0.160 C 
ATOM      4  O5  BDP d1197       3.102  10.770  -1.907  0.00  0.00    -0.340 OA
ATOM      5  C2  BDP d1197       2.646  10.556   0.480  0.00  0.00     0.110 C 
ATOM      6  O6A BDP d1197       5.997  10.939  -3.537  0.00  0.00    -0.646 OA
ATOM      7  O2  BDP d1197       1.842  11.111   1.530  0.00  0.00    -0.388 OA
ATOM      8  C6  BDP d1197       5.233  10.287  -2.791  0.00  0.00     0.206 C 
ATOM      9  C3  BDP d1197       4.126  10.795   0.788  0.00  0.00     0.092 C 
ATOM     10  O6B BDP d1197       5.051   9.055  -2.905  0.00  0.00    -0.646 OA
ATOM     11  O3  BDP d1197       4.476   9.989   1.921  0.00  0.00    -0.390 OA
ATOM     12  C4  BDP d1197       5.041  10.428  -0.380  0.00  0.00     0.103 C 
ATOM     13  H   BDP d1197       4.650  12.057  -1.666  0.00  0.00     0.104 H 
ATOM     14  H   BDP d1197       2.164  12.195  -0.816  0.00  0.00     0.133 H 
ATOM     15  H   BDP d1197       2.523   9.494   0.416  0.00  0.00     0.094 H 
ATOM     16  H   BDP d1197       1.973  12.071   1.565  0.00  0.00     0.210 HD
ATOM     17  H   BDP d1197       4.261  11.840   0.979  0.00  0.00     0.091 H 
ATOM     18  H   BDP d1197       4.340   9.053   1.707  0.00  0.00     0.210 HD
ATOM     19  H   BDP d1197       5.072   9.361  -0.452  0.00  0.00     0.092 H 
ATOM     20  O1  ASG d1198       6.371  10.939  -0.149  0.00  0.00    -0.348 OA
ATOM     21  O7  ASG d1198       9.695  13.296  -2.664  0.00  0.00    -0.274 OA
ATOM     22  OSB ASG d1198      11.792  10.075   3.339  0.00  0.00    -0.572 OA
ATOM     23  C3  ASG d1198      10.062  10.018  -0.004  0.00  0.00     0.094 C 
ATOM     24  C2  ASG d1198       8.815  10.901  -0.162  0.00  0.00     0.087 C 
ATOM     25  S   ASG d1198      10.517   9.348   3.523  0.00  0.00     0.252 S 
ATOM     26  N   ASG d1198       9.027  11.557  -1.448  0.00  0.00    -0.349 N 
ATOM     27  OSA ASG d1198      10.801   7.903   3.674  0.00  0.00    -0.572 OA
ATOM     28  C4  ASG d1198       9.826   8.937   1.044  0.00  0.00     0.114 C 
ATOM     29  C5  ASG d1198       8.564   8.166   0.669  0.00  0.00     0.090 C 
ATOM     30  O4  ASG d1198       9.614   9.591   2.299  0.00  0.00    -0.246 OA
ATOM     31  C8  ASG d1198       9.861  13.540  -0.310  0.00  0.00    -0.003 C 
ATOM     32  C7  ASG d1198       9.528  12.791  -1.569  0.00  0.00     0.214 C 
ATOM     33  C1  ASG d1198       7.514  10.082  -0.304  0.00  0.00     0.154 C 
ATOM     34  OSC ASG d1198       9.834   9.850   4.738  0.00  0.00    -0.572 OA
ATOM     35  O6  ASG d1198       9.580   6.439   1.976  0.00  0.00    -0.398 OA
ATOM     36  C6  ASG d1198       8.316   6.984   1.599  0.00  0.00     0.043 C 
ATOM     37  O5  ASG d1198       7.445   9.057   0.693  0.00  0.00    -0.349 OA
ATOM     38  H   ASG d1198      10.236   9.559  -0.954  0.00  0.00     0.091 H 
ATOM     39  H   ASG d1198       8.702  11.541   0.687  0.00  0.00     0.084 H 
ATOM     40  H   ASG d1198       8.790  11.067  -2.268  0.00  0.00     0.163 HD
ATOM     41  H   ASG d1198      10.659   8.267   1.100  0.00  0.00     0.093 H 
ATOM     42  H   ASG d1198       8.697   7.768  -0.315  0.00  0.00     0.090 H 
ATOM     43  H   ASG d1198      10.249  14.504  -0.562  0.00  0.00     0.040 H 
ATOM     44  H   ASG d1198      10.595  12.994   0.245  0.00  0.00     0.040 H 
ATOM     45  H   ASG d1198       8.978  13.654   0.282  0.00  0.00     0.040 H 
ATOM     46  H   ASG d1198       7.516   9.636  -1.276  0.00  0.00     0.132 H 
ATOM     47  H   ASG d1198       9.443   5.683   2.568  0.00  0.00     0.209 HD
ATOM     48  H   ASG d1198       7.738   6.240   1.091  0.00  0.00     0.078 H 
ATOM     49  H   ASG d1198       7.779   7.304   2.467  0.00  0.00     0.078 H 
ATOM     50  S   ASG d1196      -0.079   7.333  -2.716  0.00  0.00     0.252 S 
ATOM     51  OSB ASG d1196      -0.723   6.825  -1.483  0.00  0.00    -0.572 OA
ATOM     52  C7  ASG d1196      -2.299  12.379  -0.372  0.00  0.00     0.214 C 
ATOM     53  C6  ASG d1196      -0.038   9.203  -5.796  0.00  0.00     0.043 C 
ATOM     54  C8  ASG d1196      -2.950  11.068  -0.047  0.00  0.00    -0.003 C 
ATOM     55  O6  ASG d1196      -0.989   9.444  -6.839  0.00  0.00    -0.398 OA
ATOM     56  C1  ASG d1196      -1.861  11.572  -3.621  0.00  0.00     0.151 C 
ATOM     57  O4  ASG d1196      -0.473   8.810  -2.877  0.00  0.00    -0.246 OA
ATOM     58  C4  ASG d1196       0.390   9.842  -3.374  0.00  0.00     0.114 C 
ATOM     59  C3  ASG d1196       0.220  10.978  -2.372  0.00  0.00     0.094 C 
ATOM     60  C5  ASG d1196      -0.233  10.250  -4.707  0.00  0.00     0.090 C 
ATOM     61  OSA ASG d1196       1.390   7.188  -2.595  0.00  0.00    -0.572 OA
ATOM     62  OSC ASG d1196      -0.594   6.562  -3.873  0.00  0.00    -0.572 OA
ATOM     63  C2  ASG d1196      -1.286  11.209  -2.250  0.00  0.00     0.087 C 
ATOM     64  O5  ASG d1196      -1.630  10.495  -4.526  0.00  0.00    -0.349 OA
ATOM     65  O1  ASG d1196      -3.275  11.767  -3.516  0.00  0.00    -0.369 OA
ATOM     66  N   ASG d1196      -1.497  12.401  -1.437  0.00  0.00    -0.349 N 
ATOM     67  O7  ASG d1196      -2.491  13.370   0.312  0.00  0.00    -0.274 OA
ATOM     68  H   ASG d1196      -0.192   8.226  -5.388  0.00  0.00     0.078 H 
ATOM     69  H   ASG d1196       0.956   9.264  -6.186  0.00  0.00     0.078 H 
ATOM     70  H   ASG d1196      -2.652  10.334  -0.766  0.00  0.00     0.040 H 
ATOM     71  H   ASG d1196      -4.013  11.181  -0.073  0.00  0.00     0.040 H 
ATOM     72  H   ASG d1196      -2.649  10.753   0.930  0.00  0.00     0.040 H 
ATOM     73  H   ASG d1196      -1.887   9.387  -6.477  0.00  0.00     0.209 HD
ATOM     74  H   ASG d1196      -1.391  12.466  -3.971  0.00  0.00     0.132 H 
ATOM     75  H   ASG d1196       1.419   9.574  -3.494  0.00  0.00     0.093 H 
ATOM     76  H   ASG d1196       0.684  11.892  -2.680  0.00  0.00     0.091 H 
ATOM     77  H   ASG d1196       0.268  11.138  -5.030  0.00  0.00     0.090 H 
ATOM     78  H   ASG d1196      -1.740  10.330  -1.843  0.00  0.00     0.084 H 
ATOM     79  H   ASG d1196      -3.692  10.951  -3.199  0.00  0.00     0.212 HD
ATOM     80  H   ASG d1196      -1.039  13.238  -1.679  0.00  0.00     0.163 HD
ATOM     81  O3  BDP d1199      15.984  11.758  -0.273  0.00  0.00    -0.393 OA
ATOM     82  O1  BDP d1199      11.239  10.775   0.326  0.00  0.00    -0.348 OA
ATOM     83  O6A BDP d1199      13.562   6.438  -1.558  0.00  0.00    -0.646 OA
ATOM     84  C4  BDP d1199      15.111   9.538  -0.595  0.00  0.00    -0.005 C 
ATOM     85  O5  BDP d1199      12.684   9.173  -0.494  0.00  0.00    -0.343 OA
ATOM     86  C1  BDP d1199      12.386  10.575  -0.512  0.00  0.00     0.159 C 
ATOM     87  C5  BDP d1199      13.911   8.738  -1.092  0.00  0.00     0.127 C 
ATOM     88  C2  BDP d1199      13.577  11.428  -0.066  0.00  0.00     0.107 C 
ATOM     89  C3  BDP d1199      14.863  11.026  -0.784  0.00  0.00     0.068 C 
ATOM     90  C6  BDP d1199      14.095   7.275  -0.796  0.00  0.00     0.203 C 
ATOM     91  O2  BDP d1199      13.300  12.803  -0.343  0.00  0.00    -0.388 OA
ATOM     92  O6B BDP d1199      14.759   6.943   0.210  0.00  0.00    -0.646 OA
ATOM     93  H   BDP d1199      16.788  11.487  -0.742  0.00  0.00     0.210 HD
ATOM     94  H   BDP d1199      15.266   9.334   0.445  0.00  0.00     0.041 H 
ATOM     95  H   BDP d1199      15.976   9.253  -1.155  0.00  0.00     0.041 H 
ATOM     96  H   BDP d1199      12.175  10.892  -1.513  0.00  0.00     0.133 H 
ATOM     97  H   BDP d1199      13.852   8.901  -2.148  0.00  0.00     0.100 H 
ATOM     98  H   BDP d1199      13.720  11.272   0.983  0.00  0.00     0.094 H 
ATOM     99  H   BDP d1199      14.750  11.250  -1.824  0.00  0.00     0.087 H 
ATOM    100  H   BDP d1199      13.175  12.921  -1.297  0.00  0.00     0.210 HD
ENDROOT
TORSDOF 25
ENDMDL
MODEL 58
REMARK VINA RESULT:      -3.7      4.235      6.668
REMARK  0 active torsions:
REMARK  status: ('A' for Active; 'I' for Inactive)
REMARK       I    between atoms: C5_1  and  C6_46 
REMARK       I    between atoms: O1_2  and  C4_60 
REMARK       I    between atoms: O1_2  and  C1_47 
REMARK       I    between atoms: S_3  and  O4_24 
REMARK       I    between atoms: C7_6  and  C8_11 
REMARK       I    between atoms: C7_6  and  N_48 
REMARK       I    between atoms: O3_7  and  C3_41 
REMARK       I    between atoms: O1_9  and  C3_31 
REMARK       I    between atoms: O1_9  and  C1_19 
REMARK       I    between atoms: C6_10  and  C5_34 
REMARK       I    between atoms: C6_10  and  O6_12 
REMARK       I    between atoms: C3_13  and  O1_16 
REMARK       I    between atoms: C2_14  and  N_20 
REMARK       I    between atoms: C1_15  and  O1_45 
REMARK       I    between atoms: O1_16  and  C1_29 
REMARK       I    between atoms: S_17  and  O4_30 
REMARK       I    between atoms: N_20  and  C7_40 
REMARK       I    between atoms: C4_22  and  O4_30 
REMARK       I    between atoms: O4_24  and  C4_28 
REMARK       I    between atoms: C5_25  and  C6_55 
REMARK       I    between atoms: C2_32  and  O2_39 
REMARK       I    between atoms: C5_33  and  C6_51 
REMARK       I    between atoms: C2_36  and  O2_56 
REMARK       I    between atoms: C8_37  and  C7_40 
REMARK       I    between atoms: C2_43  and  N_48 
REMARK       I    between atoms: C3_50  and  O3_53 
REMARK       I    between atoms: O6_54  and  C6_55 
ROOT
ATOM      1  C5  BDP d1197      10.512  13.034  -1.951  0.00  0.00     0.152 C 
ATOM      2  O1  BDP d1197      12.958  15.807  -2.098  0.00  0.00    -0.348 OA
ATOM      3  C1  BDP d1197      11.923  15.003  -1.499  0.00  0.00     0.160 C 
ATOM      4  O5  BDP d1197      11.660  13.832  -2.282  0.00  0.00    -0.340 OA
ATOM      5  C2  BDP d1197      10.665  15.862  -1.364  0.00  0.00     0.110 C 
ATOM      6  O6A BDP d1197      10.317  10.838  -2.834  0.00  0.00    -0.646 OA
ATOM      7  O2  BDP d1197      10.900  16.897  -0.400  0.00  0.00    -0.388 OA
ATOM      8  C6  BDP d1197      10.315  12.066  -3.078  0.00  0.00     0.206 C 
ATOM      9  C3  BDP d1197       9.410  15.077  -0.977  0.00  0.00     0.092 C 
ATOM     10  O6B BDP d1197      10.145  12.538  -4.223  0.00  0.00    -0.646 OA
ATOM     11  O3  BDP d1197       8.279  15.940  -1.151  0.00  0.00    -0.390 OA
ATOM     12  C4  BDP d1197       9.210  13.823  -1.828  0.00  0.00     0.103 C 
ATOM     13  H   BDP d1197      10.706  12.584  -0.999  0.00  0.00     0.104 H 
ATOM     14  H   BDP d1197      12.242  14.668  -0.533  0.00  0.00     0.133 H 
ATOM     15  H   BDP d1197      10.473  16.271  -2.335  0.00  0.00     0.094 H 
ATOM     16  H   BDP d1197      11.071  16.498   0.468  0.00  0.00     0.210 HD
ATOM     17  H   BDP d1197       9.520  14.755   0.038  0.00  0.00     0.091 H 
ATOM     18  H   BDP d1197       8.216  16.208  -2.082  0.00  0.00     0.210 HD
ATOM     19  H   BDP d1197       8.899  14.133  -2.804  0.00  0.00     0.092 H 
ATOM     20  O1  ASG d1198       8.196  12.980  -1.241  0.00  0.00    -0.348 OA
ATOM     21  O7  ASG d1198       7.660   8.322  -0.264  0.00  0.00    -0.274 OA
ATOM     22  OSB ASG d1198       1.796  12.375  -0.256  0.00  0.00    -0.572 OA
ATOM     23  C3  ASG d1198       4.939  11.125  -1.908  0.00  0.00     0.094 C 
ATOM     24  C2  ASG d1198       6.273  11.472  -1.228  0.00  0.00     0.087 C 
ATOM     25  S   ASG d1198       2.477  13.552  -0.839  0.00  0.00     0.252 S 
ATOM     26  N   ASG d1198       6.999  10.206  -1.246  0.00  0.00    -0.349 N 
ATOM     27  OSA ASG d1198       1.732  13.996  -2.039  0.00  0.00    -0.572 OA
ATOM     28  C4  ASG d1198       4.230  12.389  -2.377  0.00  0.00     0.114 C 
ATOM     29  C5  ASG d1198       5.189  13.183  -3.261  0.00  0.00     0.090 C 
ATOM     30  O4  ASG d1198       3.920  13.167  -1.216  0.00  0.00    -0.246 OA
ATOM     31  C8  ASG d1198       6.335   9.781   1.056  0.00  0.00    -0.003 C 
ATOM     32  C7  ASG d1198       7.047   9.373  -0.202  0.00  0.00     0.214 C 
ATOM     33  C1  ASG d1198       7.121  12.469  -2.046  0.00  0.00     0.154 C 
ATOM     34  OSC ASG d1198       2.511  14.646   0.159  0.00  0.00    -0.572 OA
ATOM     35  O6  ASG d1198       3.160  14.084  -4.153  0.00  0.00    -0.398 OA
ATOM     36  C6  ASG d1198       4.522  14.407  -3.875  0.00  0.00     0.043 C 
ATOM     37  O5  ASG d1198       6.326  13.574  -2.486  0.00  0.00    -0.349 OA
ATOM     38  H   ASG d1198       5.175  10.515  -2.754  0.00  0.00     0.091 H 
ATOM     39  H   ASG d1198       6.098  11.908  -0.267  0.00  0.00     0.084 H 
ATOM     40  H   ASG d1198       7.478   9.953  -2.068  0.00  0.00     0.163 HD
ATOM     41  H   ASG d1198       3.342  12.152  -2.925  0.00  0.00     0.093 H 
ATOM     42  H   ASG d1198       5.494  12.553  -4.070  0.00  0.00     0.090 H 
ATOM     43  H   ASG d1198       6.460   9.022   1.799  0.00  0.00     0.040 H 
ATOM     44  H   ASG d1198       5.293   9.910   0.850  0.00  0.00     0.040 H 
ATOM     45  H   ASG d1198       6.744  10.702   1.416  0.00  0.00     0.040 H 
ATOM     46  H   ASG d1198       7.508  11.946  -2.895  0.00  0.00     0.132 H 
ATOM     47  H   ASG d1198       2.718  14.852  -4.546  0.00  0.00     0.209 HD
ATOM     48  H   ASG d1198       5.022  14.675  -4.782  0.00  0.00     0.078 H 
ATOM     49  H   ASG d1198       4.573  15.234  -3.197  0.00  0.00     0.078 H 
ATOM     50  S   ASG d1196      13.546  16.457  -5.765  0.00  0.00     0.252 S 
ATOM     51  OSB ASG d1196      13.233  17.900  -5.651  0.00  0.00    -0.572 OA
ATOM     52  C7  ASG d1196      15.563  17.676  -0.259  0.00  0.00     0.214 C 
ATOM     53  C6  ASG d1196      15.744  13.610  -5.554  0.00  0.00     0.043 C 
ATOM     54  C8  ASG d1196      15.500  18.773  -1.278  0.00  0.00    -0.003 C 
ATOM     55  O6  ASG d1196      17.126  13.381  -5.850  0.00  0.00    -0.398 OA
ATOM     56  C1  ASG d1196      16.725  15.417  -2.483  0.00  0.00     0.151 C 
ATOM     57  O4  ASG d1196      14.392  16.062  -4.544  0.00  0.00    -0.246 OA
ATOM     58  C4  ASG d1196      14.297  14.813  -3.847  0.00  0.00     0.114 C 
ATOM     59  C3  ASG d1196      14.237  15.215  -2.379  0.00  0.00     0.094 C 
ATOM     60  C5  ASG d1196      15.629  14.120  -4.124  0.00  0.00     0.090 C 
ATOM     61  OSA ASG d1196      12.283  15.684  -5.806  0.00  0.00    -0.572 OA
ATOM     62  OSC ASG d1196      14.340  16.240  -7.000  0.00  0.00    -0.572 OA
ATOM     63  C2  ASG d1196      15.424  16.151  -2.149  0.00  0.00     0.087 C 
ATOM     64  O5  ASG d1196      16.703  15.024  -3.853  0.00  0.00    -0.349 OA
ATOM     65  O1  ASG d1196      17.838  16.296  -2.291  0.00  0.00    -0.369 OA
ATOM     66  N   ASG d1196      15.515  16.426  -0.720  0.00  0.00    -0.349 N 
ATOM     67  O7  ASG d1196      15.647  17.921   0.934  0.00  0.00    -0.274 OA
ATOM     68  H   ASG d1196      15.348  14.339  -6.230  0.00  0.00     0.078 H 
ATOM     69  H   ASG d1196      15.193  12.699  -5.662  0.00  0.00     0.078 H 
ATOM     70  H   ASG d1196      15.429  18.346  -2.257  0.00  0.00     0.040 H 
ATOM     71  H   ASG d1196      16.383  19.372  -1.213  0.00  0.00     0.040 H 
ATOM     72  H   ASG d1196      14.641  19.384  -1.093  0.00  0.00     0.040 H 
ATOM     73  H   ASG d1196      17.620  14.211  -5.750  0.00  0.00     0.209 HD
ATOM     74  H   ASG d1196      16.817  14.562  -1.846  0.00  0.00     0.132 H 
ATOM     75  H   ASG d1196      13.472  14.187  -4.118  0.00  0.00     0.093 H 
ATOM     76  H   ASG d1196      14.317  14.387  -1.705  0.00  0.00     0.091 H 
ATOM     77  H   ASG d1196      15.680  13.267  -3.480  0.00  0.00     0.090 H 
ATOM     78  H   ASG d1196      15.292  17.029  -2.745  0.00  0.00     0.084 H 
ATOM     79  H   ASG d1196      17.746  17.067  -2.873  0.00  0.00     0.212 HD
ATOM     80  H   ASG d1196      15.540  15.675  -0.084  0.00  0.00     0.163 HD
ATOM     81  O3  BDP d1199       0.964   6.653  -0.370  0.00  0.00    -0.393 OA
ATOM     82  O1  BDP d1199       4.068  10.358  -1.059  0.00  0.00    -0.348 OA
ATOM     83  O6A BDP d1199       1.938   9.146  -5.723  0.00  0.00    -0.646 OA
ATOM     84  C4  BDP d1199       1.147   7.758  -2.501  0.00  0.00    -0.005 C 
ATOM     85  O5  BDP d1199       2.887   9.460  -2.828  0.00  0.00    -0.343 OA
ATOM     86  C1  BDP d1199       3.558   9.133  -1.603  0.00  0.00     0.159 C 
ATOM     87  C5  BDP d1199       2.113   8.437  -3.466  0.00  0.00     0.127 C 
ATOM     88  C2  BDP d1199       2.642   8.405  -0.616  0.00  0.00     0.107 C 
ATOM     89  C3  BDP d1199       1.897   7.249  -1.279  0.00  0.00     0.068 C 
ATOM     90  C6  BDP d1199       1.364   9.051  -4.615  0.00  0.00     0.203 C 
ATOM     91  O2  BDP d1199       3.428   7.892   0.464  0.00  0.00    -0.388 OA
ATOM     92  O6B BDP d1199       0.199   9.462  -4.424  0.00  0.00    -0.646 OA
ATOM     93  H   BDP d1199       0.503   5.923  -0.811  0.00  0.00     0.210 HD
ATOM     94  H   BDP d1199       0.403   8.462  -2.191  0.00  0.00     0.041 H 
ATOM     95  H   BDP d1199       0.683   6.931  -2.996  0.00  0.00     0.041 H 
ATOM     96  H   BDP d1199       4.359   8.450  -1.796  0.00  0.00     0.133 H 
ATOM     97  H   BDP d1199       2.779   7.676  -3.817  0.00  0.00     0.100 H 
ATOM     98  H   BDP d1199       1.917   9.106  -0.259  0.00  0.00     0.094 H 
ATOM     99  H   BDP d1199       2.614   6.511  -1.571  0.00  0.00     0.087 H 
ATOM    100  H   BDP d1199       4.076   7.260   0.119  0.00  0.00     0.210 HD
ENDROOT
TORSDOF 25
ENDMDL
MODEL 59
REMARK VINA RESULT:      -3.7      1.611      1.954
REMARK  0 active torsions:
REMARK  status: ('A' for Active; 'I' for Inactive)
REMARK       I    between atoms: C5_1  and  C6_46 
REMARK       I    between atoms: O1_2  and  C4_60 
REMARK       I    between atoms: O1_2  and  C1_47 
REMARK       I    between atoms: S_3  and  O4_24 
REMARK       I    between atoms: C7_6  and  C8_11 
REMARK       I    between atoms: C7_6  and  N_48 
REMARK       I    between atoms: O3_7  and  C3_41 
REMARK       I    between atoms: O1_9  and  C3_31 
REMARK       I    between atoms: O1_9  and  C1_19 
REMARK       I    between atoms: C6_10  and  C5_34 
REMARK       I    between atoms: C6_10  and  O6_12 
REMARK       I    between atoms: C3_13  and  O1_16 
REMARK       I    between atoms: C2_14  and  N_20 
REMARK       I    between atoms: C1_15  and  O1_45 
REMARK       I    between atoms: O1_16  and  C1_29 
REMARK       I    between atoms: S_17  and  O4_30 
REMARK       I    between atoms: N_20  and  C7_40 
REMARK       I    between atoms: C4_22  and  O4_30 
REMARK       I    between atoms: O4_24  and  C4_28 
REMARK       I    between atoms: C5_25  and  C6_55 
REMARK       I    between atoms: C2_32  and  O2_39 
REMARK       I    between atoms: C5_33  and  C6_51 
REMARK       I    between atoms: C2_36  and  O2_56 
REMARK       I    between atoms: C8_37  and  C7_40 
REMARK       I    between atoms: C2_43  and  N_48 
REMARK       I    between atoms: C3_50  and  O3_53 
REMARK       I    between atoms: O6_54  and  C6_55 
ROOT
ATOM      1  C5  BDP d1197       5.662  10.255  -2.531  0.00  0.00     0.152 C 
ATOM      2  O1  BDP d1197       9.127   9.883  -1.284  0.00  0.00    -0.348 OA
ATOM      3  C1  BDP d1197       7.710   9.621  -1.315  0.00  0.00     0.160 C 
ATOM      4  O5  BDP d1197       7.097  10.230  -2.459  0.00  0.00    -0.340 OA
ATOM      5  C2  BDP d1197       7.095  10.153  -0.020  0.00  0.00     0.110 C 
ATOM      6  O6A BDP d1197       4.602  10.750  -4.597  0.00  0.00    -0.646 OA
ATOM      7  O2  BDP d1197       7.566   9.369   1.085  0.00  0.00    -0.388 OA
ATOM      8  C6  BDP d1197       5.300  11.181  -3.653  0.00  0.00     0.206 C 
ATOM      9  C3  BDP d1197       5.565  10.173  -0.018  0.00  0.00     0.092 C 
ATOM     10  O6B BDP d1197       5.708  12.361  -3.583  0.00  0.00    -0.646 OA
ATOM     11  O3  BDP d1197       5.137  10.933   1.121  0.00  0.00    -0.390 OA
ATOM     12  C4  BDP d1197       4.978  10.803  -1.280  0.00  0.00     0.103 C 
ATOM     13  H   BDP d1197       5.337   9.244  -2.658  0.00  0.00     0.104 H 
ATOM     14  H   BDP d1197       7.541   8.567  -1.394  0.00  0.00     0.133 H 
ATOM     15  H   BDP d1197       7.406  11.173   0.065  0.00  0.00     0.094 H 
ATOM     16  H   BDP d1197       7.270   8.451   0.980  0.00  0.00     0.210 HD
ATOM     17  H   BDP d1197       5.219   9.161   0.020  0.00  0.00     0.091 H 
ATOM     18  H   BDP d1197       5.470  11.841   1.048  0.00  0.00     0.210 HD
ATOM     19  H   BDP d1197       5.143  11.859  -1.230  0.00  0.00     0.092 H 
ATOM     20  O1  ASG d1198       3.562  10.537  -1.358  0.00  0.00    -0.348 OA
ATOM     21  O7  ASG d1198       0.459   9.071  -4.698  0.00  0.00    -0.274 OA
ATOM     22  OSB ASG d1198      -2.221  12.117   1.164  0.00  0.00    -0.572 OA
ATOM     23  C3  ASG d1198       0.127  12.125  -1.778  0.00  0.00     0.094 C 
ATOM     24  C2  ASG d1198       1.213  11.038  -1.810  0.00  0.00     0.087 C 
ATOM     25  S   ASG d1198      -0.904  12.571   1.662  0.00  0.00     0.252 S 
ATOM     26  N   ASG d1198       1.155  10.544  -3.183  0.00  0.00    -0.349 N 
ATOM     27  OSA ASG d1198      -0.964  14.025   1.930  0.00  0.00    -0.572 OA
ATOM     28  C4  ASG d1198       0.329  13.050  -0.584  0.00  0.00     0.114 C 
ATOM     29  C5  ASG d1198       1.752  13.596  -0.628  0.00  0.00     0.090 C 
ATOM     30  O4  ASG d1198       0.171  12.264   0.602  0.00  0.00    -0.246 OA
ATOM     31  C8  ASG d1198      -0.215   8.667  -2.459  0.00  0.00    -0.003 C 
ATOM     32  C7  ASG d1198       0.486   9.442  -3.538  0.00  0.00     0.214 C 
ATOM     33  C1  ASG d1198       2.635  11.605  -1.615  0.00  0.00     0.154 C 
ATOM     34  OSC ASG d1198      -0.574  11.848   2.912  0.00  0.00    -0.572 OA
ATOM     35  O6  ASG d1198       0.803  15.369   0.668  0.00  0.00    -0.398 OA
ATOM     36  C6  ASG d1198       2.006  14.628   0.465  0.00  0.00     0.043 C 
ATOM     37  O5  ASG d1198       2.676  12.510  -0.508  0.00  0.00    -0.349 OA
ATOM     38  H   ASG d1198       0.228  12.687  -2.682  0.00  0.00     0.091 H 
ATOM     39  H   ASG d1198       1.042  10.319  -1.037  0.00  0.00     0.084 H 
ATOM     40  H   ASG d1198       1.631  11.048  -3.882  0.00  0.00     0.163 HD
ATOM     41  H   ASG d1198      -0.372  13.859  -0.600  0.00  0.00     0.093 H 
ATOM     42  H   ASG d1198       1.889  14.093  -1.566  0.00  0.00     0.090 H 
ATOM     43  H   ASG d1198      -0.702   7.818  -2.890  0.00  0.00     0.040 H 
ATOM     44  H   ASG d1198      -0.942   9.293  -1.985  0.00  0.00     0.040 H 
ATOM     45  H   ASG d1198       0.499   8.338  -1.734  0.00  0.00     0.040 H 
ATOM     46  H   ASG d1198       2.904  12.123  -2.511  0.00  0.00     0.132 H 
ATOM     47  H   ASG d1198       0.945  16.032   1.361  0.00  0.00     0.209 HD
ATOM     48  H   ASG d1198       2.791  15.288   0.163  0.00  0.00     0.078 H 
ATOM     49  H   ASG d1198       2.296  14.139   1.372  0.00  0.00     0.078 H 
ATOM     50  S   ASG d1196      10.912  13.057  -2.261  0.00  0.00     0.252 S 
ATOM     51  OSB ASG d1196      11.373  13.329  -0.881  0.00  0.00    -0.572 OA
ATOM     52  C7  ASG d1196      11.728   7.504  -0.170  0.00  0.00     0.214 C 
ATOM     53  C6  ASG d1196      11.172  11.494  -5.498  0.00  0.00     0.043 C 
ATOM     54  C8  ASG d1196      12.513   8.636   0.421  0.00  0.00    -0.003 C 
ATOM     55  O6  ASG d1196      12.258  11.166  -6.372  0.00  0.00    -0.398 OA
ATOM     56  C1  ASG d1196      12.094   8.649  -3.326  0.00  0.00     0.151 C 
ATOM     57  O4  ASG d1196      11.073  11.551  -2.523  0.00  0.00    -0.246 OA
ATOM     58  C4  ASG d1196      10.165  10.747  -3.288  0.00  0.00     0.114 C 
ATOM     59  C3  ASG d1196       9.936   9.520  -2.414  0.00  0.00     0.094 C 
ATOM     60  C5  ASG d1196      10.964  10.342  -4.524  0.00  0.00     0.090 C 
ATOM     61  OSA ASG d1196       9.494  13.468  -2.394  0.00  0.00    -0.572 OA
ATOM     62  OSC ASG d1196      11.771  13.811  -3.206  0.00  0.00    -0.572 OA
ATOM     63  C2  ASG d1196      11.326   8.998  -2.048  0.00  0.00     0.087 C 
ATOM     64  O5  ASG d1196      12.234   9.823  -4.123  0.00  0.00    -0.349 OA
ATOM     65  O1  ASG d1196      13.404   8.181  -2.989  0.00  0.00    -0.369 OA
ATOM     66  N   ASG d1196      11.164   7.723  -1.359  0.00  0.00    -0.349 N 
ATOM     67  O7  ASG d1196      11.608   6.440   0.415  0.00  0.00    -0.274 OA
ATOM     68  H   ASG d1196      11.405  12.387  -4.955  0.00  0.00     0.078 H 
ATOM     69  H   ASG d1196      10.281  11.656  -6.067  0.00  0.00     0.078 H 
ATOM     70  H   ASG d1196      12.494   9.471  -0.247  0.00  0.00     0.040 H 
ATOM     71  H   ASG d1196      13.525   8.325   0.576  0.00  0.00     0.040 H 
ATOM     72  H   ASG d1196      12.081   8.919   1.358  0.00  0.00     0.040 H 
ATOM     73  H   ASG d1196      13.062  11.021  -5.849  0.00  0.00     0.209 HD
ATOM     74  H   ASG d1196      11.558   7.893  -3.859  0.00  0.00     0.132 H 
ATOM     75  H   ASG d1196       9.242  11.215  -3.560  0.00  0.00     0.093 H 
ATOM     76  H   ASG d1196       9.395   8.739  -2.908  0.00  0.00     0.091 H 
ATOM     77  H   ASG d1196      10.395   9.595  -5.036  0.00  0.00     0.090 H 
ATOM     78  H   ASG d1196      11.831   9.738  -1.464  0.00  0.00     0.084 H 
ATOM     79  H   ASG d1196      13.881   8.874  -2.506  0.00  0.00     0.212 HD
ATOM     80  H   ASG d1196      10.628   7.011  -1.778  0.00  0.00     0.163 HD
ATOM     81  O3  BDP d1199      -5.828  11.568  -3.324  0.00  0.00    -0.393 OA
ATOM     82  O1  BDP d1199      -1.203  11.579  -1.759  0.00  0.00    -0.348 OA
ATOM     83  O6A BDP d1199      -2.330  16.421  -3.505  0.00  0.00    -0.646 OA
ATOM     84  C4  BDP d1199      -4.544  13.601  -3.215  0.00  0.00    -0.005 C 
ATOM     85  O5  BDP d1199      -2.161  13.490  -2.633  0.00  0.00    -0.343 OA
ATOM     86  C1  BDP d1199      -2.107  12.063  -2.763  0.00  0.00     0.159 C 
ATOM     87  C5  BDP d1199      -3.151  14.198  -3.387  0.00  0.00     0.127 C 
ATOM     88  C2  BDP d1199      -3.491  11.417  -2.645  0.00  0.00     0.107 C 
ATOM     89  C3  BDP d1199      -4.519  12.114  -3.532  0.00  0.00     0.068 C 
ATOM     90  C6  BDP d1199      -3.140  15.639  -2.958  0.00  0.00     0.203 C 
ATOM     91  O2  BDP d1199      -3.401  10.042  -3.029  0.00  0.00    -0.388 OA
ATOM     92  O6B BDP d1199      -3.926  16.006  -2.058  0.00  0.00    -0.646 OA
ATOM     93  H   BDP d1199      -6.464  12.024  -3.896  0.00  0.00     0.210 HD
ATOM     94  H   BDP d1199      -4.867  13.742  -2.205  0.00  0.00     0.041 H 
ATOM     95  H   BDP d1199      -5.219  14.091  -3.886  0.00  0.00     0.041 H 
ATOM     96  H   BDP d1199      -1.757  11.797  -3.739  0.00  0.00     0.133 H 
ATOM     97  H   BDP d1199      -2.910  14.116  -4.427  0.00  0.00     0.100 H 
ATOM     98  H   BDP d1199      -3.813  11.508  -1.628  0.00  0.00     0.094 H 
ATOM     99  H   BDP d1199      -4.240  11.961  -4.554  0.00  0.00     0.087 H 
ATOM    100  H   BDP d1199      -3.110   9.983  -3.951  0.00  0.00     0.210 HD
ENDROOT
TORSDOF 25
ENDMDL
MODEL 60
REMARK VINA RESULT:      -3.7      2.299     12.351
REMARK  0 active torsions:
REMARK  status: ('A' for Active; 'I' for Inactive)
REMARK       I    between atoms: C5_1  and  C6_46 
REMARK       I    between atoms: O1_2  and  C4_60 
REMARK       I    between atoms: O1_2  and  C1_47 
REMARK       I    between atoms: S_3  and  O4_24 
REMARK       I    between atoms: C7_6  and  C8_11 
REMARK       I    between atoms: C7_6  and  N_48 
REMARK       I    between atoms: O3_7  and  C3_41 
REMARK       I    between atoms: O1_9  and  C3_31 
REMARK       I    between atoms: O1_9  and  C1_19 
REMARK       I    between atoms: C6_10  and  C5_34 
REMARK       I    between atoms: C6_10  and  O6_12 
REMARK       I    between atoms: C3_13  and  O1_16 
REMARK       I    between atoms: C2_14  and  N_20 
REMARK       I    between atoms: C1_15  and  O1_45 
REMARK       I    between atoms: O1_16  and  C1_29 
REMARK       I    between atoms: S_17  and  O4_30 
REMARK       I    between atoms: N_20  and  C7_40 
REMARK       I    between atoms: C4_22  and  O4_30 
REMARK       I    between atoms: O4_24  and  C4_28 
REMARK       I    between atoms: C5_25  and  C6_55 
REMARK       I    between atoms: C2_32  and  O2_39 
REMARK       I    between atoms: C5_33  and  C6_51 
REMARK       I    between atoms: C2_36  and  O2_56 
REMARK       I    between atoms: C8_37  and  C7_40 
REMARK       I    between atoms: C2_43  and  N_48 
REMARK       I    between atoms: C3_50  and  O3_53 
REMARK       I    between atoms: O6_54  and  C6_55 
ROOT
ATOM      1  C5  BDP d1197       1.941  10.572  -1.825  0.00  0.00     0.152 C 
ATOM      2  O1  BDP d1197      -1.613  11.173  -0.982  0.00  0.00    -0.348 OA
ATOM      3  C1  BDP d1197      -0.243  11.548  -1.232  0.00  0.00     0.160 C 
ATOM      4  O5  BDP d1197       0.513  10.437  -1.730  0.00  0.00    -0.340 OA
ATOM      5  C2  BDP d1197       0.356  12.073   0.073  0.00  0.00     0.110 C 
ATOM      6  O6A BDP d1197       3.182   9.012  -3.115  0.00  0.00    -0.646 OA
ATOM      7  O2  BDP d1197      -0.281  13.310   0.422  0.00  0.00    -0.388 OA
ATOM      8  C6  BDP d1197       2.490   9.203  -2.090  0.00  0.00     0.206 C 
ATOM      9  C3  BDP d1197       1.872  12.274   0.028  0.00  0.00     0.092 C 
ATOM     10  O6B BDP d1197       2.238   8.307  -1.256  0.00  0.00    -0.646 OA
ATOM     11  O3  BDP d1197       2.327  12.502   1.369  0.00  0.00    -0.390 OA
ATOM     12  C4  BDP d1197       2.613  11.067  -0.546  0.00  0.00     0.103 C 
ATOM     13  H   BDP d1197       2.138  11.293  -2.591  0.00  0.00     0.104 H 
ATOM     14  H   BDP d1197      -0.210  12.310  -1.982  0.00  0.00     0.133 H 
ATOM     15  H   BDP d1197       0.177  11.321   0.812  0.00  0.00     0.094 H 
ATOM     16  H   BDP d1197      -0.102  13.971  -0.265  0.00  0.00     0.210 HD
ATOM     17  H   BDP d1197       2.079  13.105  -0.615  0.00  0.00     0.091 H 
ATOM     18  H   BDP d1197       2.121  11.728   1.916  0.00  0.00     0.210 HD
ATOM     19  H   BDP d1197       2.586  10.285   0.185  0.00  0.00     0.092 H 
ATOM     20  O1  ASG d1198       3.984  11.415  -0.833  0.00  0.00    -0.348 OA
ATOM     21  O7  ASG d1198       7.066  10.784  -4.444  0.00  0.00    -0.274 OA
ATOM     22  OSB ASG d1198       9.760  12.673   1.880  0.00  0.00    -0.572 OA
ATOM     23  C3  ASG d1198       7.618  10.433  -0.257  0.00  0.00     0.094 C 
ATOM     24  C2  ASG d1198       6.402  11.075  -0.944  0.00  0.00     0.087 C 
ATOM     25  S   ASG d1198       8.486  12.471   2.605  0.00  0.00     0.252 S 
ATOM     26  N   ASG d1198       6.479  10.565  -2.310  0.00  0.00    -0.349 N 
ATOM     27  OSA ASG d1198       8.720  11.563   3.750  0.00  0.00    -0.572 OA
ATOM     28  C4  ASG d1198       7.467  10.486   1.258  0.00  0.00     0.114 C 
ATOM     29  C5  ASG d1198       6.133   9.848   1.635  0.00  0.00     0.090 C 
ATOM     30  O4  ASG d1198       7.447  11.864   1.643  0.00  0.00    -0.246 OA
ATOM     31  C8  ASG d1198       7.542  12.631  -3.033  0.00  0.00    -0.003 C 
ATOM     32  C7  ASG d1198       7.016  11.254  -3.321  0.00  0.00     0.214 C 
ATOM     33  C1  ASG d1198       5.058  10.577  -0.372  0.00  0.00     0.154 C 
ATOM     34  OSC ASG d1198       7.988  13.775   3.098  0.00  0.00    -0.572 OA
ATOM     35  O6  ASG d1198       7.227   9.492   3.733  0.00  0.00    -0.398 OA
ATOM     36  C6  ASG d1198       5.952   9.747   3.145  0.00  0.00     0.043 C 
ATOM     37  O5  ASG d1198       5.068  10.610   1.058  0.00  0.00    -0.349 OA
ATOM     38  H   ASG d1198       7.648   9.413  -0.576  0.00  0.00     0.091 H 
ATOM     39  H   ASG d1198       6.429  12.138  -0.830  0.00  0.00     0.084 H 
ATOM     40  H   ASG d1198       6.117   9.668  -2.495  0.00  0.00     0.163 HD
ATOM     41  H   ASG d1198       8.268   9.967   1.743  0.00  0.00     0.093 H 
ATOM     42  H   ASG d1198       6.121   8.849   1.251  0.00  0.00     0.090 H 
ATOM     43  H   ASG d1198       7.938  13.056  -3.930  0.00  0.00     0.040 H 
ATOM     44  H   ASG d1198       8.315  12.570  -2.295  0.00  0.00     0.040 H 
ATOM     45  H   ASG d1198       6.747  13.247  -2.667  0.00  0.00     0.040 H 
ATOM     46  H   ASG d1198       4.915   9.571  -0.706  0.00  0.00     0.132 H 
ATOM     47  H   ASG d1198       7.131   9.424   4.696  0.00  0.00     0.209 HD
ATOM     48  H   ASG d1198       5.280   8.947   3.376  0.00  0.00     0.078 H 
ATOM     49  H   ASG d1198       5.545  10.660   3.529  0.00  0.00     0.078 H 
ATOM     50  S   ASG d1196      -2.900   7.912   0.406  0.00  0.00     0.252 S 
ATOM     51  OSB ASG d1196      -3.405   8.538   1.649  0.00  0.00    -0.572 OA
ATOM     52  C7  ASG d1196      -4.568  13.312  -1.578  0.00  0.00     0.214 C 
ATOM     53  C6  ASG d1196      -3.165   6.952  -3.057  0.00  0.00     0.043 C 
ATOM     54  C8  ASG d1196      -5.232  12.738  -0.363  0.00  0.00    -0.003 C 
ATOM     55  O6  ASG d1196      -4.229   6.480  -3.892  0.00  0.00    -0.398 OA
ATOM     56  C1  ASG d1196      -4.585  10.361  -3.217  0.00  0.00     0.151 C 
ATOM     57  O4  ASG d1196      -3.242   8.849  -0.764  0.00  0.00    -0.246 OA
ATOM     58  C4  ASG d1196      -2.403   9.083  -1.903  0.00  0.00     0.114 C 
ATOM     59  C3  ASG d1196      -2.391  10.600  -2.045  0.00  0.00     0.094 C 
ATOM     60  C5  ASG d1196      -3.171   8.474  -3.073  0.00  0.00     0.090 C 
ATOM     61  OSA ASG d1196      -1.435   7.717   0.516  0.00  0.00    -0.572 OA
ATOM     62  OSC ASG d1196      -3.593   6.615   0.211  0.00  0.00    -0.572 OA
ATOM     63  C2  ASG d1196      -3.858  11.034  -2.051  0.00  0.00     0.087 C 
ATOM     64  O5  ASG d1196      -4.521   8.946  -3.055  0.00  0.00    -0.349 OA
ATOM     65  O1  ASG d1196      -5.963  10.746  -3.214  0.00  0.00    -0.369 OA
ATOM     66  N   ASG d1196      -3.908  12.458  -2.360  0.00  0.00    -0.349 N 
ATOM     67  O7  ASG d1196      -4.625  14.505  -1.828  0.00  0.00    -0.274 OA
ATOM     68  H   ASG d1196      -3.311   6.602  -2.056  0.00  0.00     0.078 H 
ATOM     69  H   ASG d1196      -2.227   6.587  -3.420  0.00  0.00     0.078 H 
ATOM     70  H   ASG d1196      -5.062  11.682  -0.330  0.00  0.00     0.040 H 
ATOM     71  H   ASG d1196      -6.283  12.928  -0.407  0.00  0.00     0.040 H 
ATOM     72  H   ASG d1196      -4.824  13.192   0.516  0.00  0.00     0.040 H 
ATOM     73  H   ASG d1196      -5.075   6.815  -3.556  0.00  0.00     0.209 HD
ATOM     74  H   ASG d1196      -4.122  10.657  -4.135  0.00  0.00     0.132 H 
ATOM     75  H   ASG d1196      -1.411   8.686  -1.843  0.00  0.00     0.093 H 
ATOM     76  H   ASG d1196      -1.929  10.942  -2.948  0.00  0.00     0.091 H 
ATOM     77  H   ASG d1196      -2.675   8.782  -3.970  0.00  0.00     0.090 H 
ATOM     78  H   ASG d1196      -4.295  10.787  -1.106  0.00  0.00     0.084 H 
ATOM     79  H   ASG d1196      -6.374  10.472  -2.378  0.00  0.00     0.212 HD
ATOM     80  H   ASG d1196      -3.446  12.795  -3.162  0.00  0.00     0.163 HD
ATOM     81  O3  BDP d1199      13.531  10.684  -2.028  0.00  0.00    -0.393 OA
ATOM     82  O1  BDP d1199       8.860  11.040  -0.650  0.00  0.00    -0.348 OA
ATOM     83  O6A BDP d1199      10.721   6.441   1.122  0.00  0.00    -0.646 OA
ATOM     84  C4  BDP d1199      12.522   9.051  -0.575  0.00  0.00    -0.005 C 
ATOM     85  O5  BDP d1199      10.114   9.178  -0.111  0.00  0.00    -0.343 OA
ATOM     86  C1  BDP d1199       9.881  10.155  -1.134  0.00  0.00     0.159 C 
ATOM     87  C5  BDP d1199      11.233   8.297  -0.264  0.00  0.00     0.127 C 
ATOM     88  C2  BDP d1199      11.157  10.909  -1.518  0.00  0.00     0.107 C 
ATOM     89  C3  BDP d1199      12.321   9.957  -1.780  0.00  0.00     0.068 C 
ATOM     90  C6  BDP d1199      11.386   7.494   0.998  0.00  0.00     0.203 C 
ATOM     91  O2  BDP d1199      10.911  11.678  -2.699  0.00  0.00    -0.388 OA
ATOM     92  O6B BDP d1199      12.156   7.912   1.889  0.00  0.00    -0.646 OA
ATOM     93  H   BDP d1199      14.255  10.060  -2.191  0.00  0.00     0.210 HD
ATOM     94  H   BDP d1199      12.798   9.644   0.271  0.00  0.00     0.041 H 
ATOM     95  H   BDP d1199      13.295   8.344  -0.794  0.00  0.00     0.041 H 
ATOM     96  H   BDP d1199       9.559   9.674  -2.034  0.00  0.00     0.133 H 
ATOM     97  H   BDP d1199      11.047   7.652  -1.097  0.00  0.00     0.100 H 
ATOM     98  H   BDP d1199      11.425  11.544  -0.699  0.00  0.00     0.094 H 
ATOM     99  H   BDP d1199      12.087   9.371  -2.645  0.00  0.00     0.087 H 
ATOM    100  H   BDP d1199      10.671  11.084  -3.427  0.00  0.00     0.210 HD
ENDROOT
TORSDOF 25
ENDMDL
MODEL 61
REMARK VINA RESULT:      -3.7      3.207     12.588
REMARK  0 active torsions:
REMARK  status: ('A' for Active; 'I' for Inactive)
REMARK       I    between atoms: C5_1  and  C6_46 
REMARK       I    between atoms: O1_2  and  C4_60 
REMARK       I    between atoms: O1_2  and  C1_47 
REMARK       I    between atoms: S_3  and  O4_24 
REMARK       I    between atoms: C7_6  and  C8_11 
REMARK       I    between atoms: C7_6  and  N_48 
REMARK       I    between atoms: O3_7  and  C3_41 
REMARK       I    between atoms: O1_9  and  C3_31 
REMARK       I    between atoms: O1_9  and  C1_19 
REMARK       I    between atoms: C6_10  and  C5_34 
REMARK       I    between atoms: C6_10  and  O6_12 
REMARK       I    between atoms: C3_13  and  O1_16 
REMARK       I    between atoms: C2_14  and  N_20 
REMARK       I    between atoms: C1_15  and  O1_45 
REMARK       I    between atoms: O1_16  and  C1_29 
REMARK       I    between atoms: S_17  and  O4_30 
REMARK       I    between atoms: N_20  and  C7_40 
REMARK       I    between atoms: C4_22  and  O4_30 
REMARK       I    between atoms: O4_24  and  C4_28 
REMARK       I    between atoms: C5_25  and  C6_55 
REMARK       I    between atoms: C2_32  and  O2_39 
REMARK       I    between atoms: C5_33  and  C6_51 
REMARK       I    between atoms: C2_36  and  O2_56 
REMARK       I    between atoms: C8_37  and  C7_40 
REMARK       I    between atoms: C2_43  and  N_48 
REMARK       I    between atoms: C3_50  and  O3_53 
REMARK       I    between atoms: O6_54  and  C6_55 
ROOT
ATOM      1  C5  BDP d1197       4.308  12.157  -1.906  0.00  0.00     0.152 C 
ATOM      2  O1  BDP d1197       1.143  10.647  -3.090  0.00  0.00    -0.348 OA
ATOM      3  C1  BDP d1197       2.406  10.668  -2.396  0.00  0.00     0.160 C 
ATOM      4  O5  BDP d1197       2.956  11.991  -2.364  0.00  0.00    -0.340 OA
ATOM      5  C2  BDP d1197       3.357   9.700  -3.102  0.00  0.00     0.110 C 
ATOM      6  O6A BDP d1197       5.091  14.321  -1.325  0.00  0.00    -0.646 OA
ATOM      7  O2  BDP d1197       2.886   8.358  -2.921  0.00  0.00    -0.388 OA
ATOM      8  C6  BDP d1197       4.712  13.560  -2.243  0.00  0.00     0.206 C 
ATOM      9  C3  BDP d1197       4.811   9.800  -2.634  0.00  0.00     0.092 C 
ATOM     10  O6B BDP d1197       4.662  13.905  -3.444  0.00  0.00    -0.646 OA
ATOM     11  O3  BDP d1197       5.621   9.050  -3.549  0.00  0.00    -0.390 OA
ATOM     12  C4  BDP d1197       5.321  11.240  -2.590  0.00  0.00     0.103 C 
ATOM     13  H   BDP d1197       4.316  11.923  -0.862  0.00  0.00     0.104 H 
ATOM     14  H   BDP d1197       2.263  10.364  -1.380  0.00  0.00     0.133 H 
ATOM     15  H   BDP d1197       3.357   9.977  -4.136  0.00  0.00     0.094 H 
ATOM     16  H   BDP d1197       2.897   8.136  -1.977  0.00  0.00     0.210 HD
ATOM     17  H   BDP d1197       4.866   9.415  -1.637  0.00  0.00     0.091 H 
ATOM     18  H   BDP d1197       5.542   9.431  -4.438  0.00  0.00     0.210 HD
ATOM     19  H   BDP d1197       5.464  11.571  -3.597  0.00  0.00     0.092 H 
ATOM     20  O1  ASG d1198       6.574  11.302  -1.876  0.00  0.00    -0.348 OA
ATOM     21  O7  ASG d1198       8.532  14.056   1.518  0.00  0.00    -0.274 OA
ATOM     22  OSB ASG d1198      12.914   9.903  -2.275  0.00  0.00    -0.572 OA
ATOM     23  C3  ASG d1198      10.188  12.489  -2.056  0.00  0.00     0.094 C 
ATOM     24  C2  ASG d1198       8.856  12.053  -1.425  0.00  0.00     0.087 C 
ATOM     25  S   ASG d1198      11.878   9.526  -3.262  0.00  0.00     0.252 S 
ATOM     26  N   ASG d1198       8.540  13.148  -0.514  0.00  0.00    -0.349 N 
ATOM     27  OSA ASG d1198      12.380   9.816  -4.624  0.00  0.00    -0.572 OA
ATOM     28  C4  ASG d1198      10.457  11.709  -3.337  0.00  0.00     0.114 C 
ATOM     29  C5  ASG d1198       9.252  11.863  -4.260  0.00  0.00     0.090 C 
ATOM     30  O4  ASG d1198      10.594  10.330  -2.981  0.00  0.00    -0.246 OA
ATOM     31  C8  ASG d1198       9.444  11.872   1.350  0.00  0.00    -0.003 C 
ATOM     32  C7  ASG d1198       8.808  13.114   0.796  0.00  0.00     0.214 C 
ATOM     33  C1  ASG d1198       7.700  11.992  -2.446  0.00  0.00     0.154 C 
ATOM     34  OSC ASG d1198      11.583   8.080  -3.138  0.00  0.00    -0.572 OA
ATOM     35  O6  ASG d1198      10.860  11.371  -5.962  0.00  0.00    -0.398 OA
ATOM     36  C6  ASG d1198       9.484  11.212  -5.619  0.00  0.00     0.043 C 
ATOM     37  O5  ASG d1198       8.100  11.294  -3.629  0.00  0.00    -0.349 OA
ATOM     38  H   ASG d1198      10.091  13.529  -2.288  0.00  0.00     0.091 H 
ATOM     39  H   ASG d1198       8.953  11.081  -0.988  0.00  0.00     0.084 H 
ATOM     40  H   ASG d1198       8.107  13.952  -0.881  0.00  0.00     0.163 HD
ATOM     41  H   ASG d1198      11.339  12.065  -3.827  0.00  0.00     0.093 H 
ATOM     42  H   ASG d1198       9.098  12.907  -4.435  0.00  0.00     0.090 H 
ATOM     43  H   ASG d1198       9.598  11.990   2.402  0.00  0.00     0.040 H 
ATOM     44  H   ASG d1198      10.386  11.707   0.869  0.00  0.00     0.040 H 
ATOM     45  H   ASG d1198       8.803  11.033   1.176  0.00  0.00     0.040 H 
ATOM     46  H   ASG d1198       7.434  12.997  -2.695  0.00  0.00     0.132 H 
ATOM     47  H   ASG d1198      11.027  10.963  -6.826  0.00  0.00     0.209 HD
ATOM     48  H   ASG d1198       8.870  11.686  -6.356  0.00  0.00     0.078 H 
ATOM     49  H   ASG d1198       9.232  10.173  -5.578  0.00  0.00     0.078 H 
ATOM     50  S   ASG d1196       0.158  12.610  -6.155  0.00  0.00     0.252 S 
ATOM     51  OSB ASG d1196       0.034  11.401  -7.000  0.00  0.00    -0.572 OA
ATOM     52  C7  ASG d1196      -1.779   8.577  -2.173  0.00  0.00     0.214 C 
ATOM     53  C6  ASG d1196      -1.075  15.022  -3.779  0.00  0.00     0.043 C 
ATOM     54  C8  ASG d1196      -2.109   8.396  -3.624  0.00  0.00    -0.003 C 
ATOM     55  O6  ASG d1196      -2.343  15.645  -3.543  0.00  0.00    -0.398 OA
ATOM     56  C1  ASG d1196      -2.354  11.903  -2.262  0.00  0.00     0.151 C 
ATOM     57  O4  ASG d1196      -0.453  12.289  -4.782  0.00  0.00    -0.246 OA
ATOM     58  C4  ASG d1196       0.053  12.760  -3.525  0.00  0.00     0.114 C 
ATOM     59  C3  ASG d1196       0.083  11.512  -2.651  0.00  0.00     0.094 C 
ATOM     60  C5  ASG d1196      -1.027  13.708  -3.011  0.00  0.00     0.090 C 
ATOM     61  OSA ASG d1196       1.589  12.972  -6.025  0.00  0.00    -0.572 OA
ATOM     62  OSC ASG d1196      -0.611  13.711  -6.786  0.00  0.00    -0.572 OA
ATOM     63  C2  ASG d1196      -1.312  10.894  -2.750  0.00  0.00     0.087 C 
ATOM     64  O5  ASG d1196      -2.302  13.066  -3.086  0.00  0.00    -0.349 OA
ATOM     65  O1  ASG d1196      -3.664  11.338  -2.375  0.00  0.00    -0.369 OA
ATOM     66  N   ASG d1196      -1.390   9.796  -1.795  0.00  0.00    -0.349 N 
ATOM     67  O7  ASG d1196      -1.857   7.651  -1.383  0.00  0.00    -0.274 OA
ATOM     68  H   ASG d1196      -0.957  14.833  -4.826  0.00  0.00     0.078 H 
ATOM     69  H   ASG d1196      -0.286  15.665  -3.450  0.00  0.00     0.078 H 
ATOM     70  H   ASG d1196      -1.977   9.324  -4.138  0.00  0.00     0.040 H 
ATOM     71  H   ASG d1196      -3.125   8.075  -3.721  0.00  0.00     0.040 H 
ATOM     72  H   ASG d1196      -1.461   7.658  -4.048  0.00  0.00     0.040 H 
ATOM     73  H   ASG d1196      -3.053  15.056  -3.843  0.00  0.00     0.209 HD
ATOM     74  H   ASG d1196      -2.147  12.153  -1.243  0.00  0.00     0.132 H 
ATOM     75  H   ASG d1196       1.008  13.242  -3.557  0.00  0.00     0.093 H 
ATOM     76  H   ASG d1196       0.296  11.717  -1.622  0.00  0.00     0.091 H 
ATOM     77  H   ASG d1196      -0.782  13.944  -1.997  0.00  0.00     0.090 H 
ATOM     78  H   ASG d1196      -1.485  10.593  -3.762  0.00  0.00     0.084 H 
ATOM     79  H   ASG d1196      -3.841  11.115  -3.302  0.00  0.00     0.212 HD
ATOM     80  H   ASG d1196      -1.151   9.956  -0.853  0.00  0.00     0.163 HD
ATOM     81  O3  BDP d1199      15.402  14.089   0.845  0.00  0.00    -0.393 OA
ATOM     82  O1  BDP d1199      11.299  12.355  -1.154  0.00  0.00    -0.348 OA
ATOM     83  O6A BDP d1199      13.395  15.825  -4.520  0.00  0.00    -0.646 OA
ATOM     84  C4  BDP d1199      14.764  14.657  -1.406  0.00  0.00    -0.005 C 
ATOM     85  O5  BDP d1199      12.580  13.927  -2.258  0.00  0.00    -0.343 OA
ATOM     86  C1  BDP d1199      12.115  13.520  -0.964  0.00  0.00     0.159 C 
ATOM     87  C5  BDP d1199      13.581  14.949  -2.322  0.00  0.00     0.127 C 
ATOM     88  C2  BDP d1199      13.267  13.259   0.011  0.00  0.00     0.107 C 
ATOM     89  C3  BDP d1199      14.278  14.402   0.012  0.00  0.00     0.068 C 
ATOM     90  C6  BDP d1199      14.040  15.080  -3.748  0.00  0.00     0.203 C 
ATOM     91  O2  BDP d1199      12.738  13.104   1.331  0.00  0.00    -0.388 OA
ATOM     92  O6B BDP d1199      15.039  14.428  -4.122  0.00  0.00    -0.646 OA
ATOM     93  H   BDP d1199      16.030  14.828   0.831  0.00  0.00     0.210 HD
ATOM     94  H   BDP d1199      15.283  13.791  -1.763  0.00  0.00     0.041 H 
ATOM     95  H   BDP d1199      15.421  15.501  -1.404  0.00  0.00     0.041 H 
ATOM     96  H   BDP d1199      11.542  14.306  -0.516  0.00  0.00     0.133 H 
ATOM     97  H   BDP d1199      13.151  15.869  -1.983  0.00  0.00     0.100 H 
ATOM     98  H   BDP d1199      13.771  12.369  -0.304  0.00  0.00     0.094 H 
ATOM     99  H   BDP d1199      13.796  15.276   0.398  0.00  0.00     0.087 H 
ATOM    100  H   BDP d1199      12.287  13.920   1.596  0.00  0.00     0.210 HD
ENDROOT
TORSDOF 25
ENDMDL
MODEL 62
REMARK VINA RESULT:      -3.7      3.380      5.240
REMARK  0 active torsions:
REMARK  status: ('A' for Active; 'I' for Inactive)
REMARK       I    between atoms: C5_1  and  C6_46 
REMARK       I    between atoms: O1_2  and  C4_60 
REMARK       I    between atoms: O1_2  and  C1_47 
REMARK       I    between atoms: S_3  and  O4_24 
REMARK       I    between atoms: C7_6  and  C8_11 
REMARK       I    between atoms: C7_6  and  N_48 
REMARK       I    between atoms: O3_7  and  C3_41 
REMARK       I    between atoms: O1_9  and  C3_31 
REMARK       I    between atoms: O1_9  and  C1_19 
REMARK       I    between atoms: C6_10  and  C5_34 
REMARK       I    between atoms: C6_10  and  O6_12 
REMARK       I    between atoms: C3_13  and  O1_16 
REMARK       I    between atoms: C2_14  and  N_20 
REMARK       I    between atoms: C1_15  and  O1_45 
REMARK       I    between atoms: O1_16  and  C1_29 
REMARK       I    between atoms: S_17  and  O4_30 
REMARK       I    between atoms: N_20  and  C7_40 
REMARK       I    between atoms: C4_22  and  O4_30 
REMARK       I    between atoms: O4_24  and  C4_28 
REMARK       I    between atoms: C5_25  and  C6_55 
REMARK       I    between atoms: C2_32  and  O2_39 
REMARK       I    between atoms: C5_33  and  C6_51 
REMARK       I    between atoms: C2_36  and  O2_56 
REMARK       I    between atoms: C8_37  and  C7_40 
REMARK       I    between atoms: C2_43  and  N_48 
REMARK       I    between atoms: C3_50  and  O3_53 
REMARK       I    between atoms: O6_54  and  C6_55 
ROOT
ATOM      1  C5  BDP d1197       9.403  10.941  -0.911  0.00  0.00     0.152 C 
ATOM      2  O1  BDP d1197      12.462   8.943  -0.322  0.00  0.00    -0.348 OA
ATOM      3  C1  BDP d1197      11.202   9.257  -0.947  0.00  0.00     0.160 C 
ATOM      4  O5  BDP d1197      10.742  10.557  -0.556  0.00  0.00    -0.340 OA
ATOM      5  C2  BDP d1197      10.190   8.180  -0.554  0.00  0.00     0.110 C 
ATOM      6  O6A BDP d1197       8.764  13.224  -0.776  0.00  0.00    -0.646 OA
ATOM      7  O2  BDP d1197      10.570   6.933  -1.152  0.00  0.00    -0.388 OA
ATOM      8  C6  BDP d1197       9.094  12.194  -0.147  0.00  0.00     0.206 C 
ATOM      9  C3  BDP d1197       8.745   8.512  -0.936  0.00  0.00     0.092 C 
ATOM     10  O6B BDP d1197       9.169  12.145   1.100  0.00  0.00    -0.646 OA
ATOM     11  O3  BDP d1197       7.889   7.567  -0.279  0.00  0.00    -0.390 OA
ATOM     12  C4  BDP d1197       8.332   9.923  -0.521  0.00  0.00     0.103 C 
ATOM     13  H   BDP d1197       9.377  11.044  -1.975  0.00  0.00     0.104 H 
ATOM     14  H   BDP d1197      11.323   9.275  -2.010  0.00  0.00     0.133 H 
ATOM     15  H   BDP d1197      10.210   8.122   0.514  0.00  0.00     0.094 H 
ATOM     16  H   BDP d1197      10.543   7.016  -2.118  0.00  0.00     0.210 HD
ATOM     17  H   BDP d1197       8.662   8.459  -2.001  0.00  0.00     0.091 H 
ATOM     18  H   BDP d1197       7.994   7.648   0.682  0.00  0.00     0.210 HD
ATOM     19  H   BDP d1197       8.214   9.934   0.542  0.00  0.00     0.092 H 
ATOM     20  O1  ASG d1198       7.084  10.282  -1.152  0.00  0.00    -0.348 OA
ATOM     21  O7  ASG d1198       5.308  14.069  -3.484  0.00  0.00    -0.274 OA
ATOM     22  OSB ASG d1198       0.667   9.230  -1.064  0.00  0.00    -0.572 OA
ATOM     23  C3  ASG d1198       3.559  11.580  -0.533  0.00  0.00     0.094 C 
ATOM     24  C2  ASG d1198       4.857  11.277  -1.298  0.00  0.00     0.087 C 
ATOM     25  S   ASG d1198       1.676   8.501  -0.265  0.00  0.00     0.252 S 
ATOM     26  N   ASG d1198       5.244  12.579  -1.833  0.00  0.00    -0.349 N 
ATOM     27  OSA ASG d1198       1.198   8.385   1.130  0.00  0.00    -0.572 OA
ATOM     28  C4  ASG d1198       3.241  10.459   0.449  0.00  0.00     0.114 C 
ATOM     29  C5  ASG d1198       4.454  10.243   1.348  0.00  0.00     0.090 C 
ATOM     30  O4  ASG d1198       3.010   9.270  -0.313  0.00  0.00    -0.246 OA
ATOM     31  C8  ASG d1198       4.253  12.003  -3.980  0.00  0.00    -0.003 C 
ATOM     32  C7  ASG d1198       4.972  12.969  -3.082  0.00  0.00     0.214 C 
ATOM     33  C1  ASG d1198       6.008  10.830  -0.373  0.00  0.00     0.154 C 
ATOM     34  OSC ASG d1198       1.875   7.149  -0.837  0.00  0.00    -0.572 OA
ATOM     35  O6  ASG d1198       2.820   9.350   2.850  0.00  0.00    -0.398 OA
ATOM     36  C6  ASG d1198       4.182   9.219   2.443  0.00  0.00     0.043 C 
ATOM     37  O5  ASG d1198       5.564   9.827   0.546  0.00  0.00    -0.349 OA
ATOM     38  H   ASG d1198       3.725  12.488   0.006  0.00  0.00     0.091 H 
ATOM     39  H   ASG d1198       4.694  10.497  -2.012  0.00  0.00     0.084 H 
ATOM     40  H   ASG d1198       5.730  13.200  -1.245  0.00  0.00     0.163 HD
ATOM     41  H   ASG d1198       2.385  10.701   1.045  0.00  0.00     0.093 H 
ATOM     42  H   ASG d1198       4.678  11.170   1.834  0.00  0.00     0.090 H 
ATOM     43  H   ASG d1198       4.106  12.450  -4.940  0.00  0.00     0.040 H 
ATOM     44  H   ASG d1198       3.304  11.757  -3.552  0.00  0.00     0.040 H 
ATOM     45  H   ASG d1198       4.837  11.113  -4.087  0.00  0.00     0.040 H 
ATOM     46  H   ASG d1198       6.341  11.690   0.169  0.00  0.00     0.132 H 
ATOM     47  H   ASG d1198       2.627   8.706   3.548  0.00  0.00     0.209 HD
ATOM     48  H   ASG d1198       4.827   9.402   3.277  0.00  0.00     0.078 H 
ATOM     49  H   ASG d1198       4.364   8.231   2.077  0.00  0.00     0.078 H 
ATOM     50  S   ASG d1196      13.581   9.794   3.177  0.00  0.00     0.252 S 
ATOM     51  OSB ASG d1196      13.626   8.376   3.603  0.00  0.00    -0.572 OA
ATOM     52  C7  ASG d1196      15.238   7.080  -1.900  0.00  0.00     0.214 C 
ATOM     53  C6  ASG d1196      14.968  12.741   1.636  0.00  0.00     0.043 C 
ATOM     54  C8  ASG d1196      15.558   6.438  -0.584  0.00  0.00    -0.003 C 
ATOM     55  O6  ASG d1196      16.274  13.325   1.576  0.00  0.00    -0.398 OA
ATOM     56  C1  ASG d1196      16.033  10.172  -0.799  0.00  0.00     0.151 C 
ATOM     57  O4  ASG d1196      14.168   9.876   1.758  0.00  0.00    -0.246 OA
ATOM     58  C4  ASG d1196      13.691  10.744   0.721  0.00  0.00     0.114 C 
ATOM     59  C3  ASG d1196      13.576   9.833  -0.496  0.00  0.00     0.094 C 
ATOM     60  C5  ASG d1196      14.831  11.735   0.501  0.00  0.00     0.090 C 
ATOM     61  OSA ASG d1196      12.178  10.267   3.197  0.00  0.00    -0.572 OA
ATOM     62  OSC ASG d1196      14.423  10.594   4.100  0.00  0.00    -0.572 OA
ATOM     63  C2  ASG d1196      14.927   9.128  -0.624  0.00  0.00     0.087 C 
ATOM     64  O5  ASG d1196      16.061  11.022   0.345  0.00  0.00    -0.349 OA
ATOM     65  O1  ASG d1196      17.303   9.518  -0.896  0.00  0.00    -0.369 OA
ATOM     66  N   ASG d1196      14.930   8.378  -1.873  0.00  0.00    -0.349 N 
ATOM     67  O7  ASG d1196      15.252   6.441  -2.939  0.00  0.00    -0.274 OA
ATOM     68  H   ASG d1196      14.840  12.244   2.575  0.00  0.00     0.078 H 
ATOM     69  H   ASG d1196      14.223  13.502   1.540  0.00  0.00     0.078 H 
ATOM     70  H   ASG d1196      15.489   7.167   0.196  0.00  0.00     0.040 H 
ATOM     71  H   ASG d1196      16.550   6.040  -0.613  0.00  0.00     0.040 H 
ATOM     72  H   ASG d1196      14.863   5.647  -0.394  0.00  0.00     0.040 H 
ATOM     73  H   ASG d1196      16.944  12.629   1.663  0.00  0.00     0.209 HD
ATOM     74  H   ASG d1196      15.842  10.738  -1.686  0.00  0.00     0.132 H 
ATOM     75  H   ASG d1196      12.771  11.251   0.921  0.00  0.00     0.093 H 
ATOM     76  H   ASG d1196      13.376  10.359  -1.406  0.00  0.00     0.091 H 
ATOM     77  H   ASG d1196      14.601  12.289  -0.385  0.00  0.00     0.090 H 
ATOM     78  H   ASG d1196      15.082   8.518   0.241  0.00  0.00     0.084 H 
ATOM     79  H   ASG d1196      17.467   9.008  -0.088  0.00  0.00     0.212 HD
ATOM     80  H   ASG d1196      14.700   8.836  -2.714  0.00  0.00     0.163 HD
ATOM     81  O3  BDP d1199      -1.542  14.324  -2.680  0.00  0.00    -0.393 OA
ATOM     82  O1  BDP d1199       2.439  11.801  -1.408  0.00  0.00    -0.348 OA
ATOM     83  O6A BDP d1199       0.586  14.182   2.912  0.00  0.00    -0.646 OA
ATOM     84  C4  BDP d1199      -0.864  14.125  -0.379  0.00  0.00    -0.005 C 
ATOM     85  O5  BDP d1199       1.268  13.031   0.156  0.00  0.00    -0.343 OA
ATOM     86  C1  BDP d1199       1.703  13.016  -1.210  0.00  0.00     0.159 C 
ATOM     87  C5  BDP d1199       0.338  14.044   0.556  0.00  0.00     0.127 C 
ATOM     88  C2  BDP d1199       0.534  13.143  -2.192  0.00  0.00     0.107 C 
ATOM     89  C3  BDP d1199      -0.399  14.292  -1.817  0.00  0.00     0.068 C 
ATOM     90  C6  BDP d1199      -0.109  13.755   1.962  0.00  0.00     0.203 C 
ATOM     91  O2  BDP d1199       1.049  13.372  -3.507  0.00  0.00    -0.388 OA
ATOM     92  O6B BDP d1199      -1.149  13.083   2.139  0.00  0.00    -0.646 OA
ATOM     93  H   BDP d1199      -2.120  15.060  -2.425  0.00  0.00     0.210 HD
ATOM     94  H   BDP d1199      -1.439  13.226  -0.296  0.00  0.00     0.041 H 
ATOM     95  H   BDP d1199      -1.464  14.968  -0.105  0.00  0.00     0.041 H 
ATOM     96  H   BDP d1199       2.325  13.865  -1.406  0.00  0.00     0.133 H 
ATOM     97  H   BDP d1199       0.827  14.994   0.508  0.00  0.00     0.100 H 
ATOM     98  H   BDP d1199      -0.028  12.234  -2.157  0.00  0.00     0.094 H 
ATOM     99  H   BDP d1199       0.140  15.211  -1.924  0.00  0.00     0.087 H 
ATOM    100  H   BDP d1199       1.553  14.201  -3.517  0.00  0.00     0.210 HD
ENDROOT
TORSDOF 25
ENDMDL
MODEL 63
REMARK VINA RESULT:      -3.7      2.867      5.495
REMARK  0 active torsions:
REMARK  status: ('A' for Active; 'I' for Inactive)
REMARK       I    between atoms: C5_1  and  C6_46 
REMARK       I    between atoms: O1_2  and  C4_60 
REMARK       I    between atoms: O1_2  and  C1_47 
REMARK       I    between atoms: S_3  and  O4_24 
REMARK       I    between atoms: C7_6  and  C8_11 
REMARK       I    between atoms: C7_6  and  N_48 
REMARK       I    between atoms: O3_7  and  C3_41 
REMARK       I    between atoms: O1_9  and  C3_31 
REMARK       I    between atoms: O1_9  and  C1_19 
REMARK       I    between atoms: C6_10  and  C5_34 
REMARK       I    between atoms: C6_10  and  O6_12 
REMARK       I    between atoms: C3_13  and  O1_16 
REMARK       I    between atoms: C2_14  and  N_20 
REMARK       I    between atoms: C1_15  and  O1_45 
REMARK       I    between atoms: O1_16  and  C1_29 
REMARK       I    between atoms: S_17  and  O4_30 
REMARK       I    between atoms: N_20  and  C7_40 
REMARK       I    between atoms: C4_22  and  O4_30 
REMARK       I    between atoms: O4_24  and  C4_28 
REMARK       I    between atoms: C5_25  and  C6_55 
REMARK       I    between atoms: C2_32  and  O2_39 
REMARK       I    between atoms: C5_33  and  C6_51 
REMARK       I    between atoms: C2_36  and  O2_56 
REMARK       I    between atoms: C8_37  and  C7_40 
REMARK       I    between atoms: C2_43  and  N_48 
REMARK       I    between atoms: C3_50  and  O3_53 
REMARK       I    between atoms: O6_54  and  C6_55 
ROOT
ATOM      1  C5  BDP d1197       5.928  11.732  -0.994  0.00  0.00     0.152 C 
ATOM      2  O1  BDP d1197       9.037  11.073  -2.891  0.00  0.00    -0.348 OA
ATOM      3  C1  BDP d1197       7.675  11.509  -2.719  0.00  0.00     0.160 C 
ATOM      4  O5  BDP d1197       7.311  11.533  -1.332  0.00  0.00    -0.340 OA
ATOM      5  C2  BDP d1197       6.765  10.562  -3.504  0.00  0.00     0.110 C 
ATOM      6  O6A BDP d1197       5.340  12.311   1.233  0.00  0.00    -0.646 OA
ATOM      7  O2  BDP d1197       7.006  10.730  -4.908  0.00  0.00    -0.388 OA
ATOM      8  C6  BDP d1197       5.792  11.430   0.468  0.00  0.00     0.206 C 
ATOM      9  C3  BDP d1197       5.273  10.747  -3.215  0.00  0.00     0.092 C 
ATOM     10  O6B BDP d1197       6.129  10.290   0.857  0.00  0.00    -0.646 OA
ATOM     11  O3  BDP d1197       4.572   9.639  -3.796  0.00  0.00    -0.390 OA
ATOM     12  C4  BDP d1197       4.961  10.799  -1.720  0.00  0.00     0.103 C 
ATOM     13  H   BDP d1197       5.678  12.734  -1.272  0.00  0.00     0.104 H 
ATOM     14  H   BDP d1197       7.568  12.508  -3.088  0.00  0.00     0.133 H 
ATOM     15  H   BDP d1197       7.010   9.572  -3.182  0.00  0.00     0.094 H 
ATOM     16  H   BDP d1197       6.776  11.635  -5.169  0.00  0.00     0.210 HD
ATOM     17  H   BDP d1197       4.967  11.683  -3.634  0.00  0.00     0.091 H 
ATOM     18  H   BDP d1197       4.879   8.813  -3.389  0.00  0.00     0.210 HD
ATOM     19  H   BDP d1197       5.071   9.811  -1.325  0.00  0.00     0.092 H 
ATOM     20  O1  ASG d1198       3.610  11.259  -1.510  0.00  0.00    -0.348 OA
ATOM     21  O7  ASG d1198       1.392  14.407   1.338  0.00  0.00    -0.274 OA
ATOM     22  OSB ASG d1198      -2.647   9.540  -1.951  0.00  0.00    -0.572 OA
ATOM     23  C3  ASG d1198       0.298  10.473   0.198  0.00  0.00     0.094 C 
ATOM     24  C2  ASG d1198       1.404  11.316  -0.457  0.00  0.00     0.087 C 
ATOM     25  S   ASG d1198      -1.494   8.746  -2.428  0.00  0.00     0.252 S 
ATOM     26  N   ASG d1198       1.674  12.350   0.537  0.00  0.00    -0.349 N 
ATOM     27  OSA ASG d1198      -1.667   7.338  -2.005  0.00  0.00    -0.572 OA
ATOM     28  C4  ASG d1198       0.192   9.111  -0.474  0.00  0.00     0.114 C 
ATOM     29  C5  ASG d1198       1.567   8.451  -0.454  0.00  0.00     0.090 C 
ATOM     30  O4  ASG d1198      -0.198   9.329  -1.834  0.00  0.00    -0.246 OA
ATOM     31  C8  ASG d1198       0.249  13.904  -0.680  0.00  0.00    -0.003 C 
ATOM     32  C7  ASG d1198       1.144  13.577   0.481  0.00  0.00     0.214 C 
ATOM     33  C1  ASG d1198       2.724  10.536  -0.638  0.00  0.00     0.154 C 
ATOM     34  OSC ASG d1198      -1.425   8.816  -3.906  0.00  0.00    -0.572 OA
ATOM     35  O6  ASG d1198       0.285   6.439  -0.627  0.00  0.00    -0.398 OA
ATOM     36  C6  ASG d1198       1.530   7.029  -1.000  0.00  0.00     0.043 C 
ATOM     37  O5  ASG d1198       2.482   9.249  -1.213  0.00  0.00    -0.349 OA
ATOM     38  H   ASG d1198       0.578  10.343   1.223  0.00  0.00     0.091 H 
ATOM     39  H   ASG d1198       1.092  11.652  -1.423  0.00  0.00     0.084 H 
ATOM     40  H   ASG d1198       2.275  12.135   1.286  0.00  0.00     0.163 HD
ATOM     41  H   ASG d1198      -0.518   8.487   0.029  0.00  0.00     0.093 H 
ATOM     42  H   ASG d1198       1.892   8.388   0.563  0.00  0.00     0.090 H 
ATOM     43  H   ASG d1198      -0.096  14.912  -0.590  0.00  0.00     0.040 H 
ATOM     44  H   ASG d1198      -0.589  13.238  -0.683  0.00  0.00     0.040 H 
ATOM     45  H   ASG d1198       0.795  13.794  -1.593  0.00  0.00     0.040 H 
ATOM     46  H   ASG d1198       3.167  10.419   0.329  0.00  0.00     0.132 H 
ATOM     47  H   ASG d1198       0.243   5.531  -0.965  0.00  0.00     0.209 HD
ATOM     48  H   ASG d1198       2.337   6.461  -0.587  0.00  0.00     0.078 H 
ATOM     49  H   ASG d1198       1.628   7.040  -2.066  0.00  0.00     0.078 H 
ATOM     50  S   ASG d1196      10.873   8.411  -0.951  0.00  0.00     0.252 S 
ATOM     51  OSB ASG d1196      11.003   7.518  -2.125  0.00  0.00    -0.572 OA
ATOM     52  C7  ASG d1196      11.411  12.380  -5.404  0.00  0.00     0.214 C 
ATOM     53  C6  ASG d1196      11.912  11.154   1.142  0.00  0.00     0.043 C 
ATOM     54  C8  ASG d1196      12.000  11.011  -5.564  0.00  0.00    -0.003 C 
ATOM     55  O6  ASG d1196      13.177  11.677   1.562  0.00  0.00    -0.398 OA
ATOM     56  C1  ASG d1196      12.430  12.652  -2.197  0.00  0.00     0.151 C 
ATOM     57  O4  ASG d1196      11.147   9.849  -1.422  0.00  0.00    -0.246 OA
ATOM     58  C4  ASG d1196      10.464  11.015  -0.941  0.00  0.00     0.114 C 
ATOM     59  C3  ASG d1196      10.092  11.772  -2.211  0.00  0.00     0.094 C 
ATOM     60  C5  ASG d1196      11.535  11.798  -0.185  0.00  0.00     0.090 C 
ATOM     61  OSA ASG d1196       9.507   8.289  -0.391  0.00  0.00    -0.572 OA
ATOM     62  OSC ASG d1196      11.894   8.025   0.054  0.00  0.00    -0.572 OA
ATOM     63  C2  ASG d1196      11.383  11.898  -3.020  0.00  0.00     0.087 C 
ATOM     64  O5  ASG d1196      12.702  11.923  -1.002  0.00  0.00    -0.349 OA
ATOM     65  O1  ASG d1196      13.649  12.753  -2.941  0.00  0.00    -0.369 OA
ATOM     66  N   ASG d1196      11.120  12.766  -4.161  0.00  0.00    -0.349 N 
ATOM     67  O7  ASG d1196      11.203  13.099  -6.368  0.00  0.00    -0.274 OA
ATOM     68  H   ASG d1196      11.983  10.093   1.021  0.00  0.00     0.078 H 
ATOM     69  H   ASG d1196      11.165  11.371   1.877  0.00  0.00     0.078 H 
ATOM     70  H   ASG d1196      12.100  10.552  -4.603  0.00  0.00     0.040 H 
ATOM     71  H   ASG d1196      12.963  11.088  -6.024  0.00  0.00     0.040 H 
ATOM     72  H   ASG d1196      11.358  10.416  -6.180  0.00  0.00     0.040 H 
ATOM     73  H   ASG d1196      13.849  11.476   0.891  0.00  0.00     0.209 HD
ATOM     74  H   ASG d1196      12.057  13.628  -1.967  0.00  0.00     0.132 H 
ATOM     75  H   ASG d1196       9.608  10.836  -0.324  0.00  0.00     0.093 H 
ATOM     76  H   ASG d1196       9.706  12.753  -2.026  0.00  0.00     0.091 H 
ATOM     77  H   ASG d1196      11.124  12.761   0.036  0.00  0.00     0.090 H 
ATOM     78  H   ASG d1196      11.716  10.919  -3.296  0.00  0.00     0.084 H 
ATOM     79  H   ASG d1196      13.979  11.864  -3.144  0.00  0.00     0.212 HD
ATOM     80  H   ASG d1196      10.719  13.652  -4.012  0.00  0.00     0.163 HD
ATOM     81  O3  BDP d1199      -5.133  12.423   2.403  0.00  0.00    -0.393 OA
ATOM     82  O1  BDP d1199      -0.980  11.131   0.184  0.00  0.00    -0.348 OA
ATOM     83  O6A BDP d1199      -1.871   7.693   4.076  0.00  0.00    -0.646 OA
ATOM     84  C4  BDP d1199      -3.984  10.387   2.976  0.00  0.00    -0.005 C 
ATOM     85  O5  BDP d1199      -1.790   9.921   1.976  0.00  0.00    -0.343 OA
ATOM     86  C1  BDP d1199      -1.655  11.247   1.446  0.00  0.00     0.159 C 
ATOM     87  C5  BDP d1199      -2.612   9.741   3.136  0.00  0.00     0.127 C 
ATOM     88  C2  BDP d1199      -3.004  11.958   1.310  0.00  0.00     0.107 C 
ATOM     89  C3  BDP d1199      -3.833  11.849   2.587  0.00  0.00     0.068 C 
ATOM     90  C6  BDP d1199      -2.752   8.268   3.398  0.00  0.00     0.203 C 
ATOM     91  O2  BDP d1199      -2.778  13.340   1.018  0.00  0.00    -0.388 OA
ATOM     92  O6B BDP d1199      -3.733   7.660   2.917  0.00  0.00    -0.646 OA
ATOM     93  H   BDP d1199      -5.642  12.343   3.224  0.00  0.00     0.210 HD
ATOM     94  H   BDP d1199      -4.531   9.873   2.213  0.00  0.00     0.041 H 
ATOM     95  H   BDP d1199      -4.510  10.325   3.906  0.00  0.00     0.041 H 
ATOM     96  H   BDP d1199      -1.085  11.854   2.118  0.00  0.00     0.133 H 
ATOM     97  H   BDP d1199      -2.141  10.225   3.965  0.00  0.00     0.100 H 
ATOM     98  H   BDP d1199      -3.548  11.486   0.519  0.00  0.00     0.094 H 
ATOM     99  H   BDP d1199      -3.327  12.385   3.363  0.00  0.00     0.087 H 
ATOM    100  H   BDP d1199      -2.285  13.748   1.747  0.00  0.00     0.210 HD
ENDROOT
TORSDOF 25
ENDMDL
MODEL 64
REMARK VINA RESULT:      -3.6      2.790     12.398
REMARK  0 active torsions:
REMARK  status: ('A' for Active; 'I' for Inactive)
REMARK       I    between atoms: C5_1  and  C6_46 
REMARK       I    between atoms: O1_2  and  C4_60 
REMARK       I    between atoms: O1_2  and  C1_47 
REMARK       I    between atoms: S_3  and  O4_24 
REMARK       I    between atoms: C7_6  and  C8_11 
REMARK       I    between atoms: C7_6  and  N_48 
REMARK       I    between atoms: O3_7  and  C3_41 
REMARK       I    between atoms: O1_9  and  C3_31 
REMARK       I    between atoms: O1_9  and  C1_19 
REMARK       I    between atoms: C6_10  and  C5_34 
REMARK       I    between atoms: C6_10  and  O6_12 
REMARK       I    between atoms: C3_13  and  O1_16 
REMARK       I    between atoms: C2_14  and  N_20 
REMARK       I    between atoms: C1_15  and  O1_45 
REMARK       I    between atoms: O1_16  and  C1_29 
REMARK       I    between atoms: S_17  and  O4_30 
REMARK       I    between atoms: N_20  and  C7_40 
REMARK       I    between atoms: C4_22  and  O4_30 
REMARK       I    between atoms: O4_24  and  C4_28 
REMARK       I    between atoms: C5_25  and  C6_55 
REMARK       I    between atoms: C2_32  and  O2_39 
REMARK       I    between atoms: C5_33  and  C6_51 
REMARK       I    between atoms: C2_36  and  O2_56 
REMARK       I    between atoms: C8_37  and  C7_40 
REMARK       I    between atoms: C2_43  and  N_48 
REMARK       I    between atoms: C3_50  and  O3_53 
REMARK       I    between atoms: O6_54  and  C6_55 
ROOT
ATOM      1  C5  BDP d1197       1.489  11.717  -4.121  0.00  0.00     0.152 C 
ATOM      2  O1  BDP d1197      -1.995  12.937  -3.846  0.00  0.00    -0.348 OA
ATOM      3  C1  BDP d1197      -0.561  13.069  -3.905  0.00  0.00     0.160 C 
ATOM      4  O5  BDP d1197       0.059  11.820  -4.235  0.00  0.00    -0.340 OA
ATOM      5  C2  BDP d1197      -0.071  13.579  -2.549  0.00  0.00     0.110 C 
ATOM      6  O6A BDP d1197       2.617   9.894  -5.142  0.00  0.00    -0.646 OA
ATOM      7  O2  BDP d1197      -0.533  14.922  -2.353  0.00  0.00    -0.388 OA
ATOM      8  C6  BDP d1197       1.830  10.263  -4.241  0.00  0.00     0.206 C 
ATOM      9  C3  BDP d1197       1.449  13.530  -2.375  0.00  0.00     0.092 C 
ATOM     10  O6B BDP d1197       1.316   9.477  -3.415  0.00  0.00    -0.646 OA
ATOM     11  O3  BDP d1197       1.742  13.771  -0.993  0.00  0.00    -0.390 OA
ATOM     12  C4  BDP d1197       2.048  12.183  -2.778  0.00  0.00     0.103 C 
ATOM     13  H   BDP d1197       1.909  12.343  -4.879  0.00  0.00     0.104 H 
ATOM     14  H   BDP d1197      -0.295  13.764  -4.674  0.00  0.00     0.133 H 
ATOM     15  H   BDP d1197      -0.476  12.916  -1.812  0.00  0.00     0.094 H 
ATOM     16  H   BDP d1197      -0.150  15.498  -3.033  0.00  0.00     0.210 HD
ATOM     17  H   BDP d1197       1.881  14.271  -3.015  0.00  0.00     0.091 H 
ATOM     18  H   BDP d1197       1.334  13.079  -0.449  0.00  0.00     0.210 HD
ATOM     19  H   BDP d1197       1.787  11.467  -2.027  0.00  0.00     0.092 H 
ATOM     20  O1  ASG d1198       3.485  12.286  -2.872  0.00  0.00    -0.348 OA
ATOM     21  O7  ASG d1198       6.892  10.925  -5.951  0.00  0.00    -0.274 OA
ATOM     22  OSB ASG d1198       8.951  12.780   0.617  0.00  0.00    -0.572 OA
ATOM     23  C3  ASG d1198       6.783  10.775  -1.717  0.00  0.00     0.094 C 
ATOM     24  C2  ASG d1198       5.802  11.555  -2.606  0.00  0.00     0.087 C 
ATOM     25  S   ASG d1198       7.573  12.835   1.151  0.00  0.00     0.252 S 
ATOM     26  N   ASG d1198       5.982  10.948  -3.921  0.00  0.00    -0.349 N 
ATOM     27  OSA ASG d1198       7.487  11.981   2.357  0.00  0.00    -0.572 OA
ATOM     28  C4  ASG d1198       6.432  10.953  -0.245  0.00  0.00     0.114 C 
ATOM     29  C5  ASG d1198       4.971  10.565  -0.044  0.00  0.00     0.090 C 
ATOM     30  O4  ASG d1198       6.592  12.339   0.072  0.00  0.00    -0.246 OA
ATOM     31  C8  ASG d1198       7.470  12.762  -4.566  0.00  0.00    -0.003 C 
ATOM     32  C7  ASG d1198       6.765  11.471  -4.869  0.00  0.00     0.214 C 
ATOM     33  C1  ASG d1198       4.326  11.320  -2.220  0.00  0.00     0.154 C 
ATOM     34  OSC ASG d1198       7.238  14.233   1.507  0.00  0.00    -0.572 OA
ATOM     35  O6  ASG d1198       5.683  10.180   2.207  0.00  0.00    -0.398 OA
ATOM     36  C6  ASG d1198       4.565  10.597   1.424  0.00  0.00     0.043 C 
ATOM     37  O5  ASG d1198       4.141  11.447  -0.806  0.00  0.00    -0.349 OA
ATOM     38  H   ASG d1198       6.685   9.743  -1.983  0.00  0.00     0.091 H 
ATOM     39  H   ASG d1198       5.991  12.605  -2.535  0.00  0.00     0.084 H 
ATOM     40  H   ASG d1198       5.504  10.111  -4.119  0.00  0.00     0.163 HD
ATOM     41  H   ASG d1198       7.058  10.346   0.377  0.00  0.00     0.093 H 
ATOM     42  H   ASG d1198       4.844   9.557  -0.382  0.00  0.00     0.090 H 
ATOM     43  H   ASG d1198       8.054  13.057  -5.412  0.00  0.00     0.040 H 
ATOM     44  H   ASG d1198       8.110  12.629  -3.719  0.00  0.00     0.040 H 
ATOM     45  H   ASG d1198       6.747  13.521  -4.350  0.00  0.00     0.040 H 
ATOM     46  H   ASG d1198       4.064  10.329  -2.527  0.00  0.00     0.132 H 
ATOM     47  H   ASG d1198       5.443  10.194   3.147  0.00  0.00     0.209 HD
ATOM     48  H   ASG d1198       3.742   9.933   1.587  0.00  0.00     0.078 H 
ATOM     49  H   ASG d1198       4.268  11.587   1.703  0.00  0.00     0.078 H 
ATOM     50  S   ASG d1196      -3.996  10.027  -2.525  0.00  0.00     0.252 S 
ATOM     51  OSB ASG d1196      -4.558  10.809  -1.400  0.00  0.00    -0.572 OA
ATOM     52  C7  ASG d1196      -4.433  15.478  -4.970  0.00  0.00     0.214 C 
ATOM     53  C6  ASG d1196      -3.932   8.889  -5.944  0.00  0.00     0.043 C 
ATOM     54  C8  ASG d1196      -5.349  15.101  -3.844  0.00  0.00    -0.003 C 
ATOM     55  O6  ASG d1196      -4.932   8.539  -6.907  0.00  0.00    -0.398 OA
ATOM     56  C1  ASG d1196      -4.719  12.463  -6.463  0.00  0.00     0.151 C 
ATOM     57  O4  ASG d1196      -4.008  10.925  -3.773  0.00  0.00    -0.246 OA
ATOM     58  C4  ASG d1196      -2.990  10.944  -4.783  0.00  0.00     0.114 C 
ATOM     59  C3  ASG d1196      -2.703  12.426  -4.987  0.00  0.00     0.094 C 
ATOM     60  C5  ASG d1196      -3.678  10.388  -6.027  0.00  0.00     0.090 C 
ATOM     61  OSA ASG d1196      -2.616   9.607  -2.189  0.00  0.00    -0.572 OA
ATOM     62  OSC ASG d1196      -4.864   8.848  -2.765  0.00  0.00    -0.572 OA
ATOM     63  C2  ASG d1196      -4.059  13.088  -5.231  0.00  0.00     0.087 C 
ATOM     64  O5  ASG d1196      -4.918  11.071  -6.232  0.00  0.00    -0.349 OA
ATOM     65  O1  ASG d1196      -5.999  13.064  -6.683  0.00  0.00    -0.369 OA
ATOM     66  N   ASG d1196      -3.824  14.477  -5.607  0.00  0.00    -0.349 N 
ATOM     67  O7  ASG d1196      -4.253  16.644  -5.278  0.00  0.00    -0.274 OA
ATOM     68  H   ASG d1196      -4.274   8.636  -4.962  0.00  0.00     0.078 H 
ATOM     69  H   ASG d1196      -3.027   8.355  -6.146  0.00  0.00     0.078 H 
ATOM     70  H   ASG d1196      -5.366  14.036  -3.740  0.00  0.00     0.040 H 
ATOM     71  H   ASG d1196      -6.336  15.455  -4.053  0.00  0.00     0.040 H 
ATOM     72  H   ASG d1196      -4.998  15.543  -2.935  0.00  0.00     0.040 H 
ATOM     73  H   ASG d1196      -5.748   9.027  -6.717  0.00  0.00     0.209 HD
ATOM     74  H   ASG d1196      -4.088  12.618  -7.313  0.00  0.00     0.132 H 
ATOM     75  H   ASG d1196      -2.098  10.397  -4.557  0.00  0.00     0.093 H 
ATOM     76  H   ASG d1196      -2.067  12.627  -5.825  0.00  0.00     0.091 H 
ATOM     77  H   ASG d1196      -3.016  10.551  -6.852  0.00  0.00     0.090 H 
ATOM     78  H   ASG d1196      -4.660  12.979  -4.353  0.00  0.00     0.084 H 
ATOM     79  H   ASG d1196      -6.563  12.917  -5.907  0.00  0.00     0.212 HD
ATOM     80  H   ASG d1196      -3.204  14.681  -6.344  0.00  0.00     0.163 HD
ATOM     81  O3  BDP d1199      12.843   9.951  -2.593  0.00  0.00    -0.393 OA
ATOM     82  O1  BDP d1199       8.153  11.146  -1.945  0.00  0.00    -0.348 OA
ATOM     83  O6A BDP d1199       8.944   6.438   0.284  0.00  0.00    -0.646 OA
ATOM     84  C4  BDP d1199      11.379   8.603  -1.238  0.00  0.00    -0.005 C 
ATOM     85  O5  BDP d1199       8.986   9.147  -1.144  0.00  0.00    -0.343 OA
ATOM     86  C1  BDP d1199       9.067  10.078  -2.232  0.00  0.00     0.159 C 
ATOM     87  C5  BDP d1199       9.951   8.090  -1.090  0.00  0.00     0.127 C 
ATOM     88  C2  BDP d1199      10.494  10.589  -2.454  0.00  0.00     0.107 C 
ATOM     89  C3  BDP d1199      11.505   9.446  -2.497  0.00  0.00     0.068 C 
ATOM     90  C6  BDP d1199       9.787   7.360   0.214  0.00  0.00     0.203 C 
ATOM     91  O2  BDP d1199      10.549  11.306  -3.690  0.00  0.00    -0.388 OA
ATOM     92  O6B BDP d1199      10.484   7.708   1.192  0.00  0.00    -0.646 OA
ATOM     93  H   BDP d1199      13.467   9.210  -2.619  0.00  0.00     0.210 HD
ATOM     94  H   BDP d1199      11.630   9.201  -0.386  0.00  0.00     0.041 H 
ATOM     95  H   BDP d1199      12.045   7.769  -1.307  0.00  0.00     0.041 H 
ATOM     96  H   BDP d1199       8.798   9.594  -3.149  0.00  0.00     0.133 H 
ATOM     97  H   BDP d1199       9.777   7.428  -1.912  0.00  0.00     0.100 H 
ATOM     98  H   BDP d1199      10.747  11.226  -1.633  0.00  0.00     0.094 H 
ATOM     99  H   BDP d1199      11.299   8.848  -3.361  0.00  0.00     0.087 H 
ATOM    100  H   BDP d1199      10.316  10.710  -4.419  0.00  0.00     0.210 HD
ENDROOT
TORSDOF 25
ENDMDL
MODEL 65
REMARK VINA RESULT:      -3.6      4.257     13.068
REMARK  0 active torsions:
REMARK  status: ('A' for Active; 'I' for Inactive)
REMARK       I    between atoms: C5_1  and  C6_46 
REMARK       I    between atoms: O1_2  and  C4_60 
REMARK       I    between atoms: O1_2  and  C1_47 
REMARK       I    between atoms: S_3  and  O4_24 
REMARK       I    between atoms: C7_6  and  C8_11 
REMARK       I    between atoms: C7_6  and  N_48 
REMARK       I    between atoms: O3_7  and  C3_41 
REMARK       I    between atoms: O1_9  and  C3_31 
REMARK       I    between atoms: O1_9  and  C1_19 
REMARK       I    between atoms: C6_10  and  C5_34 
REMARK       I    between atoms: C6_10  and  O6_12 
REMARK       I    between atoms: C3_13  and  O1_16 
REMARK       I    between atoms: C2_14  and  N_20 
REMARK       I    between atoms: C1_15  and  O1_45 
REMARK       I    between atoms: O1_16  and  C1_29 
REMARK       I    between atoms: S_17  and  O4_30 
REMARK       I    between atoms: N_20  and  C7_40 
REMARK       I    between atoms: C4_22  and  O4_30 
REMARK       I    between atoms: O4_24  and  C4_28 
REMARK       I    between atoms: C5_25  and  C6_55 
REMARK       I    between atoms: C2_32  and  O2_39 
REMARK       I    between atoms: C5_33  and  C6_51 
REMARK       I    between atoms: C2_36  and  O2_56 
REMARK       I    between atoms: C8_37  and  C7_40 
REMARK       I    between atoms: C2_43  and  N_48 
REMARK       I    between atoms: C3_50  and  O3_53 
REMARK       I    between atoms: O6_54  and  C6_55 
ROOT
ATOM      1  C5  BDP d1197       7.093  12.070  -0.328  0.00  0.00     0.152 C 
ATOM      2  O1  BDP d1197       4.443   9.677  -1.304  0.00  0.00    -0.348 OA
ATOM      3  C1  BDP d1197       5.425  10.258  -0.424  0.00  0.00     0.160 C 
ATOM      4  O5  BDP d1197       5.951  11.476  -0.966  0.00  0.00    -0.340 OA
ATOM      5  C2  BDP d1197       6.540   9.233  -0.207  0.00  0.00     0.110 C 
ATOM      6  O6A BDP d1197       7.676  14.317  -0.827  0.00  0.00    -0.646 OA
ATOM      7  O2  BDP d1197       6.023   8.122   0.538  0.00  0.00    -0.388 OA
ATOM      8  C6  BDP d1197       7.596  13.142  -1.248  0.00  0.00     0.206 C 
ATOM      9  C3  BDP d1197       7.775   9.794   0.503  0.00  0.00     0.092 C 
ATOM     10  O6B BDP d1197       7.928  12.802  -2.404  0.00  0.00    -0.646 OA
ATOM     11  O3  BDP d1197       8.823   8.822   0.397  0.00  0.00    -0.390 OA
ATOM     12  C4  BDP d1197       8.260  11.110  -0.104  0.00  0.00     0.103 C 
ATOM     13  H   BDP d1197       6.771  12.415   0.633  0.00  0.00     0.104 H 
ATOM     14  H   BDP d1197       4.968  10.504   0.512  0.00  0.00     0.133 H 
ATOM     15  H   BDP d1197       6.867   8.931  -1.180  0.00  0.00     0.094 H 
ATOM     16  H   BDP d1197       5.735   8.425   1.413  0.00  0.00     0.210 HD
ATOM     17  H   BDP d1197       7.511   9.994   1.521  0.00  0.00     0.091 H 
ATOM     18  H   BDP d1197       9.031   8.670  -0.538  0.00  0.00     0.210 HD
ATOM     19  H   BDP d1197       8.714  10.891  -1.048  0.00  0.00     0.092 H 
ATOM     20  O1  ASG d1198       9.227  11.733   0.767  0.00  0.00    -0.348 OA
ATOM     21  O7  ASG d1198      10.050  16.119   2.506  0.00  0.00    -0.274 OA
ATOM     22  OSB ASG d1198      15.358  11.376   2.909  0.00  0.00    -0.572 OA
ATOM     23  C3  ASG d1198      12.727  13.223   0.951  0.00  0.00     0.094 C 
ATOM     24  C2  ASG d1198      11.260  12.967   1.333  0.00  0.00     0.087 C 
ATOM     25  S   ASG d1198      14.680  10.382   2.049  0.00  0.00     0.252 S 
ATOM     26  N   ASG d1198      10.685  14.307   1.381  0.00  0.00    -0.349 N 
ATOM     27  OSA ASG d1198      15.586  10.003   0.941  0.00  0.00    -0.572 OA
ATOM     28  C4  ASG d1198      13.375  11.949   0.426  0.00  0.00     0.114 C 
ATOM     29  C5  ASG d1198      12.522  11.406  -0.717  0.00  0.00     0.090 C 
ATOM     30  O4  ASG d1198      13.381  10.995   1.493  0.00  0.00    -0.246 OA
ATOM     31  C8  ASG d1198      10.947  14.344   3.800  0.00  0.00    -0.003 C 
ATOM     32  C7  ASG d1198      10.529  14.998   2.515  0.00  0.00     0.214 C 
ATOM     33  C1  ASG d1198      10.482  12.201   0.242  0.00  0.00     0.154 C 
ATOM     34  OSC ASG d1198      14.346   9.182   2.851  0.00  0.00    -0.572 OA
ATOM     35  O6  ASG d1198      14.578  10.373  -1.375  0.00  0.00    -0.398 OA
ATOM     36  C6  ASG d1198      13.162  10.194  -1.385  0.00  0.00     0.043 C 
ATOM     37  O5  ASG d1198      11.226  11.068  -0.216  0.00  0.00    -0.349 OA
ATOM     38  H   ASG d1198      12.718  13.962   0.178  0.00  0.00     0.091 H 
ATOM     39  H   ASG d1198      11.206  12.392   2.233  0.00  0.00     0.084 H 
ATOM     40  H   ASG d1198      10.397  14.723   0.537  0.00  0.00     0.163 HD
ATOM     41  H   ASG d1198      14.370  12.138   0.079  0.00  0.00     0.093 H 
ATOM     42  H   ASG d1198      12.441  12.168  -1.463  0.00  0.00     0.090 H 
ATOM     43  H   ASG d1198      10.765  15.011   4.616  0.00  0.00     0.040 H 
ATOM     44  H   ASG d1198      11.990  14.109   3.758  0.00  0.00     0.040 H 
ATOM     45  H   ASG d1198      10.385  13.445   3.943  0.00  0.00     0.040 H 
ATOM     46  H   ASG d1198      10.317  12.874  -0.572  0.00  0.00     0.132 H 
ATOM     47  H   ASG d1198      15.003   9.611  -1.797  0.00  0.00     0.209 HD
ATOM     48  H   ASG d1198      12.815  10.113  -2.394  0.00  0.00     0.078 H 
ATOM     49  H   ASG d1198      12.899   9.301  -0.857  0.00  0.00     0.078 H 
ATOM     50  S   ASG d1196       4.488   9.585  -5.073  0.00  0.00     0.252 S 
ATOM     51  OSB ASG d1196       4.623   8.111  -5.125  0.00  0.00    -0.572 OA
ATOM     52  C7  ASG d1196       1.361   7.939  -0.237  0.00  0.00     0.214 C 
ATOM     53  C6  ASG d1196       2.596  12.641  -4.817  0.00  0.00     0.043 C 
ATOM     54  C8  ASG d1196       1.500   6.983  -1.384  0.00  0.00    -0.003 C 
ATOM     55  O6  ASG d1196       1.325  13.082  -5.307  0.00  0.00    -0.398 OA
ATOM     56  C1  ASG d1196       0.876  10.596  -2.264  0.00  0.00     0.151 C 
ATOM     57  O4  ASG d1196       3.474   9.925  -3.970  0.00  0.00    -0.246 OA
ATOM     58  C4  ASG d1196       3.566  11.052  -3.087  0.00  0.00     0.114 C 
ATOM     59  C3  ASG d1196       3.308  10.460  -1.707  0.00  0.00     0.094 C 
ATOM     60  C5  ASG d1196       2.388  11.941  -3.481  0.00  0.00     0.090 C 
ATOM     61  OSA ASG d1196       5.809  10.187  -4.782  0.00  0.00    -0.572 OA
ATOM     62  OSC ASG d1196       3.966  10.060  -6.378  0.00  0.00    -0.572 OA
ATOM     63  C2  ASG d1196       2.008   9.664  -1.827  0.00  0.00     0.087 C 
ATOM     64  O5  ASG d1196       1.195  11.156  -3.536  0.00  0.00    -0.349 OA
ATOM     65  O1  ASG d1196      -0.338   9.850  -2.399  0.00  0.00    -0.369 OA
ATOM     66  N   ASG d1196       1.624   9.221  -0.491  0.00  0.00    -0.349 N 
ATOM     67  O7  ASG d1196       1.030   7.555   0.873  0.00  0.00    -0.274 OA
ATOM     68  H   ASG d1196       3.035  11.960  -5.517  0.00  0.00     0.078 H 
ATOM     69  H   ASG d1196       3.249  13.479  -4.691  0.00  0.00     0.078 H 
ATOM     70  H   ASG d1196       1.796   7.519  -2.261  0.00  0.00     0.040 H 
ATOM     71  H   ASG d1196       0.563   6.499  -1.561  0.00  0.00     0.040 H 
ATOM     72  H   ASG d1196       2.241   6.248  -1.148  0.00  0.00     0.040 H 
ATOM     73  H   ASG d1196       0.739  12.317  -5.418  0.00  0.00     0.209 HD
ATOM     74  H   ASG d1196       0.756  11.366  -1.532  0.00  0.00     0.132 H 
ATOM     75  H   ASG d1196       4.487  11.596  -3.117  0.00  0.00     0.093 H 
ATOM     76  H   ASG d1196       3.189  11.198  -0.941  0.00  0.00     0.091 H 
ATOM     77  H   ASG d1196       2.306  12.703  -2.735  0.00  0.00     0.090 H 
ATOM     78  H   ASG d1196       2.158   8.859  -2.516  0.00  0.00     0.084 H 
ATOM     79  H   ASG d1196      -0.219   9.155  -3.065  0.00  0.00     0.212 HD
ATOM     80  H   ASG d1196       1.558   9.881   0.236  0.00  0.00     0.163 HD
ATOM     81  O3  BDP d1199      16.785  16.910   3.797  0.00  0.00    -0.393 OA
ATOM     82  O1  BDP d1199      13.498  13.755   2.041  0.00  0.00    -0.348 OA
ATOM     83  O6A BDP d1199      16.577  15.273  -1.956  0.00  0.00    -0.646 OA
ATOM     84  C4  BDP d1199      16.890  16.121   1.525  0.00  0.00    -0.005 C 
ATOM     85  O5  BDP d1199      15.075  14.714   0.655  0.00  0.00    -0.343 OA
ATOM     86  C1  BDP d1199      14.224  14.965   1.781  0.00  0.00     0.159 C 
ATOM     87  C5  BDP d1199      16.056  15.702   0.319  0.00  0.00     0.127 C 
ATOM     88  C2  BDP d1199      15.010  15.436   3.009  0.00  0.00     0.107 C 
ATOM     89  C3  BDP d1199      15.982  16.561   2.662  0.00  0.00     0.068 C 
ATOM     90  C6  BDP d1199      16.940  15.150  -0.764  0.00  0.00     0.203 C 
ATOM     91  O2  BDP d1199      14.093  15.902   4.002  0.00  0.00    -0.388 OA
ATOM     92  O6B BDP d1199      18.000  14.570  -0.441  0.00  0.00    -0.646 OA
ATOM     93  H   BDP d1199      17.393  17.625   3.555  0.00  0.00     0.210 HD
ATOM     94  H   BDP d1199      17.486  15.293   1.849  0.00  0.00     0.041 H 
ATOM     95  H   BDP d1199      17.522  16.938   1.246  0.00  0.00     0.041 H 
ATOM     96  H   BDP d1199      13.549  15.765   1.559  0.00  0.00     0.133 H 
ATOM     97  H   BDP d1199      15.551  16.581  -0.024  0.00  0.00     0.100 H 
ATOM     98  H   BDP d1199      15.579  14.606   3.375  0.00  0.00     0.094 H 
ATOM     99  H   BDP d1199      15.412  17.417   2.367  0.00  0.00     0.087 H 
ATOM    100  H   BDP d1199      13.590  16.652   3.651  0.00  0.00     0.210 HD
ENDROOT
TORSDOF 25
ENDMDL
MODEL 66
REMARK VINA RESULT:      -3.0      2.987      4.965
REMARK  0 active torsions:
REMARK  status: ('A' for Active; 'I' for Inactive)
REMARK       I    between atoms: C5_1  and  C6_46 
REMARK       I    between atoms: O1_2  and  C4_60 
REMARK       I    between atoms: O1_2  and  C1_47 
REMARK       I    between atoms: S_3  and  O4_24 
REMARK       I    between atoms: C7_6  and  C8_11 
REMARK       I    between atoms: C7_6  and  N_48 
REMARK       I    between atoms: O3_7  and  C3_41 
REMARK       I    between atoms: O1_9  and  C3_31 
REMARK       I    between atoms: O1_9  and  C1_19 
REMARK       I    between atoms: C6_10  and  C5_34 
REMARK       I    between atoms: C6_10  and  O6_12 
REMARK       I    between atoms: C3_13  and  O1_16 
REMARK       I    between atoms: C2_14  and  N_20 
REMARK       I    between atoms: C1_15  and  O1_45 
REMARK       I    between atoms: O1_16  and  C1_29 
REMARK       I    between atoms: S_17  and  O4_30 
REMARK       I    between atoms: N_20  and  C7_40 
REMARK       I    between atoms: C4_22  and  O4_30 
REMARK       I    between atoms: O4_24  and  C4_28 
REMARK       I    between atoms: C5_25  and  C6_55 
REMARK       I    between atoms: C2_32  and  O2_39 
REMARK       I    between atoms: C5_33  and  C6_51 
REMARK       I    between atoms: C2_36  and  O2_56 
REMARK       I    between atoms: C8_37  and  C7_40 
REMARK       I    between atoms: C2_43  and  N_48 
REMARK       I    between atoms: C3_50  and  O3_53 
REMARK       I    between atoms: O6_54  and  C6_55 
ROOT
ATOM      1  C5  BDP d1197       7.815   9.548   1.516  0.00  0.00     0.152 C 
ATOM      2  O1  BDP d1197      11.099  11.257   1.497  0.00  0.00    -0.348 OA
ATOM      3  C1  BDP d1197       9.703  11.104   1.821  0.00  0.00     0.160 C 
ATOM      4  O5  BDP d1197       9.230   9.798   1.465  0.00  0.00    -0.340 OA
ATOM      5  C2  BDP d1197       8.917  12.187   1.081  0.00  0.00     0.110 C 
ATOM      6  O6A BDP d1197       7.019   7.312   1.465  0.00  0.00    -0.646 OA
ATOM      7  O2  BDP d1197       9.257  13.471   1.621  0.00  0.00    -0.388 OA
ATOM      8  C6  BDP d1197       7.582   8.234   0.834  0.00  0.00     0.206 C 
ATOM      9  C3  BDP d1197       7.399  11.999   1.126  0.00  0.00     0.092 C 
ATOM     10  O6B BDP d1197       7.956   8.123  -0.354  0.00  0.00    -0.646 OA
ATOM     11  O3  BDP d1197       6.814  12.909   0.184  0.00  0.00    -0.390 OA
ATOM     12  C4  BDP d1197       6.967  10.577   0.771  0.00  0.00     0.103 C 
ATOM     13  H   BDP d1197       7.528   9.579   2.545  0.00  0.00     0.104 H 
ATOM     14  H   BDP d1197       9.565  11.210   2.877  0.00  0.00     0.133 H 
ATOM     15  H   BDP d1197       9.196  12.112   0.050  0.00  0.00     0.094 H 
ATOM     16  H   BDP d1197       8.994  13.510   2.554  0.00  0.00     0.210 HD
ATOM     17  H   BDP d1197       7.070  12.188   2.127  0.00  0.00     0.091 H 
ATOM     18  H   BDP d1197       7.137  12.704  -0.707  0.00  0.00     0.210 HD
ATOM     19  H   BDP d1197       7.104  10.443  -0.282  0.00  0.00     0.092 H 
ATOM     20  O1  ASG d1198       5.577  10.380   1.108  0.00  0.00    -0.348 OA
ATOM     21  O7  ASG d1198       2.955   7.031   3.308  0.00  0.00    -0.274 OA
ATOM     22  OSB ASG d1198      -0.510  11.825  -0.671  0.00  0.00    -0.572 OA
ATOM     23  C3  ASG d1198       2.195   9.246  -0.225  0.00  0.00     0.094 C 
ATOM     24  C2  ASG d1198       3.297   9.556   0.802  0.00  0.00     0.087 C 
ATOM     25  S   ASG d1198       0.724  12.384  -1.266  0.00  0.00     0.252 S 
ATOM     26  N   ASG d1198       3.423   8.308   1.548  0.00  0.00    -0.349 N 
ATOM     27  OSA ASG d1198       0.604  12.357  -2.741  0.00  0.00    -0.572 OA
ATOM     28  C4  ASG d1198       2.225  10.255  -1.365  0.00  0.00     0.114 C 
ATOM     29  C5  ASG d1198       3.632  10.281  -1.954  0.00  0.00     0.090 C 
ATOM     30  O4  ASG d1198       1.932  11.542  -0.812  0.00  0.00    -0.246 OA
ATOM     31  C8  ASG d1198       2.008   9.206   3.311  0.00  0.00    -0.003 C 
ATOM     32  C7  ASG d1198       2.827   8.093   2.724  0.00  0.00     0.214 C 
ATOM     33  C1  ASG d1198       4.671   9.811   0.148  0.00  0.00     0.154 C 
ATOM     34  OSC ASG d1198       0.905  13.780  -0.807  0.00  0.00    -0.572 OA
ATOM     35  O6  ASG d1198       2.492  11.085  -3.897  0.00  0.00    -0.398 OA
ATOM     36  C6  ASG d1198       3.724  11.177  -3.183  0.00  0.00     0.043 C 
ATOM     37  O5  ASG d1198       4.553  10.720  -0.951  0.00  0.00    -0.349 OA
ATOM     38  H   ASG d1198       2.400   8.269  -0.609  0.00  0.00     0.091 H 
ATOM     39  H   ASG d1198       3.042  10.427   1.369  0.00  0.00     0.084 H 
ATOM     40  H   ASG d1198       3.976   7.589   1.165  0.00  0.00     0.163 HD
ATOM     41  H   ASG d1198       1.517   9.998  -2.126  0.00  0.00     0.093 H 
ATOM     42  H   ASG d1198       3.879   9.289  -2.271  0.00  0.00     0.090 H 
ATOM     43  H   ASG d1198       1.596   8.891   4.246  0.00  0.00     0.040 H 
ATOM     44  H   ASG d1198       1.215   9.459   2.639  0.00  0.00     0.040 H 
ATOM     45  H   ASG d1198       2.630  10.063   3.467  0.00  0.00     0.040 H 
ATOM     46  H   ASG d1198       5.043   8.871  -0.203  0.00  0.00     0.132 H 
ATOM     47  H   ASG d1198       2.532  11.650  -4.685  0.00  0.00     0.209 HD
ATOM     48  H   ASG d1198       4.530  10.852  -3.808  0.00  0.00     0.078 H 
ATOM     49  H   ASG d1198       3.905  12.190  -2.888  0.00  0.00     0.078 H 
ATOM     50  S   ASG d1196      12.934   9.912  -1.510  0.00  0.00     0.252 S 
ATOM     51  OSB ASG d1196      13.209  11.260  -2.056  0.00  0.00    -0.572 OA
ATOM     52  C7  ASG d1196      13.579  13.116   3.509  0.00  0.00     0.214 C 
ATOM     53  C6  ASG d1196      13.636   7.093   0.623  0.00  0.00     0.043 C 
ATOM     54  C8  ASG d1196      14.261  13.570   2.254  0.00  0.00    -0.003 C 
ATOM     55  O6  ASG d1196      14.830   6.438   1.064  0.00  0.00    -0.398 OA
ATOM     56  C1  ASG d1196      14.324   9.868   2.965  0.00  0.00     0.151 C 
ATOM     57  O4  ASG d1196      13.156   9.967   0.010  0.00  0.00    -0.246 OA
ATOM     58  C4  ASG d1196      12.368   9.266   0.982  0.00  0.00     0.114 C 
ATOM     59  C3  ASG d1196      12.052  10.325   2.032  0.00  0.00     0.094 C 
ATOM     60  C5  ASG d1196      13.326   8.237   1.579  0.00  0.00     0.090 C 
ATOM     61  OSA ASG d1196      11.538   9.531  -1.827  0.00  0.00    -0.572 OA
ATOM     62  OSC ASG d1196      13.893   8.951  -2.108  0.00  0.00    -0.572 OA
ATOM     63  C2  ASG d1196      13.393  10.951   2.415  0.00  0.00     0.087 C 
ATOM     64  O5  ASG d1196      14.544   8.884   1.958  0.00  0.00    -0.349 OA
ATOM     65  O1  ASG d1196      15.589  10.446   3.305  0.00  0.00    -0.369 OA
ATOM     66  N   ASG d1196      13.168  11.848   3.543  0.00  0.00    -0.349 N 
ATOM     67  O7  ASG d1196      13.405  13.876   4.448  0.00  0.00    -0.274 OA
ATOM     68  H   ASG d1196      13.780   7.478  -0.365  0.00  0.00     0.078 H 
ATOM     69  H   ASG d1196      12.822   6.399   0.610  0.00  0.00     0.078 H 
ATOM     70  H   ASG d1196      14.312  12.756   1.562  0.00  0.00     0.040 H 
ATOM     71  H   ASG d1196      15.251  13.904   2.486  0.00  0.00     0.040 H 
ATOM     72  H   ASG d1196      13.707  14.375   1.818  0.00  0.00     0.040 H 
ATOM     73  H   ASG d1196      15.563   7.073   1.073  0.00  0.00     0.209 HD
ATOM     74  H   ASG d1196      13.876   9.429   3.831  0.00  0.00     0.132 H 
ATOM     75  H   ASG d1196      11.479   8.798   0.614  0.00  0.00     0.093 H 
ATOM     76  H   ASG d1196      11.593   9.928   2.914  0.00  0.00     0.091 H 
ATOM     77  H   ASG d1196      12.841   7.813   2.433  0.00  0.00     0.090 H 
ATOM     78  H   ASG d1196      13.805  11.439   1.557  0.00  0.00     0.084 H 
ATOM     79  H   ASG d1196      15.987  10.841   2.513  0.00  0.00     0.212 HD
ATOM     80  H   ASG d1196      12.704  11.512   4.343  0.00  0.00     0.163 HD
ATOM     81  O3  BDP d1199      -3.501   7.122   0.869  0.00  0.00    -0.393 OA
ATOM     82  O1  BDP d1199       0.885   9.207   0.365  0.00  0.00    -0.348 OA
ATOM     83  O6A BDP d1199      -0.101   6.437  -4.008  0.00  0.00    -0.646 OA
ATOM     84  C4  BDP d1199      -2.280   6.992  -1.201  0.00  0.00    -0.005 C 
ATOM     85  O5  BDP d1199       0.010   7.872  -1.304  0.00  0.00    -0.343 OA
ATOM     86  C1  BDP d1199       0.107   8.026   0.118  0.00  0.00     0.159 C 
ATOM     87  C5  BDP d1199      -0.888   6.880  -1.814  0.00  0.00     0.127 C 
ATOM     88  C2  BDP d1199      -1.268   8.097   0.789  0.00  0.00     0.107 C 
ATOM     89  C3  BDP d1199      -2.187   6.973   0.316  0.00  0.00     0.068 C 
ATOM     90  C6  BDP d1199      -0.959   7.022  -3.309  0.00  0.00     0.203 C 
ATOM     91  O2  BDP d1199      -1.105   7.999   2.206  0.00  0.00    -0.388 OA
ATOM     92  O6B BDP d1199      -1.860   7.732  -3.805  0.00  0.00    -0.646 OA
ATOM     93  H   BDP d1199      -4.067   6.399   0.556  0.00  0.00     0.210 HD
ATOM     94  H   BDP d1199      -2.733   7.910  -1.517  0.00  0.00     0.041 H 
ATOM     95  H   BDP d1199      -2.872   6.163  -1.526  0.00  0.00     0.041 H 
ATOM     96  H   BDP d1199       0.584   7.170   0.548  0.00  0.00     0.133 H 
ATOM     97  H   BDP d1199      -0.514   5.913  -1.548  0.00  0.00     0.100 H 
ATOM     98  H   BDP d1199      -1.719   9.030   0.522  0.00  0.00     0.094 H 
ATOM     99  H   BDP d1199      -1.777   6.042   0.648  0.00  0.00     0.087 H 
ATOM    100  H   BDP d1199      -0.696   7.147   2.426  0.00  0.00     0.210 HD
ENDROOT
TORSDOF 25
ENDMDL
MODEL 67
REMARK VINA RESULT:       0.6      3.356      5.658
REMARK  0 active torsions:
REMARK  status: ('A' for Active; 'I' for Inactive)
REMARK       I    between atoms: C5_1  and  C6_46 
REMARK       I    between atoms: O1_2  and  C4_60 
REMARK       I    between atoms: O1_2  and  C1_47 
REMARK       I    between atoms: S_3  and  O4_24 
REMARK       I    between atoms: C7_6  and  C8_11 
REMARK       I    between atoms: C7_6  and  N_48 
REMARK       I    between atoms: O3_7  and  C3_41 
REMARK       I    between atoms: O1_9  and  C3_31 
REMARK       I    between atoms: O1_9  and  C1_19 
REMARK       I    between atoms: C6_10  and  C5_34 
REMARK       I    between atoms: C6_10  and  O6_12 
REMARK       I    between atoms: C3_13  and  O1_16 
REMARK       I    between atoms: C2_14  and  N_20 
REMARK       I    between atoms: C1_15  and  O1_45 
REMARK       I    between atoms: O1_16  and  C1_29 
REMARK       I    between atoms: S_17  and  O4_30 
REMARK       I    between atoms: N_20  and  C7_40 
REMARK       I    between atoms: C4_22  and  O4_30 
REMARK       I    between atoms: O4_24  and  C4_28 
REMARK       I    between atoms: C5_25  and  C6_55 
REMARK       I    between atoms: C2_32  and  O2_39 
REMARK       I    between atoms: C5_33  and  C6_51 
REMARK       I    between atoms: C2_36  and  O2_56 
REMARK       I    between atoms: C8_37  and  C7_40 
REMARK       I    between atoms: C2_43  and  N_48 
REMARK       I    between atoms: C3_50  and  O3_53 
REMARK       I    between atoms: O6_54  and  C6_55 
ROOT
ATOM      1  C5  BDP d1197       8.915   9.614   1.665  0.00  0.00     0.152 C 
ATOM      2  O1  BDP d1197      12.204  11.295   1.899  0.00  0.00    -0.348 OA
ATOM      3  C1  BDP d1197      10.784  11.161   2.101  0.00  0.00     0.160 C 
ATOM      4  O5  BDP d1197      10.331   9.851   1.735  0.00  0.00    -0.340 OA
ATOM      5  C2  BDP d1197      10.077  12.233   1.270  0.00  0.00     0.110 C 
ATOM      6  O6A BDP d1197       8.104   7.384   1.596  0.00  0.00    -0.646 OA
ATOM      7  O2  BDP d1197      10.382  13.527   1.809  0.00  0.00    -0.388 OA
ATOM      8  C6  BDP d1197       8.730   8.286   0.996  0.00  0.00     0.206 C 
ATOM      9  C3  BDP d1197       8.559  12.059   1.185  0.00  0.00     0.092 C 
ATOM     10  O6B BDP d1197       9.206   8.145  -0.152  0.00  0.00    -0.646 OA
ATOM     11  O3  BDP d1197       8.069  12.950   0.174  0.00  0.00    -0.390 OA
ATOM     12  C4  BDP d1197       8.146  10.632   0.825  0.00  0.00     0.103 C 
ATOM     13  H   BDP d1197       8.538   9.671   2.665  0.00  0.00     0.104 H 
ATOM     14  H   BDP d1197      10.554  11.293   3.138  0.00  0.00     0.133 H 
ATOM     15  H   BDP d1197      10.445  12.132   0.270  0.00  0.00     0.094 H 
ATOM     16  H   BDP d1197      10.037  13.589   2.713  0.00  0.00     0.210 HD
ATOM     17  H   BDP d1197       8.145  12.274   2.148  0.00  0.00     0.091 H 
ATOM     18  H   BDP d1197       8.468  12.722  -0.680  0.00  0.00     0.210 HD
ATOM     19  H   BDP d1197       8.375  10.472  -0.208  0.00  0.00     0.092 H 
ATOM     20  O1  ASG d1198       6.730  10.454   1.042  0.00  0.00    -0.348 OA
ATOM     21  O7  ASG d1198       3.890   7.179   3.078  0.00  0.00    -0.274 OA
ATOM     22  OSB ASG d1198       0.839  11.906  -1.301  0.00  0.00    -0.572 OA
ATOM     23  C3  ASG d1198       3.468   9.316  -0.558  0.00  0.00     0.094 C 
ATOM     24  C2  ASG d1198       4.477   9.641   0.554  0.00  0.00     0.087 C 
ATOM     25  S   ASG d1198       2.126  12.440  -1.797  0.00  0.00     0.252 S 
ATOM     26  N   ASG d1198       4.525   8.410   1.337  0.00  0.00    -0.349 N 
ATOM     27  OSA ASG d1198       2.137  12.380  -3.276  0.00  0.00    -0.572 OA
ATOM     28  C4  ASG d1198       3.609  10.298  -1.715  0.00  0.00     0.114 C 
ATOM     29  C5  ASG d1198       5.063  10.298  -2.177  0.00  0.00     0.090 C 
ATOM     30  O4  ASG d1198       3.280  11.600  -1.219  0.00  0.00    -0.246 OA
ATOM     31  C8  ASG d1198       2.969   9.361   2.947  0.00  0.00    -0.003 C 
ATOM     32  C7  ASG d1198       3.825   8.227   2.461  0.00  0.00     0.214 C 
ATOM     33  C1  ASG d1198       5.907   9.869   0.019  0.00  0.00     0.154 C 
ATOM     34  OSC ASG d1198       2.280  13.845  -1.356  0.00  0.00    -0.572 OA
ATOM     35  O6  ASG d1198       4.107  11.066  -4.231  0.00  0.00    -0.398 OA
ATOM     36  C6  ASG d1198       5.272  11.164  -3.413  0.00  0.00     0.043 C 
ATOM     37  O5  ASG d1198       5.896  10.753  -1.106  0.00  0.00    -0.349 OA
ATOM     38  H   ASG d1198       3.696   8.329  -0.901  0.00  0.00     0.091 H 
ATOM     39  H   ASG d1198       4.183  10.527   1.076  0.00  0.00     0.084 H 
ATOM     40  H   ASG d1198       5.102   7.678   1.021  0.00  0.00     0.163 HD
ATOM     41  H   ASG d1198       2.968  10.028  -2.529  0.00  0.00     0.093 H 
ATOM     42  H   ASG d1198       5.326   9.297  -2.448  0.00  0.00     0.090 H 
ATOM     43  H   ASG d1198       2.472   9.071   3.849  0.00  0.00     0.040 H 
ATOM     44  H   ASG d1198       2.240   9.604   2.201  0.00  0.00     0.040 H 
ATOM     45  H   ASG d1198       3.583  10.216   3.138  0.00  0.00     0.040 H 
ATOM     46  H   ASG d1198       6.299   8.919  -0.276  0.00  0.00     0.132 H 
ATOM     47  H   ASG d1198       4.222  11.612  -5.025  0.00  0.00     0.209 HD
ATOM     48  H   ASG d1198       6.126  10.818  -3.957  0.00  0.00     0.078 H 
ATOM     49  H   ASG d1198       5.436  12.182  -3.126  0.00  0.00     0.078 H 
ATOM     50  S   ASG d1196      14.284   9.865  -0.902  0.00  0.00     0.252 S 
ATOM     51  OSB ASG d1196      14.621  11.198  -1.453  0.00  0.00    -0.572 OA
ATOM     52  C7  ASG d1196      14.516  13.182   4.080  0.00  0.00     0.214 C 
ATOM     53  C6  ASG d1196      14.767   7.092   1.348  0.00  0.00     0.043 C 
ATOM     54  C8  ASG d1196      15.311  13.601   2.880  0.00  0.00    -0.003 C 
ATOM     55  O6  ASG d1196      15.910   6.438   1.908  0.00  0.00    -0.398 OA
ATOM     56  C1  ASG d1196      15.273   9.916   3.678  0.00  0.00     0.151 C 
ATOM     57  O4  ASG d1196      14.372   9.954   0.630  0.00  0.00    -0.246 OA
ATOM     58  C4  ASG d1196      13.494   9.283   1.544  0.00  0.00     0.114 C 
ATOM     59  C3  ASG d1196      13.097  10.369   2.537  0.00  0.00     0.094 C 
ATOM     60  C5  ASG d1196      14.386   8.261   2.246  0.00  0.00     0.090 C 
ATOM     61  OSA ASG d1196      12.918   9.488  -1.333  0.00  0.00    -0.572 OA
ATOM     62  OSC ASG d1196      15.283   8.883  -1.391  0.00  0.00    -0.572 OA
ATOM     63  C2  ASG d1196      14.405  10.993   3.023  0.00  0.00     0.087 C 
ATOM     64  O5  ASG d1196      15.571   8.906   2.718  0.00  0.00    -0.349 OA
ATOM     65  O1  ASG d1196      16.509  10.491   4.115  0.00  0.00    -0.369 OA
ATOM     66  N   ASG d1196      14.091  11.918   4.106  0.00  0.00    -0.349 N 
ATOM     67  O7  ASG d1196      14.267  13.965   4.982  0.00  0.00    -0.274 OA
ATOM     68  H   ASG d1196      15.002   7.453   0.368  0.00  0.00     0.078 H 
ATOM     69  H   ASG d1196      13.950   6.405   1.279  0.00  0.00     0.078 H 
ATOM     70  H   ASG d1196      15.415  12.770   2.214  0.00  0.00     0.040 H 
ATOM     71  H   ASG d1196      16.279  13.932   3.191  0.00  0.00     0.040 H 
ATOM     72  H   ASG d1196      14.806  14.400   2.378  0.00  0.00     0.040 H 
ATOM     73  H   ASG d1196      16.646   7.067   1.967  0.00  0.00     0.209 HD
ATOM     74  H   ASG d1196      14.746   9.501   4.511  0.00  0.00     0.132 H 
ATOM     75  H   ASG d1196      12.636   8.813   1.110  0.00  0.00     0.093 H 
ATOM     76  H   ASG d1196      12.558   9.997   3.384  0.00  0.00     0.091 H 
ATOM     77  H   ASG d1196      13.823   7.861   3.063  0.00  0.00     0.090 H 
ATOM     78  H   ASG d1196      14.896  11.458   2.194  0.00  0.00     0.084 H 
ATOM     79  H   ASG d1196      16.980  10.864   3.354  0.00  0.00     0.212 HD
ATOM     80  H   ASG d1196      13.554  11.605   4.869  0.00  0.00     0.163 HD
ATOM     81  O3  BDP d1199      -2.324   7.264   0.075  0.00  0.00    -0.393 OA
ATOM     82  O1  BDP d1199       2.110   9.301  -0.087  0.00  0.00    -0.348 OA
ATOM     83  O6A BDP d1199       1.487   6.437  -4.466  0.00  0.00    -0.646 OA
ATOM     84  C4  BDP d1199      -0.926   7.076  -1.876  0.00  0.00    -0.005 C 
ATOM     85  O5  BDP d1199       1.373   7.934  -1.796  0.00  0.00    -0.343 OA
ATOM     86  C1  BDP d1199       1.345   8.121  -0.374  0.00  0.00     0.159 C 
ATOM     87  C5  BDP d1199       0.514   6.938  -2.360  0.00  0.00     0.127 C 
ATOM     88  C2  BDP d1199      -0.083   8.219   0.170  0.00  0.00     0.107 C 
ATOM     89  C3  BDP d1199      -0.968   7.092  -0.356  0.00  0.00     0.068 C 
ATOM     90  C6  BDP d1199       0.577   7.045  -3.859  0.00  0.00     0.203 C 
ATOM     91  O2  BDP d1199      -0.046   8.153   1.599  0.00  0.00    -0.388 OA
ATOM     92  O6B BDP d1199      -0.270   7.751  -4.449  0.00  0.00    -0.646 OA
ATOM     93  H   BDP d1199      -2.867   6.538  -0.270  0.00  0.00     0.210 HD
ATOM     94  H   BDP d1199      -1.340   7.989  -2.251  0.00  0.00     0.041 H 
ATOM     95  H   BDP d1199      -1.496   6.243  -2.233  0.00  0.00     0.041 H 
ATOM     96  H   BDP d1199       1.774   7.272   0.116  0.00  0.00     0.133 H 
ATOM     97  H   BDP d1199       0.853   5.974  -2.040  0.00  0.00     0.100 H 
ATOM     98  H   BDP d1199      -0.499   9.149  -0.157  0.00  0.00     0.094 H 
ATOM     99  H   BDP d1199      -0.598   6.165   0.031  0.00  0.00     0.087 H 
ATOM    100  H   BDP d1199       0.333   7.303   1.873  0.00  0.00     0.210 HD
ENDROOT
TORSDOF 25
ENDMDL
MODEL 68
REMARK VINA RESULT:       0.9      3.256     12.322
REMARK  0 active torsions:
REMARK  status: ('A' for Active; 'I' for Inactive)
REMARK       I    between atoms: C5_1  and  C6_46 
REMARK       I    between atoms: O1_2  and  C4_60 
REMARK       I    between atoms: O1_2  and  C1_47 
REMARK       I    between atoms: S_3  and  O4_24 
REMARK       I    between atoms: C7_6  and  C8_11 
REMARK       I    between atoms: C7_6  and  N_48 
REMARK       I    between atoms: O3_7  and  C3_41 
REMARK       I    between atoms: O1_9  and  C3_31 
REMARK       I    between atoms: O1_9  and  C1_19 
REMARK       I    between atoms: C6_10  and  C5_34 
REMARK       I    between atoms: C6_10  and  O6_12 
REMARK       I    between atoms: C3_13  and  O1_16 
REMARK       I    between atoms: C2_14  and  N_20 
REMARK       I    between atoms: C1_15  and  O1_45 
REMARK       I    between atoms: O1_16  and  C1_29 
REMARK       I    between atoms: S_17  and  O4_30 
REMARK       I    between atoms: N_20  and  C7_40 
REMARK       I    between atoms: C4_22  and  O4_30 
REMARK       I    between atoms: O4_24  and  C4_28 
REMARK       I    between atoms: C5_25  and  C6_55 
REMARK       I    between atoms: C2_32  and  O2_39 
REMARK       I    between atoms: C5_33  and  C6_51 
REMARK       I    between atoms: C2_36  and  O2_56 
REMARK       I    between atoms: C8_37  and  C7_40 
REMARK       I    between atoms: C2_43  and  N_48 
REMARK       I    between atoms: C3_50  and  O3_53 
REMARK       I    between atoms: O6_54  and  C6_55 
ROOT
ATOM      1  C5  BDP d1197       4.584  11.376  -1.061  0.00  0.00     0.152 C 
ATOM      2  O1  BDP d1197       1.713   9.043  -1.192  0.00  0.00    -0.348 OA
ATOM      3  C1  BDP d1197       2.788   9.765  -0.558  0.00  0.00     0.160 C 
ATOM      4  O5  BDP d1197       3.364  10.725  -1.453  0.00  0.00    -0.340 OA
ATOM      5  C2  BDP d1197       3.838   8.753  -0.097  0.00  0.00     0.110 C 
ATOM      6  O6A BDP d1197       5.293  13.326  -2.216  0.00  0.00    -0.646 OA
ATOM      7  O2  BDP d1197       3.291   7.951   0.959  0.00  0.00    -0.388 OA
ATOM      8  C6  BDP d1197       5.103  12.091  -2.273  0.00  0.00     0.206 C 
ATOM      9  C3  BDP d1197       5.152   9.384   0.368  0.00  0.00     0.092 C 
ATOM     10  O6B BDP d1197       5.336  11.407  -3.293  0.00  0.00    -0.646 OA
ATOM     11  O3  BDP d1197       6.120   8.335   0.508  0.00  0.00    -0.390 OA
ATOM     12  C4  BDP d1197       5.691  10.423  -0.615  0.00  0.00     0.103 C 
ATOM     13  H   BDP d1197       4.349  12.008  -0.231  0.00  0.00     0.104 H 
ATOM     14  H   BDP d1197       2.410  10.308   0.283  0.00  0.00     0.133 H 
ATOM     15  H   BDP d1197       4.080   8.157  -0.953  0.00  0.00     0.094 H 
ATOM     16  H   BDP d1197       3.082   8.516   1.719  0.00  0.00     0.210 HD
ATOM     17  H   BDP d1197       4.969   9.890   1.293  0.00  0.00     0.091 H 
ATOM     18  H   BDP d1197       6.256   7.904  -0.350  0.00  0.00     0.210 HD
ATOM     19  H   BDP d1197       6.067   9.904  -1.471  0.00  0.00     0.092 H 
ATOM     20  O1  ASG d1198       6.753  11.184  -0.002  0.00  0.00    -0.348 OA
ATOM     21  O7  ASG d1198       7.997  15.795   0.351  0.00  0.00    -0.274 OA
ATOM     22  OSB ASG d1198      12.966  10.926   1.904  0.00  0.00    -0.572 OA
ATOM     23  C3  ASG d1198      10.355  12.354  -0.400  0.00  0.00     0.094 C 
ATOM     24  C2  ASG d1198       8.901  12.346   0.098  0.00  0.00     0.087 C 
ATOM     25  S   ASG d1198      12.166   9.789   1.398  0.00  0.00     0.252 S 
ATOM     26  N   ASG d1198       8.427  13.689  -0.223  0.00  0.00    -0.349 N 
ATOM     27  OSA ASG d1198      12.971   9.031   0.414  0.00  0.00    -0.572 OA
ATOM     28  C4  ASG d1198      10.876  10.931  -0.557  0.00  0.00     0.114 C 
ATOM     29  C5  ASG d1198       9.916  10.159  -1.457  0.00  0.00     0.090 C 
ATOM     30  O4  ASG d1198      10.882  10.327   0.740  0.00  0.00    -0.246 OA
ATOM     31  C8  ASG d1198       8.845  14.395   2.068  0.00  0.00    -0.003 C 
ATOM     32  C7  ASG d1198       8.394  14.687   0.666  0.00  0.00     0.214 C 
ATOM     33  C1  ASG d1198       8.002  11.370  -0.690  0.00  0.00     0.154 C 
ATOM     34  OSC ASG d1198      11.799   8.904   2.528  0.00  0.00    -0.572 OA
ATOM     35  O6  ASG d1198      11.846   8.807  -1.868  0.00  0.00    -0.398 OA
ATOM     36  C6  ASG d1198      10.424   8.757  -1.768  0.00  0.00     0.043 C 
ATOM     37  O5  ASG d1198       8.633  10.093  -0.828  0.00  0.00    -0.349 OA
ATOM     38  H   ASG d1198      10.350  12.838  -1.354  0.00  0.00     0.091 H 
ATOM     39  H   ASG d1198       8.863  12.061   1.129  0.00  0.00     0.084 H 
ATOM     40  H   ASG d1198       8.117  13.869  -1.139  0.00  0.00     0.163 HD
ATOM     41  H   ASG d1198      11.858  10.926  -0.983  0.00  0.00     0.093 H 
ATOM     42  H   ASG d1198       9.842  10.680  -2.389  0.00  0.00     0.090 H 
ATOM     43  H   ASG d1198       8.762  15.282   2.661  0.00  0.00     0.040 H 
ATOM     44  H   ASG d1198       9.864  14.068   2.055  0.00  0.00     0.040 H 
ATOM     45  H   ASG d1198       8.230  13.627   2.489  0.00  0.00     0.040 H 
ATOM     46  H   ASG d1198       7.835  11.793  -1.658  0.00  0.00     0.132 H 
ATOM     47  H   ASG d1198      12.189   7.921  -2.066  0.00  0.00     0.209 HD
ATOM     48  H   ASG d1198      10.008   8.419  -2.695  0.00  0.00     0.078 H 
ATOM     49  H   ASG d1198      10.132   8.079  -0.994  0.00  0.00     0.078 H 
ATOM     50  S   ASG d1196       1.512   7.870  -4.770  0.00  0.00     0.252 S 
ATOM     51  OSB ASG d1196       1.537   6.437  -4.395  0.00  0.00    -0.572 OA
ATOM     52  C7  ASG d1196      -1.412   7.959   0.457  0.00  0.00     0.214 C 
ATOM     53  C6  ASG d1196      -0.136  11.023  -5.339  0.00  0.00     0.043 C 
ATOM     54  C8  ASG d1196      -1.415   6.706  -0.366  0.00  0.00    -0.003 C 
ATOM     55  O6  ASG d1196      -1.401  11.414  -5.884  0.00  0.00    -0.398 OA
ATOM     56  C1  ASG d1196      -1.833   9.954  -2.234  0.00  0.00     0.151 C 
ATOM     57  O4  ASG d1196       0.597   8.599  -3.773  0.00  0.00    -0.246 OA
ATOM     58  C4  ASG d1196       0.825   9.920  -3.262  0.00  0.00     0.114 C 
ATOM     59  C3  ASG d1196       0.614   9.773  -1.760  0.00  0.00     0.094 C 
ATOM     60  C5  ASG d1196      -0.309  10.757  -3.850  0.00  0.00     0.090 C 
ATOM     61  OSA ASG d1196       2.889   8.414  -4.719  0.00  0.00    -0.572 OA
ATOM     62  OSC ASG d1196       0.944   7.994  -6.134  0.00  0.00    -0.572 OA
ATOM     63  C2  ASG d1196      -0.745   9.092  -1.590  0.00  0.00     0.087 C 
ATOM     64  O5  ASG d1196      -1.556  10.096  -3.625  0.00  0.00    -0.349 OA
ATOM     65  O1  ASG d1196      -3.104   9.310  -2.097  0.00  0.00    -0.369 OA
ATOM     66  N   ASG d1196      -1.074   9.086  -0.170  0.00  0.00    -0.349 N 
ATOM     67  O7  ASG d1196      -1.698   7.940   1.643  0.00  0.00    -0.274 OA
ATOM     68  H   ASG d1196       0.207  10.135  -5.827  0.00  0.00     0.078 H 
ATOM     69  H   ASG d1196       0.582  11.802  -5.489  0.00  0.00     0.078 H 
ATOM     70  H   ASG d1196      -1.137   6.940  -1.372  0.00  0.00     0.040 H 
ATOM     71  H   ASG d1196      -2.394   6.275  -0.357  0.00  0.00     0.040 H 
ATOM     72  H   ASG d1196      -0.715   6.008   0.044  0.00  0.00     0.040 H 
ATOM     73  H   ASG d1196      -2.047  10.703  -5.744  0.00  0.00     0.209 HD
ATOM     74  H   ASG d1196      -1.851  10.909  -1.754  0.00  0.00     0.132 H 
ATOM     75  H   ASG d1196       1.779  10.350  -3.485  0.00  0.00     0.093 H 
ATOM     76  H   ASG d1196       0.597  10.707  -1.237  0.00  0.00     0.091 H 
ATOM     77  H   ASG d1196      -0.289  11.705  -3.355  0.00  0.00     0.090 H 
ATOM     78  H   ASG d1196      -0.698   8.114  -2.021  0.00  0.00     0.084 H 
ATOM     79  H   ASG d1196      -3.077   8.445  -2.536  0.00  0.00     0.212 HD
ATOM     80  H   ASG d1196      -1.047   9.930   0.337  0.00  0.00     0.163 HD
ATOM     81  O3  BDP d1199      14.839  16.336   1.084  0.00  0.00    -0.393 OA
ATOM     82  O1  BDP d1199      11.230  13.108   0.456  0.00  0.00    -0.348 OA
ATOM     83  O6A BDP d1199      14.150  13.141  -3.930  0.00  0.00    -0.646 OA
ATOM     84  C4  BDP d1199      14.743  14.922  -0.862  0.00  0.00    -0.005 C 
ATOM     85  O5  BDP d1199      12.781  13.488  -1.211  0.00  0.00    -0.343 OA
ATOM     86  C1  BDP d1199      12.023  14.124  -0.174  0.00  0.00     0.159 C 
ATOM     87  C5  BDP d1199      13.807  14.249  -1.860  0.00  0.00     0.127 C 
ATOM     88  C2  BDP d1199      12.917  14.857   0.831  0.00  0.00     0.107 C 
ATOM     89  C3  BDP d1199      13.943  15.747   0.134  0.00  0.00     0.068 C 
ATOM     90  C6  BDP d1199      14.578  13.334  -2.769  0.00  0.00     0.203 C 
ATOM     91  O2  BDP d1199      12.101  15.667   1.682  0.00  0.00    -0.388 OA
ATOM     92  O6B BDP d1199      15.612  12.782  -2.334  0.00  0.00    -0.646 OA
ATOM     93  H   BDP d1199      15.480  16.896   0.620  0.00  0.00     0.210 HD
ATOM     94  H   BDP d1199      15.298  14.173  -0.335  0.00  0.00     0.041 H 
ATOM     95  H   BDP d1199      15.413  15.566  -1.392  0.00  0.00     0.041 H 
ATOM     96  H   BDP d1199      11.394  14.882  -0.592  0.00  0.00     0.133 H 
ATOM     97  H   BDP d1199      13.345  15.033  -2.422  0.00  0.00     0.100 H 
ATOM     98  H   BDP d1199      13.447  14.122   1.400  0.00  0.00     0.094 H 
ATOM     99  H   BDP d1199      13.418  16.529  -0.375  0.00  0.00     0.087 H 
ATOM    100  H   BDP d1199      11.631  16.325   1.147  0.00  0.00     0.210 HD
ENDROOT
TORSDOF 25
ENDMDL
MODEL 69
REMARK VINA RESULT:       4.5      3.547     12.444
REMARK  0 active torsions:
REMARK  status: ('A' for Active; 'I' for Inactive)
REMARK       I    between atoms: C5_1  and  C6_46 
REMARK       I    between atoms: O1_2  and  C4_60 
REMARK       I    between atoms: O1_2  and  C1_47 
REMARK       I    between atoms: S_3  and  O4_24 
REMARK       I    between atoms: C7_6  and  C8_11 
REMARK       I    between atoms: C7_6  and  N_48 
REMARK       I    between atoms: O3_7  and  C3_41 
REMARK       I    between atoms: O1_9  and  C3_31 
REMARK       I    between atoms: O1_9  and  C1_19 
REMARK       I    between atoms: C6_10  and  C5_34 
REMARK       I    between atoms: C6_10  and  O6_12 
REMARK       I    between atoms: C3_13  and  O1_16 
REMARK       I    between atoms: C2_14  and  N_20 
REMARK       I    between atoms: C1_15  and  O1_45 
REMARK       I    between atoms: O1_16  and  C1_29 
REMARK       I    between atoms: S_17  and  O4_30 
REMARK       I    between atoms: N_20  and  C7_40 
REMARK       I    between atoms: C4_22  and  O4_30 
REMARK       I    between atoms: O4_24  and  C4_28 
REMARK       I    between atoms: C5_25  and  C6_55 
REMARK       I    between atoms: C2_32  and  O2_39 
REMARK       I    between atoms: C5_33  and  C6_51 
REMARK       I    between atoms: C2_36  and  O2_56 
REMARK       I    between atoms: C8_37  and  C7_40 
REMARK       I    between atoms: C2_43  and  N_48 
REMARK       I    between atoms: C3_50  and  O3_53 
REMARK       I    between atoms: O6_54  and  C6_55 
ROOT
ATOM      1  C5  BDP d1197       4.746  12.870  -0.107  0.00  0.00     0.152 C 
ATOM      2  O1  BDP d1197       1.216  12.345  -1.086  0.00  0.00    -0.348 OA
ATOM      3  C1  BDP d1197       2.345  12.320  -0.191  0.00  0.00     0.160 C 
ATOM      4  O5  BDP d1197       3.475  12.990  -0.766  0.00  0.00    -0.340 OA
ATOM      5  C2  BDP d1197       2.679  10.860   0.119  0.00  0.00     0.110 C 
ATOM      6  O6A BDP d1197       6.507  14.355  -0.682  0.00  0.00    -0.646 OA
ATOM      7  O2  BDP d1197       1.615  10.285   0.891  0.00  0.00    -0.388 OA
ATOM      8  C6  BDP d1197       5.777  13.409  -1.052  0.00  0.00     0.206 C 
ATOM      9  C3  BDP d1197       4.007  10.665   0.854  0.00  0.00     0.092 C 
ATOM     10  O6B BDP d1197       5.869  12.871  -2.177  0.00  0.00    -0.646 OA
ATOM     11  O3  BDP d1197       4.318   9.265   0.837  0.00  0.00    -0.390 OA
ATOM     12  C4  BDP d1197       5.159  11.434   0.209  0.00  0.00     0.103 C 
ATOM     13  H   BDP d1197       4.669  13.394   0.822  0.00  0.00     0.104 H 
ATOM     14  H   BDP d1197       2.100  12.838   0.712  0.00  0.00     0.133 H 
ATOM     15  H   BDP d1197       2.785  10.367  -0.824  0.00  0.00     0.094 H 
ATOM     16  H   BDP d1197       1.542  10.751   1.738  0.00  0.00     0.210 HD
ATOM     17  H   BDP d1197       3.895  11.041   1.850  0.00  0.00     0.091 H 
ATOM     18  H   BDP d1197       4.411   8.965  -0.081  0.00  0.00     0.210 HD
ATOM     19  H   BDP d1197       5.417  10.938  -0.704  0.00  0.00     0.092 H 
ATOM     20  O1  ASG d1198       6.301  11.451   1.092  0.00  0.00    -0.348 OA
ATOM     21  O7  ASG d1198       9.454  14.695   2.664  0.00  0.00    -0.274 OA
ATOM     22  OSB ASG d1198      11.124   7.816   3.507  0.00  0.00    -0.572 OA
ATOM     23  C3  ASG d1198      10.025  10.704   1.357  0.00  0.00     0.094 C 
ATOM     24  C2  ASG d1198       8.670  11.348   1.687  0.00  0.00     0.087 C 
ATOM     25  S   ASG d1198      10.009   7.330   2.664  0.00  0.00     0.252 S 
ATOM     26  N   ASG d1198       8.957  12.778   1.650  0.00  0.00    -0.349 N 
ATOM     27  OSA ASG d1198      10.550   6.437   1.615  0.00  0.00    -0.572 OA
ATOM     28  C4  ASG d1198       9.840   9.257   0.918  0.00  0.00     0.114 C 
ATOM     29  C5  ASG d1198       8.841   9.224  -0.234  0.00  0.00     0.090 C 
ATOM     30  O4  ASG d1198       9.293   8.536   2.026  0.00  0.00    -0.246 OA
ATOM     31  C8  ASG d1198       9.172  12.808   4.074  0.00  0.00    -0.003 C 
ATOM     32  C7  ASG d1198       9.211  13.504   2.744  0.00  0.00     0.214 C 
ATOM     33  C1  ASG d1198       7.604  11.093   0.600  0.00  0.00     0.154 C 
ATOM     34  OSC ASG d1198       9.045   6.583   3.505  0.00  0.00    -0.572 OA
ATOM     35  O6  ASG d1198       9.951   7.171  -0.757  0.00  0.00    -0.398 OA
ATOM     36  C6  ASG d1198       8.685   7.825  -0.819  0.00  0.00     0.043 C 
ATOM     37  O5  ASG d1198       7.577   9.712   0.226  0.00  0.00    -0.349 OA
ATOM     38  H   ASG d1198      10.445  11.269   0.551  0.00  0.00     0.091 H 
ATOM     39  H   ASG d1198       8.290  10.961   2.610  0.00  0.00     0.084 H 
ATOM     40  H   ASG d1198       8.965  13.231   0.776  0.00  0.00     0.163 HD
ATOM     41  H   ASG d1198      10.770   8.827   0.605  0.00  0.00     0.093 H 
ATOM     42  H   ASG d1198       9.214   9.851  -1.017  0.00  0.00     0.090 H 
ATOM     43  H   ASG d1198       9.393  13.510   4.850  0.00  0.00     0.040 H 
ATOM     44  H   ASG d1198       9.897  12.022   4.087  0.00  0.00     0.040 H 
ATOM     45  H   ASG d1198       8.197  12.397   4.233  0.00  0.00     0.040 H 
ATOM     46  H   ASG d1198       7.858  11.689  -0.250  0.00  0.00     0.132 H 
ATOM     47  H   ASG d1198       9.872   6.277  -1.126  0.00  0.00     0.209 HD
ATOM     48  H   ASG d1198       8.362   7.893  -1.837  0.00  0.00     0.078 H 
ATOM     49  H   ASG d1198       7.956   7.273  -0.263  0.00  0.00     0.078 H 
ATOM     50  S   ASG d1196       1.235  12.012  -4.841  0.00  0.00     0.252 S 
ATOM     51  OSB ASG d1196       0.509  10.722  -4.820  0.00  0.00    -0.572 OA
ATOM     52  C7  ASG d1196      -2.318  12.729  -0.073  0.00  0.00     0.214 C 
ATOM     53  C6  ASG d1196       1.412  15.611  -4.805  0.00  0.00     0.043 C 
ATOM     54  C8  ASG d1196      -2.736  11.794  -1.168  0.00  0.00    -0.003 C 
ATOM     55  O6  ASG d1196       0.621  16.664  -5.367  0.00  0.00    -0.398 OA
ATOM     56  C1  ASG d1196      -1.189  15.062  -2.237  0.00  0.00     0.151 C 
ATOM     57  O4  ASG d1196       0.583  12.934  -3.798  0.00  0.00    -0.246 OA
ATOM     58  C4  ASG d1196       1.291  13.863  -2.965  0.00  0.00     0.114 C 
ATOM     59  C3  ASG d1196       0.730  13.607  -1.571  0.00  0.00     0.094 C 
ATOM     60  C5  ASG d1196       0.831  15.236  -3.448  0.00  0.00     0.090 C 
ATOM     61  OSA ASG d1196       2.662  11.777  -4.522  0.00  0.00    -0.572 OA
ATOM     62  OSC ASG d1196       1.087  12.618  -6.188  0.00  0.00    -0.572 OA
ATOM     63  C2  ASG d1196      -0.791  13.681  -1.710  0.00  0.00     0.087 C 
ATOM     64  O5  ASG d1196      -0.597  15.263  -3.518  0.00  0.00    -0.349 OA
ATOM     65  O1  ASG d1196      -2.611  15.129  -2.389  0.00  0.00    -0.369 OA
ATOM     66  N   ASG d1196      -1.371  13.618  -0.373  0.00  0.00    -0.349 N 
ATOM     67  O7  ASG d1196      -2.818  12.669   1.038  0.00  0.00    -0.274 OA
ATOM     68  H   ASG d1196       1.392  14.760  -5.453  0.00  0.00     0.078 H 
ATOM     69  H   ASG d1196       2.424  15.937  -4.689  0.00  0.00     0.078 H 
ATOM     70  H   ASG d1196      -2.180  12.013  -2.055  0.00  0.00     0.040 H 
ATOM     71  H   ASG d1196      -3.781  11.917  -1.362  0.00  0.00     0.040 H 
ATOM     72  H   ASG d1196      -2.546  10.785  -0.868  0.00  0.00     0.040 H 
ATOM     73  H   ASG d1196      -0.295  16.360  -5.468  0.00  0.00     0.209 HD
ATOM     74  H   ASG d1196      -0.857  15.808  -1.546  0.00  0.00     0.132 H 
ATOM     75  H   ASG d1196       2.359  13.785  -2.980  0.00  0.00     0.093 H 
ATOM     76  H   ASG d1196       1.044  14.328  -0.845  0.00  0.00     0.091 H 
ATOM     77  H   ASG d1196       1.189  15.955  -2.741  0.00  0.00     0.090 H 
ATOM     78  H   ASG d1196      -1.119  12.894  -2.355  0.00  0.00     0.084 H 
ATOM     79  H   ASG d1196      -2.901  14.449  -3.017  0.00  0.00     0.212 HD
ATOM     80  H   ASG d1196      -1.057  14.242   0.320  0.00  0.00     0.163 HD
ATOM     81  O3  BDP d1199      15.433  11.610   4.202  0.00  0.00    -0.393 OA
ATOM     82  O1  BDP d1199      10.952  10.772   2.454  0.00  0.00    -0.348 OA
ATOM     83  O6A BDP d1199      14.385  10.028  -1.474  0.00  0.00    -0.646 OA
ATOM     84  C4  BDP d1199      15.093  10.762   1.975  0.00  0.00    -0.005 C 
ATOM     85  O5  BDP d1199      12.808  10.580   1.093  0.00  0.00    -0.343 OA
ATOM     86  C1  BDP d1199      12.240  11.338   2.170  0.00  0.00     0.159 C 
ATOM     87  C5  BDP d1199      14.180  10.816   0.755  0.00  0.00     0.127 C 
ATOM     88  C2  BDP d1199      13.143  11.355   3.407  0.00  0.00     0.107 C 
ATOM     89  C3  BDP d1199      14.585  11.708   3.052  0.00  0.00     0.068 C 
ATOM     90  C6  BDP d1199      14.604   9.794  -0.264  0.00  0.00     0.203 C 
ATOM     91  O2  BDP d1199      12.644  12.319   4.339  0.00  0.00    -0.388 OA
ATOM     92  O6B BDP d1199      15.143   8.738   0.130  0.00  0.00    -0.646 OA
ATOM     93  H   BDP d1199      16.342  11.838   3.954  0.00  0.00     0.210 HD
ATOM     94  H   BDP d1199      15.110   9.763   2.361  0.00  0.00     0.041 H 
ATOM     95  H   BDP d1199      16.080  11.058   1.686  0.00  0.00     0.041 H 
ATOM     96  H   BDP d1199      12.140  12.364   1.883  0.00  0.00     0.133 H 
ATOM     97  H   BDP d1199      14.266  11.803   0.352  0.00  0.00     0.100 H 
ATOM     98  H   BDP d1199      13.136  10.374   3.834  0.00  0.00     0.094 H 
ATOM     99  H   BDP d1199      14.605  12.716   2.694  0.00  0.00     0.087 H 
ATOM    100  H   BDP d1199      12.659  13.199   3.932  0.00  0.00     0.210 HD
ENDROOT
TORSDOF 25
ENDMDL
