REMARK  0 active torsions:
REMARK  status: ('A' for Active; 'I' for Inactive)
REMARK       I    between atoms: C5_1  and  C6_46 
REMARK       I    between atoms: O1_2  and  C4_60 
REMARK       I    between atoms: O1_2  and  C1_47 
REMARK       I    between atoms: S_3  and  O4_24 
REMARK       I    between atoms: C7_6  and  C8_11 
REMARK       I    between atoms: C7_6  and  N_48 
REMARK       I    between atoms: O3_7  and  C3_41 
REMARK       I    between atoms: O1_9  and  C3_31 
REMARK       I    between atoms: O1_9  and  C1_19 
REMARK       I    between atoms: C6_10  and  C5_34 
REMARK       I    between atoms: C6_10  and  O6_12 
REMARK       I    between atoms: C3_13  and  O1_16 
REMARK       I    between atoms: C2_14  and  N_20 
REMARK       I    between atoms: C1_15  and  O1_45 
REMARK       I    between atoms: O1_16  and  C1_29 
REMARK       I    between atoms: S_17  and  O4_30 
REMARK       I    between atoms: N_20  and  C7_40 
REMARK       I    between atoms: C4_22  and  O4_30 
REMARK       I    between atoms: O4_24  and  C4_28 
REMARK       I    between atoms: C5_25  and  C6_55 
REMARK       I    between atoms: C2_32  and  O2_39 
REMARK       I    between atoms: C5_33  and  C6_51 
REMARK       I    between atoms: C2_36  and  O2_56 
REMARK       I    between atoms: C8_37  and  C7_40 
REMARK       I    between atoms: C2_43  and  N_48 
REMARK       I    between atoms: C3_50  and  O3_53 
REMARK       I    between atoms: O6_54  and  C6_55 
ROOT
ATOM      1  C5  BDP d1197       8.019  14.283  -1.304  0.00  0.00     0.152 C 
ATOM      2  O1  BDP d1197      11.341  14.052  -2.920  0.00  0.00    -0.348 OA
ATOM      3  C1  BDP d1197      10.135  14.715  -2.492  0.00  0.00     0.160 C 
ATOM      4  O5  BDP d1197       9.352  13.866  -1.643  0.00  0.00    -0.340 OA
ATOM      5  C2  BDP d1197       9.343  15.120  -3.736  0.00  0.00     0.110 C 
ATOM      6  O6A BDP d1197       6.881  13.223   0.490  0.00  0.00    -0.646 OA
ATOM      7  O2  BDP d1197      10.063  16.138  -4.445  0.00  0.00    -0.388 OA
ATOM      8  C6  BDP d1197       7.345  13.106  -0.666  0.00  0.00     0.206 C 
ATOM      9  C3  BDP d1197       7.923  15.609  -3.441  0.00  0.00     0.092 C 
ATOM     10  O6B BDP d1197       7.266  12.052  -1.334  0.00  0.00    -0.646 OA
ATOM     11  O3  BDP d1197       7.218  15.692  -4.687  0.00  0.00    -0.390 OA
ATOM     12  C4  BDP d1197       7.158  14.676  -2.503  0.00  0.00     0.103 C 
ATOM     13  H   BDP d1197       8.110  15.145  -0.677  0.00  0.00     0.104 H 
ATOM     14  H   BDP d1197      10.386  15.584  -1.920  0.00  0.00     0.133 H 
ATOM     15  H   BDP d1197       9.236  14.235  -4.328  0.00  0.00     0.094 H 
ATOM     16  H   BDP d1197      10.144  16.926  -3.885  0.00  0.00     0.210 HD
ATOM     17  H   BDP d1197       7.993  16.559  -2.953  0.00  0.00     0.091 H 
ATOM     18  H   BDP d1197       7.177  14.813  -5.095  0.00  0.00     0.210 HD
ATOM     19  H   BDP d1197       6.903  13.793  -3.051  0.00  0.00     0.092 H 
ATOM     20  O1  ASG d1198       5.955  15.320  -2.033  0.00  0.00    -0.348 OA
ATOM     21  O7  ASG d1198       3.706  15.894   2.156  0.00  0.00    -0.274 OA
ATOM     22  OSB ASG d1198      -0.028  17.179  -3.779  0.00  0.00    -0.572 OA
ATOM     23  C3  ASG d1198       2.180  14.962  -1.687  0.00  0.00     0.094 C 
ATOM     24  C2  ASG d1198       3.601  15.467  -1.391  0.00  0.00     0.087 C 
ATOM     25  S   ASG d1198       1.005  16.622  -4.680  0.00  0.00     0.252 S 
ATOM     26  N   ASG d1198       3.758  15.215   0.038  0.00  0.00    -0.349 N 
ATOM     27  OSA ASG d1198       0.386  15.597  -5.550  0.00  0.00    -0.572 OA
ATOM     28  C4  ASG d1198       1.992  14.732  -3.181  0.00  0.00     0.114 C 
ATOM     29  C5  ASG d1198       3.096  13.800  -3.671  0.00  0.00     0.090 C 
ATOM     30  O4  ASG d1198       2.131  15.998  -3.834  0.00  0.00    -0.246 OA
ATOM     31  C8  ASG d1198       3.206  17.536   0.518  0.00  0.00    -0.003 C 
ATOM     32  C7  ASG d1198       3.571  16.152   0.973  0.00  0.00     0.214 C 
ATOM     33  C1  ASG d1198       4.692  14.636  -2.099  0.00  0.00     0.154 C 
ATOM     34  OSC ASG d1198       1.569  17.708  -5.514  0.00  0.00    -0.572 OA
ATOM     35  O6  ASG d1198       1.518  13.313  -5.402  0.00  0.00    -0.398 OA
ATOM     36  C6  ASG d1198       2.916  13.417  -5.135  0.00  0.00     0.043 C 
ATOM     37  O5  ASG d1198       4.365  14.432  -3.477  0.00  0.00    -0.349 OA
ATOM     38  H   ASG d1198       2.070  14.033  -1.168  0.00  0.00     0.091 H 
ATOM     39  H   ASG d1198       3.709  16.482  -1.711  0.00  0.00     0.084 H 
ATOM     40  H   ASG d1198       4.014  14.310   0.328  0.00  0.00     0.163 HD
ATOM     41  H   ASG d1198       1.034  14.301  -3.387  0.00  0.00     0.093 H 
ATOM     42  H   ASG d1198       3.045  12.895  -3.102  0.00  0.00     0.090 H 
ATOM     43  H   ASG d1198       3.090  18.172   1.370  0.00  0.00     0.040 H 
ATOM     44  H   ASG d1198       2.287  17.501  -0.029  0.00  0.00     0.040 H 
ATOM     45  H   ASG d1198       3.981  17.921  -0.111  0.00  0.00     0.040 H 
ATOM     46  H   ASG d1198       4.754  13.691  -1.602  0.00  0.00     0.132 H 
ATOM     47  H   ASG d1198       1.383  13.069  -6.331  0.00  0.00     0.209 HD
ATOM     48  H   ASG d1198       3.391  12.477  -5.324  0.00  0.00     0.078 H 
ATOM     49  H   ASG d1198       3.358  14.159  -5.767  0.00  0.00     0.078 H 
ATOM     50  S   ASG d1196      11.780  10.422  -3.840  0.00  0.00     0.252 S 
ATOM     51  OSB ASG d1196      12.080  10.725  -5.258  0.00  0.00    -0.572 OA
ATOM     52  C7  ASG d1196      14.640  15.662  -3.352  0.00  0.00     0.214 C 
ATOM     53  C6  ASG d1196      12.671  10.018  -0.372  0.00  0.00     0.043 C 
ATOM     54  C8  ASG d1196      14.920  14.778  -4.530  0.00  0.00    -0.003 C 
ATOM     55  O6  ASG d1196      13.812   9.499   0.320  0.00  0.00    -0.398 OA
ATOM     56  C1  ASG d1196      14.584  13.075  -1.183  0.00  0.00     0.151 C 
ATOM     57  O4  ASG d1196      12.513  11.458  -2.973  0.00  0.00    -0.246 OA
ATOM     58  C4  ASG d1196      11.996  12.033  -1.765  0.00  0.00     0.114 C 
ATOM     59  C3  ASG d1196      12.244  13.527  -1.934  0.00  0.00     0.094 C 
ATOM     60  C5  ASG d1196      12.908  11.493  -0.666  0.00  0.00     0.090 C 
ATOM     61  OSA ASG d1196      10.316  10.492  -3.624  0.00  0.00    -0.572 OA
ATOM     62  OSC ASG d1196      12.297   9.068  -3.524  0.00  0.00    -0.572 OA
ATOM     63  C2  ASG d1196      13.722  13.670  -2.299  0.00  0.00     0.087 C 
ATOM     64  O5  ASG d1196      14.274  11.691  -1.039  0.00  0.00    -0.349 OA
ATOM     65  O1  ASG d1196      15.968  13.186  -1.530  0.00  0.00    -0.369 OA
ATOM     66  N   ASG d1196      14.053  15.090  -2.300  0.00  0.00    -0.349 N 
ATOM     67  O7  ASG d1196      14.930  16.847  -3.364  0.00  0.00    -0.274 OA
ATOM     68  H   ASG d1196      12.534   9.485  -1.290  0.00  0.00     0.078 H 
ATOM     69  H   ASG d1196      11.795   9.903   0.231  0.00  0.00     0.078 H 
ATOM     70  H   ASG d1196      14.591  13.783  -4.315  0.00  0.00     0.040 H 
ATOM     71  H   ASG d1196      15.971  14.771  -4.729  0.00  0.00     0.040 H 
ATOM     72  H   ASG d1196      14.398  15.149  -5.387  0.00  0.00     0.040 H 
ATOM     73  H   ASG d1196      14.602   9.607  -0.233  0.00  0.00     0.209 HD
ATOM     74  H   ASG d1196      14.389  13.602  -0.273  0.00  0.00     0.132 H 
ATOM     75  H   ASG d1196      10.968  11.826  -1.551  0.00  0.00     0.093 H 
ATOM     76  H   ASG d1196      12.053  14.095  -1.047  0.00  0.00     0.091 H 
ATOM     77  H   ASG d1196      12.678  12.034   0.228  0.00  0.00     0.090 H 
ATOM     78  H   ASG d1196      13.894  13.191  -3.240  0.00  0.00     0.084 H 
ATOM     79  H   ASG d1196      16.134  12.705  -2.356  0.00  0.00     0.212 HD
ATOM     80  H   ASG d1196      13.839  15.637  -1.510  0.00  0.00     0.163 HD
ATOM     81  O3  BDP d1199      -3.077  16.618   1.103  0.00  0.00    -0.393 OA
ATOM     82  O1  BDP d1199       1.163  15.850  -1.193  0.00  0.00    -0.348 OA
ATOM     83  O6A BDP d1199      -1.716  11.456  -1.603  0.00  0.00    -0.646 OA
ATOM     84  C4  BDP d1199      -2.677  14.605  -0.155  0.00  0.00    -0.005 C 
ATOM     85  O5  BDP d1199      -0.444  14.195  -1.091  0.00  0.00    -0.343 OA
ATOM     86  C1  BDP d1199       0.157  15.267  -0.352  0.00  0.00     0.159 C 
ATOM     87  C5  BDP d1199      -1.619  13.580  -0.550  0.00  0.00     0.127 C 
ATOM     88  C2  BDP d1199      -0.873  16.302   0.110  0.00  0.00     0.107 C 
ATOM     89  C3  BDP d1199      -2.077  15.644   0.779  0.00  0.00     0.068 C 
ATOM     90  C6  BDP d1199      -2.170  12.622  -1.569  0.00  0.00     0.203 C 
ATOM     91  O2  BDP d1199      -0.255  17.196   1.040  0.00  0.00    -0.388 OA
ATOM     92  O6B BDP d1199      -3.050  13.024  -2.361  0.00  0.00    -0.646 OA
ATOM     93  H   BDP d1199      -3.831  16.179   1.526  0.00  0.00     0.210 HD
ATOM     94  H   BDP d1199      -3.045  15.091  -1.035  0.00  0.00     0.041 H 
ATOM     95  H   BDP d1199      -3.478  14.104   0.347  0.00  0.00     0.041 H 
ATOM     96  H   BDP d1199       0.597  14.890   0.548  0.00  0.00     0.133 H 
ATOM     97  H   BDP d1199      -1.349  13.059   0.345  0.00  0.00     0.100 H 
ATOM     98  H   BDP d1199      -1.220  16.831  -0.753  0.00  0.00     0.094 H 
ATOM     99  H   BDP d1199      -1.745  15.177   1.683  0.00  0.00     0.087 H 
ATOM    100  H   BDP d1199       0.051  16.697   1.813  0.00  0.00     0.210 HD
ENDROOT
TORSDOF 25
