MODEL 1
REMARK VINA RESULT:      -4.2      0.000      0.000
REMARK  0 active torsions:
REMARK  status: ('A' for Active; 'I' for Inactive)
REMARK       I    between atoms: O2_1  and  C2_31 
REMARK       I    between atoms: O2_1  and  S_34 
REMARK       I    between atoms: C5_3  and  C6_33 
REMARK       I    between atoms: O3_5  and  C3_13 
REMARK       I    between atoms: O3S_6  and  S1_32 
REMARK       I    between atoms: O1_7  and  C4_23 
REMARK       I    between atoms: O1_7  and  C1_27 
REMARK       I    between atoms: O6_8  and  C6_21 
REMARK       I    between atoms: O6_8  and  S2_24 
REMARK       I    between atoms: C1_9  and  O1_30 
REMARK       I    between atoms: C2_12  and  N_14 
REMARK       I    between atoms: N_14  and  S1_32 
REMARK       I    between atoms: C3_16  and  O3_29 
REMARK       I    between atoms: C6_21  and  C5_35 
REMARK       I    between atoms: O2S_26  and  S1_32 
REMARK       I    between atoms: O1S_28  and  S1_32 
ROOT
ATOM      1  O2  IDS d 402      32.960 -68.134  65.503  0.00  0.00    -0.244 OA
ATOM      2  C5  IDS d 402      29.537 -69.219  67.605  0.00  0.00     0.152 C 
ATOM      3  C1  IDS d 402      31.184 -69.720  65.993  0.00  0.00     0.158 C 
ATOM      4  O5  IDS d 402      30.715 -69.998  67.327  0.00  0.00    -0.340 OA
ATOM      5  O61 IDS d 402      29.577 -69.682  69.965  0.00  0.00    -0.646 OA
ATOM      6  C3  IDS d 402      31.355 -67.538  67.219  0.00  0.00     0.094 C 
ATOM      7  O62 IDS d 402      27.690 -70.144  68.818  0.00  0.00    -0.646 OA
ATOM      8  O3S IDS d 402      35.261 -69.090  65.104  0.00  0.00    -0.572 OA
ATOM      9  O2S IDS d 402      33.420 -69.508  63.438  0.00  0.00    -0.572 OA
ATOM     10  C4  IDS d 402      29.924 -67.742  67.721  0.00  0.00     0.103 C 
ATOM     11  O1S IDS d 402      33.355 -70.605  65.696  0.00  0.00    -0.572 OA
ATOM     12  O3  IDS d 402      31.606 -66.137  67.050  0.00  0.00    -0.390 OA
ATOM     13  O1  IDS d 402      30.153 -70.025  65.026  0.00  0.00    -0.368 OA
ATOM     14  C2  IDS d 402      31.570 -68.248  65.881  0.00  0.00     0.134 C 
ATOM     15  C6  IDS d 402      28.877 -69.720  68.909  0.00  0.00     0.206 C 
ATOM     16  S   IDS d 402      33.747 -69.334  64.936  0.00  0.00     0.252 S 
ATOM     17  H   IDS d 402      28.832 -69.328  66.808  0.00  0.00     0.104 H 
ATOM     18  H   IDS d 402      32.039 -70.330  65.792  0.00  0.00     0.133 H 
ATOM     19  H   IDS d 402      32.028 -67.951  67.942  0.00  0.00     0.091 H 
ATOM     20  H   IDS d 402      29.257 -67.156  67.123  0.00  0.00     0.092 H 
ATOM     21  H   IDS d 402      30.991 -65.775  66.394  0.00  0.00     0.210 HD
ATOM     22  H   IDS d 402      29.373 -69.476  65.200  0.00  0.00     0.212 HD
ATOM     23  H   IDS d 402      30.952 -67.791  65.137  0.00  0.00     0.097 H 
ATOM     24  O4S SGN d 403      24.626 -65.442  65.766  0.00  0.00    -0.572 OA
ATOM     25  O5  SGN d 403      28.009 -65.816  68.853  0.00  0.00    -0.352 OA
ATOM     26  O3  SGN d 403      27.639 -64.023  70.833  0.00  0.00    -0.394 OA
ATOM     27  O3S SGN d 403      31.630 -64.194  71.833  0.00  0.00    -0.296 OA
ATOM     28  O1  SGN d 403      29.823 -67.322  69.097  0.00  0.00    -0.348 OA
ATOM     29  O6  SGN d 403      25.655 -65.810  68.015  0.00  0.00    -0.254 OA
ATOM     30  O5S SGN d 403      27.048 -66.006  65.939  0.00  0.00    -0.572 OA
ATOM     31  C2  SGN d 403      29.576 -65.483  70.658  0.00  0.00     0.079 C 
ATOM     32  C3  SGN d 403      28.216 -65.242  71.332  0.00  0.00     0.058 C 
ATOM     33  N   SGN d 403      30.387 -66.445  71.424  0.00  0.00    -0.210 NA
ATOM     34  O6S SGN d 403      25.320 -67.739  66.449  0.00  0.00    -0.572 OA
ATOM     35  C4  SGN d 403      27.258 -66.410  71.078  0.00  0.00    -0.013 C 
ATOM     36  C6  SGN d 403      25.784 -66.762  69.081  0.00  0.00     0.064 C 
ATOM     37  S2  SGN d 403      25.663 -66.251  66.545  0.00  0.00     0.251 S 
ATOM     38  O2S SGN d 403      32.978 -66.208  71.226  0.00  0.00    -0.296 OA
ATOM     39  C1  SGN d 403      29.390 -65.948  69.216  0.00  0.00     0.150 C 
ATOM     40  O1S SGN d 403      31.926 -66.046  73.485  0.00  0.00    -0.296 OA
ATOM     41  S1  SGN d 403      31.754 -65.712  72.001  0.00  0.00     0.156 S 
ATOM     42  C5  SGN d 403      27.229 -66.765  69.595  0.00  0.00     0.066 C 
ATOM     43  H   SGN d 403      28.249 -63.287  70.996  0.00  0.00     0.210 HD
ATOM     44  H   SGN d 403      31.521 -63.981  70.894  0.00  0.00     0.231 HD
ATOM     45  H   SGN d 403      30.106 -64.553  70.642  0.00  0.00     0.076 H 
ATOM     46  H   SGN d 403      28.374 -65.163  72.386  0.00  0.00     0.085 H 
ATOM     47  H   SGN d 403      30.652 -67.221  70.816  0.00  0.00     0.140 HD
ATOM     48  H   SGN d 403      26.275 -66.133  71.394  0.00  0.00     0.040 H 
ATOM     49  H   SGN d 403      27.597 -67.262  71.631  0.00  0.00     0.040 H 
ATOM     50  H   SGN d 403      25.531 -67.737  68.720  0.00  0.00     0.080 H 
ATOM     51  H   SGN d 403      25.123 -66.493  69.879  0.00  0.00     0.080 H 
ATOM     52  H   SGN d 403      32.872 -65.997  70.285  0.00  0.00     0.231 HD
ATOM     53  H   SGN d 403      29.977 -65.347  68.554  0.00  0.00     0.131 H 
ATOM     54  H   SGN d 403      31.152 -65.733  73.979  0.00  0.00     0.231 HD
ATOM     55  H   SGN d 403      27.642 -67.744  69.464  0.00  0.00     0.086 H 
ENDROOT
TORSDOF 16
ENDMDL
MODEL 2
REMARK VINA RESULT:      -4.2      2.227      6.940
REMARK  0 active torsions:
REMARK  status: ('A' for Active; 'I' for Inactive)
REMARK       I    between atoms: O2_1  and  C2_31 
REMARK       I    between atoms: O2_1  and  S_34 
REMARK       I    between atoms: C5_3  and  C6_33 
REMARK       I    between atoms: O3_5  and  C3_13 
REMARK       I    between atoms: O3S_6  and  S1_32 
REMARK       I    between atoms: O1_7  and  C4_23 
REMARK       I    between atoms: O1_7  and  C1_27 
REMARK       I    between atoms: O6_8  and  C6_21 
REMARK       I    between atoms: O6_8  and  S2_24 
REMARK       I    between atoms: C1_9  and  O1_30 
REMARK       I    between atoms: C2_12  and  N_14 
REMARK       I    between atoms: N_14  and  S1_32 
REMARK       I    between atoms: C3_16  and  O3_29 
REMARK       I    between atoms: C6_21  and  C5_35 
REMARK       I    between atoms: O2S_26  and  S1_32 
REMARK       I    between atoms: O1S_28  and  S1_32 
ROOT
ATOM      1  O2  IDS d 402      29.790 -65.388  71.783  0.00  0.00    -0.244 OA
ATOM      2  C5  IDS d 402      29.955 -68.818  69.433  0.00  0.00     0.152 C 
ATOM      3  C1  IDS d 402      30.370 -67.730  71.483  0.00  0.00     0.158 C 
ATOM      4  O5  IDS d 402      29.524 -68.675  70.799  0.00  0.00    -0.340 OA
ATOM      5  O61 IDS d 402      27.973 -69.998  68.751  0.00  0.00    -0.646 OA
ATOM      6  C3  IDS d 402      29.265 -66.419  69.652  0.00  0.00     0.094 C 
ATOM      7  O62 IDS d 402      29.977 -70.955  68.352  0.00  0.00    -0.646 OA
ATOM      8  O3S IDS d 402      28.833 -64.730  74.023  0.00  0.00    -0.572 OA
ATOM      9  O2S IDS d 402      31.241 -65.442  73.846  0.00  0.00    -0.572 OA
ATOM     10  C4  IDS d 402      29.648 -67.527  68.669  0.00  0.00     0.103 C 
ATOM     11  O1S IDS d 402      29.401 -67.125  73.552  0.00  0.00    -0.572 OA
ATOM     12  O3  IDS d 402      29.270 -65.156  68.974  0.00  0.00    -0.390 OA
ATOM     13  O1  IDS d 402      31.747 -68.171  71.445  0.00  0.00    -0.368 OA
ATOM     14  C2  IDS d 402      30.252 -66.362  70.820  0.00  0.00     0.134 C 
ATOM     15  C6  IDS d 402      29.239 -70.025  68.785  0.00  0.00     0.206 C 
ATOM     16  S   IDS d 402      29.817 -65.672  73.299  0.00  0.00     0.252 S 
ATOM     17  H   IDS d 402      31.009 -68.995  69.400  0.00  0.00     0.104 H 
ATOM     18  H   IDS d 402      30.057 -67.661  72.504  0.00  0.00     0.133 H 
ATOM     19  H   IDS d 402      28.289 -66.630  70.035  0.00  0.00     0.091 H 
ATOM     20  H   IDS d 402      30.518 -67.226  68.124  0.00  0.00     0.092 H 
ATOM     21  H   IDS d 402      30.160 -64.977  68.631  0.00  0.00     0.210 HD
ATOM     22  H   IDS d 402      32.040 -68.236  70.523  0.00  0.00     0.212 HD
ATOM     23  H   IDS d 402      31.217 -66.079  70.452  0.00  0.00     0.097 H 
ATOM     24  O4S SGN d 403      34.237 -67.932  64.674  0.00  0.00    -0.572 OA
ATOM     25  O5  SGN d 403      29.785 -67.502  65.730  0.00  0.00    -0.352 OA
ATOM     26  O3  SGN d 403      28.356 -67.050  63.488  0.00  0.00    -0.394 OA
ATOM     27  O3S SGN d 403      25.297 -65.388  65.686  0.00  0.00    -0.296 OA
ATOM     28  O1  SGN d 403      28.564 -67.757  67.745  0.00  0.00    -0.348 OA
ATOM     29  O6  SGN d 403      31.795 -68.467  64.601  0.00  0.00    -0.254 OA
ATOM     30  O5S SGN d 403      32.738 -67.116  66.492  0.00  0.00    -0.572 OA
ATOM     31  C2  SGN d 403      27.414 -67.053  65.730  0.00  0.00     0.079 C 
ATOM     32  C3  SGN d 403      27.616 -67.846  64.430  0.00  0.00     0.058 C 
ATOM     33  N   SGN d 403      26.322 -67.623  66.538  0.00  0.00    -0.210 NA
ATOM     34  O6S SGN d 403      33.274 -69.551  66.311  0.00  0.00    -0.572 OA
ATOM     35  C4  SGN d 403      28.357 -69.161  64.692  0.00  0.00    -0.013 C 
ATOM     36  C6  SGN d 403      30.835 -69.505  64.844  0.00  0.00     0.064 C 
ATOM     37  S2  SGN d 403      33.009 -68.268  65.520  0.00  0.00     0.251 S 
ATOM     38  O2S SGN d 403      25.041 -65.973  68.100  0.00  0.00    -0.296 OA
ATOM     39  C1  SGN d 403      28.712 -66.988  66.530  0.00  0.00     0.150 C 
ATOM     40  O1S SGN d 403      23.755 -67.232  66.369  0.00  0.00    -0.296 OA
ATOM     41  S1  SGN d 403      25.083 -66.535  66.677  0.00  0.00     0.156 S 
ATOM     42  C5  SGN d 403      29.602 -68.913  65.537  0.00  0.00     0.066 C 
ATOM     43  H   SGN d 403      27.883 -66.220  63.325  0.00  0.00     0.210 HD
ATOM     44  H   SGN d 403      26.138 -64.945  65.880  0.00  0.00     0.231 HD
ATOM     45  H   SGN d 403      27.135 -66.054  65.467  0.00  0.00     0.076 H 
ATOM     46  H   SGN d 403      26.653 -68.081  64.027  0.00  0.00     0.085 H 
ATOM     47  H   SGN d 403      26.675 -67.851  67.468  0.00  0.00     0.140 HD
ATOM     48  H   SGN d 403      28.646 -69.594  63.758  0.00  0.00     0.040 H 
ATOM     49  H   SGN d 403      27.706 -69.825  65.222  0.00  0.00     0.040 H 
ATOM     50  H   SGN d 403      31.272 -70.254  65.471  0.00  0.00     0.080 H 
ATOM     51  H   SGN d 403      30.544 -69.944  63.913  0.00  0.00     0.080 H 
ATOM     52  H   SGN d 403      25.881 -65.531  68.299  0.00  0.00     0.231 HD
ATOM     53  H   SGN d 403      28.935 -65.975  66.793  0.00  0.00     0.131 H 
ATOM     54  H   SGN d 403      23.779 -67.588  65.467  0.00  0.00     0.231 HD
ATOM     55  H   SGN d 403      29.476 -69.387  66.488  0.00  0.00     0.086 H 
ENDROOT
TORSDOF 16
ENDMDL
MODEL 3
REMARK VINA RESULT:      -4.1      2.763      6.903
REMARK  0 active torsions:
REMARK  status: ('A' for Active; 'I' for Inactive)
REMARK       I    between atoms: O2_1  and  C2_31 
REMARK       I    between atoms: O2_1  and  S_34 
REMARK       I    between atoms: C5_3  and  C6_33 
REMARK       I    between atoms: O3_5  and  C3_13 
REMARK       I    between atoms: O3S_6  and  S1_32 
REMARK       I    between atoms: O1_7  and  C4_23 
REMARK       I    between atoms: O1_7  and  C1_27 
REMARK       I    between atoms: O6_8  and  C6_21 
REMARK       I    between atoms: O6_8  and  S2_24 
REMARK       I    between atoms: C1_9  and  O1_30 
REMARK       I    between atoms: C2_12  and  N_14 
REMARK       I    between atoms: N_14  and  S1_32 
REMARK       I    between atoms: C3_16  and  O3_29 
REMARK       I    between atoms: C6_21  and  C5_35 
REMARK       I    between atoms: O2S_26  and  S1_32 
REMARK       I    between atoms: O1S_28  and  S1_32 
ROOT
ATOM      1  O2  IDS d 402      28.655 -66.469  71.368  0.00  0.00    -0.244 OA
ATOM      2  C5  IDS d 402      26.615 -67.014  67.783  0.00  0.00     0.152 C 
ATOM      3  C1  IDS d 402      26.666 -66.202  69.997  0.00  0.00     0.158 C 
ATOM      4  O5  IDS d 402      26.707 -65.834  68.604  0.00  0.00    -0.340 OA
ATOM      5  O61 IDS d 402      27.246 -65.869  65.765  0.00  0.00    -0.646 OA
ATOM      6  C3  IDS d 402      28.735 -67.292  69.089  0.00  0.00     0.094 C 
ATOM      7  O62 IDS d 402      25.313 -67.033  65.772  0.00  0.00    -0.646 OA
ATOM      8  O3S IDS d 402      29.276 -64.533  72.862  0.00  0.00    -0.572 OA
ATOM      9  O2S IDS d 402      27.199 -65.874  73.340  0.00  0.00    -0.572 OA
ATOM     10  C4  IDS d 402      27.905 -67.827  67.920  0.00  0.00     0.103 C 
ATOM     11  O1S IDS d 402      27.294 -64.361  71.338  0.00  0.00    -0.572 OA
ATOM     12  O3  IDS d 402      29.779 -68.224  69.400  0.00  0.00    -0.390 OA
ATOM     13  O1  IDS d 402      25.441 -66.912  70.292  0.00  0.00    -0.368 OA
ATOM     14  C2  IDS d 402      27.863 -67.087  70.329  0.00  0.00     0.134 C 
ATOM     15  C6  IDS d 402      26.374 -66.607  66.312  0.00  0.00     0.206 C 
ATOM     16  S   IDS d 402      28.106 -65.311  72.226  0.00  0.00     0.252 S 
ATOM     17  H   IDS d 402      25.792 -67.618  68.104  0.00  0.00     0.104 H 
ATOM     18  H   IDS d 402      26.703 -65.313  70.590  0.00  0.00     0.133 H 
ATOM     19  H   IDS d 402      29.154 -66.350  68.801  0.00  0.00     0.091 H 
ATOM     20  H   IDS d 402      27.656 -68.851  68.108  0.00  0.00     0.092 H 
ATOM     21  H   IDS d 402      29.387 -69.073  69.659  0.00  0.00     0.210 HD
ATOM     22  H   IDS d 402      25.400 -67.721  69.758  0.00  0.00     0.212 HD
ATOM     23  H   IDS d 402      27.501 -68.036  70.665  0.00  0.00     0.097 H 
ATOM     24  O4S SGN d 403      25.420 -73.311  66.952  0.00  0.00    -0.572 OA
ATOM     25  O5  SGN d 403      28.469 -70.001  66.020  0.00  0.00    -0.352 OA
ATOM     26  O3  SGN d 403      30.233 -70.878  64.178  0.00  0.00    -0.394 OA
ATOM     27  O3S SGN d 403      32.982 -68.048  65.355  0.00  0.00    -0.296 OA
ATOM     28  O1  SGN d 403      28.666 -67.739  66.699  0.00  0.00    -0.348 OA
ATOM     29  O6  SGN d 403      26.686 -71.683  65.536  0.00  0.00    -0.254 OA
ATOM     30  O5S SGN d 403      26.607 -71.399  68.027  0.00  0.00    -0.572 OA
ATOM     31  C2  SGN d 403      30.373 -68.715  65.280  0.00  0.00     0.079 C 
ATOM     32  C3  SGN d 403      29.956 -69.477  64.013  0.00  0.00     0.058 C 
ATOM     33  N   SGN d 403      30.520 -67.274  65.012  0.00  0.00    -0.210 NA
ATOM     34  O6S SGN d 403      24.555 -70.989  66.659  0.00  0.00    -0.572 OA
ATOM     35  C4  SGN d 403      28.468 -69.275  63.709  0.00  0.00    -0.013 C 
ATOM     36  C6  SGN d 403      26.535 -70.557  64.661  0.00  0.00     0.064 C 
ATOM     37  S2  SGN d 403      25.818 -71.843  66.792  0.00  0.00     0.251 S 
ATOM     38  O2S SGN d 403      32.211 -65.973  66.513  0.00  0.00    -0.296 OA
ATOM     39  C1  SGN d 403      29.378 -68.963  66.411  0.00  0.00     0.150 C 
ATOM     40  O1S SGN d 403      32.550 -65.968  64.039  0.00  0.00    -0.296 OA
ATOM     41  S1  SGN d 403      32.092 -66.807  65.235  0.00  0.00     0.156 S 
ATOM     42  C5  SGN d 403      27.629 -69.524  64.958  0.00  0.00     0.066 C 
ATOM     43  H   SGN d 403      31.176 -71.001  64.370  0.00  0.00     0.210 HD
ATOM     44  H   SGN d 403      32.693 -68.580  66.112  0.00  0.00     0.231 HD
ATOM     45  H   SGN d 403      31.328 -69.086  65.589  0.00  0.00     0.076 H 
ATOM     46  H   SGN d 403      30.519 -69.091  63.189  0.00  0.00     0.085 H 
ATOM     47  H   SGN d 403      29.920 -66.750  65.649  0.00  0.00     0.140 HD
ATOM     48  H   SGN d 403      28.170 -69.958  62.943  0.00  0.00     0.040 H 
ATOM     49  H   SGN d 403      28.315 -68.267  63.385  0.00  0.00     0.040 H 
ATOM     50  H   SGN d 403      25.574 -70.112  64.816  0.00  0.00     0.080 H 
ATOM     51  H   SGN d 403      26.619 -70.882  63.645  0.00  0.00     0.080 H 
ATOM     52  H   SGN d 403      31.921 -66.501  67.273  0.00  0.00     0.231 HD
ATOM     53  H   SGN d 403      29.893 -69.273  67.296  0.00  0.00     0.131 H 
ATOM     54  H   SGN d 403      32.476 -66.494  63.227  0.00  0.00     0.231 HD
ATOM     55  H   SGN d 403      27.169 -68.605  65.256  0.00  0.00     0.086 H 
ENDROOT
TORSDOF 16
ENDMDL
MODEL 4
REMARK VINA RESULT:      -4.1      2.349      7.205
REMARK  0 active torsions:
REMARK  status: ('A' for Active; 'I' for Inactive)
REMARK       I    between atoms: O2_1  and  C2_31 
REMARK       I    between atoms: O2_1  and  S_34 
REMARK       I    between atoms: C5_3  and  C6_33 
REMARK       I    between atoms: O3_5  and  C3_13 
REMARK       I    between atoms: O3S_6  and  S1_32 
REMARK       I    between atoms: O1_7  and  C4_23 
REMARK       I    between atoms: O1_7  and  C1_27 
REMARK       I    between atoms: O6_8  and  C6_21 
REMARK       I    between atoms: O6_8  and  S2_24 
REMARK       I    between atoms: C1_9  and  O1_30 
REMARK       I    between atoms: C2_12  and  N_14 
REMARK       I    between atoms: N_14  and  S1_32 
REMARK       I    between atoms: C3_16  and  O3_29 
REMARK       I    between atoms: C6_21  and  C5_35 
REMARK       I    between atoms: O2S_26  and  S1_32 
REMARK       I    between atoms: O1S_28  and  S1_32 
ROOT
ATOM      1  O2  IDS d 402      28.747 -64.323  71.973  0.00  0.00    -0.244 OA
ATOM      2  C5  IDS d 402      29.419 -67.910  69.974  0.00  0.00     0.152 C 
ATOM      3  C1  IDS d 402      29.591 -66.602  71.929  0.00  0.00     0.158 C 
ATOM      4  O5  IDS d 402      28.894 -67.694  71.297  0.00  0.00    -0.340 OA
ATOM      5  O61 IDS d 402      27.620 -69.362  69.311  0.00  0.00    -0.646 OA
ATOM      6  C3  IDS d 402      28.465 -65.594  69.927  0.00  0.00     0.094 C 
ATOM      7  O62 IDS d 402      29.735 -70.120  69.106  0.00  0.00    -0.646 OA
ATOM      8  O3S IDS d 402      27.592 -63.578  74.088  0.00  0.00    -0.572 OA
ATOM      9  O2S IDS d 402      30.069 -64.028  74.101  0.00  0.00    -0.572 OA
ATOM     10  C4  IDS d 402      29.022 -66.736  69.075  0.00  0.00     0.103 C 
ATOM     11  O1S IDS d 402      28.440 -65.926  73.879  0.00  0.00    -0.572 OA
ATOM     12  O3  IDS d 402      28.375 -64.404  69.132  0.00  0.00    -0.390 OA
ATOM     13  O1  IDS d 402      31.007 -66.888  72.002  0.00  0.00    -0.368 OA
ATOM     14  C2  IDS d 402      29.368 -65.321  71.132  0.00  0.00     0.134 C 
ATOM     15  C6  IDS d 402      28.877 -69.243  69.411  0.00  0.00     0.206 C 
ATOM     16  S   IDS d 402      28.713 -64.465  73.509  0.00  0.00     0.252 S 
ATOM     17  H   IDS d 402      30.486 -67.970  70.011  0.00  0.00     0.104 H 
ATOM     18  H   IDS d 402      29.211 -66.477  72.921  0.00  0.00     0.133 H 
ATOM     19  H   IDS d 402      27.495 -65.878  70.280  0.00  0.00     0.091 H 
ATOM     20  H   IDS d 402      29.886 -66.389  68.548  0.00  0.00     0.092 H 
ATOM     21  H   IDS d 402      29.259 -64.158  68.819  0.00  0.00     0.210 HD
ATOM     22  H   IDS d 402      31.360 -67.002  71.106  0.00  0.00     0.212 HD
ATOM     23  H   IDS d 402      30.317 -64.966  70.787  0.00  0.00     0.097 H 
ATOM     24  O4S SGN d 403      33.860 -66.981  65.372  0.00  0.00    -0.572 OA
ATOM     25  O5  SGN d 403      29.332 -66.960  66.158  0.00  0.00    -0.352 OA
ATOM     26  O3  SGN d 403      28.000 -66.875  63.815  0.00  0.00    -0.394 OA
ATOM     27  O3S SGN d 403      24.654 -65.375  65.688  0.00  0.00    -0.296 OA
ATOM     28  O1  SGN d 403      28.026 -67.168  68.125  0.00  0.00    -0.348 OA
ATOM     29  O6  SGN d 403      31.497 -67.791  65.229  0.00  0.00    -0.254 OA
ATOM     30  O5S SGN d 403      32.175 -66.178  67.026  0.00  0.00    -0.572 OA
ATOM     31  C2  SGN d 403      26.931 -66.782  65.997  0.00  0.00     0.079 C 
ATOM     32  C3  SGN d 403      27.294 -67.661  64.791  0.00  0.00     0.058 C 
ATOM     33  N   SGN d 403      25.860 -67.396  66.801  0.00  0.00    -0.210 NA
ATOM     34  O6S SGN d 403      32.979 -68.544  67.106  0.00  0.00    -0.572 OA
ATOM     35  C4  SGN d 403      28.154 -68.855  65.215  0.00  0.00    -0.013 C 
ATOM     36  C6  SGN d 403      30.642 -68.904  65.522  0.00  0.00     0.064 C 
ATOM     37  S2  SGN d 403      32.626 -67.375  66.183  0.00  0.00     0.251 S 
ATOM     38  O2S SGN d 403      24.317 -65.766  68.131  0.00  0.00    -0.296 OA
ATOM     39  C1  SGN d 403      28.164 -66.500  66.851  0.00  0.00     0.150 C 
ATOM     40  O1S SGN d 403      23.280 -67.311  66.467  0.00  0.00    -0.296 OA
ATOM     41  S1  SGN d 403      24.505 -66.446  66.772  0.00  0.00     0.156 S 
ATOM     42  C5  SGN d 403      29.313 -68.394  66.093  0.00  0.00     0.066 C 
ATOM     43  H   SGN d 403      27.452 -66.121  63.549  0.00  0.00     0.210 HD
ATOM     44  H   SGN d 403      25.430 -64.826  65.880  0.00  0.00     0.231 HD
ATOM     45  H   SGN d 403      26.562 -65.848  65.626  0.00  0.00     0.076 H 
ATOM     46  H   SGN d 403      26.388 -68.037  64.365  0.00  0.00     0.085 H 
ATOM     47  H   SGN d 403      26.179 -67.498  67.764  0.00  0.00     0.140 HD
ATOM     48  H   SGN d 403      28.544 -69.336  64.342  0.00  0.00     0.040 H 
ATOM     49  H   SGN d 403      27.548 -69.538  65.772  0.00  0.00     0.040 H 
ATOM     50  H   SGN d 403      31.118 -69.539  66.240  0.00  0.00     0.080 H 
ATOM     51  H   SGN d 403      30.455 -69.455  64.625  0.00  0.00     0.080 H 
ATOM     52  H   SGN d 403      25.092 -65.217  68.329  0.00  0.00     0.231 HD
ATOM     53  H   SGN d 403      28.261 -65.449  67.026  0.00  0.00     0.131 H 
ATOM     54  H   SGN d 403      23.396 -67.743  65.605  0.00  0.00     0.231 HD
ATOM     55  H   SGN d 403      29.182 -68.792  67.078  0.00  0.00     0.086 H 
ENDROOT
TORSDOF 16
ENDMDL
MODEL 5
REMARK VINA RESULT:      -4.1      3.314      6.835
REMARK  0 active torsions:
REMARK  status: ('A' for Active; 'I' for Inactive)
REMARK       I    between atoms: O2_1  and  C2_31 
REMARK       I    between atoms: O2_1  and  S_34 
REMARK       I    between atoms: C5_3  and  C6_33 
REMARK       I    between atoms: O3_5  and  C3_13 
REMARK       I    between atoms: O3S_6  and  S1_32 
REMARK       I    between atoms: O1_7  and  C4_23 
REMARK       I    between atoms: O1_7  and  C1_27 
REMARK       I    between atoms: O6_8  and  C6_21 
REMARK       I    between atoms: O6_8  and  S2_24 
REMARK       I    between atoms: C1_9  and  O1_30 
REMARK       I    between atoms: C2_12  and  N_14 
REMARK       I    between atoms: N_14  and  S1_32 
REMARK       I    between atoms: C3_16  and  O3_29 
REMARK       I    between atoms: C6_21  and  C5_35 
REMARK       I    between atoms: O2S_26  and  S1_32 
REMARK       I    between atoms: O1S_28  and  S1_32 
ROOT
ATOM      1  O2  IDS d 402      28.770 -65.946  72.776  0.00  0.00    -0.244 OA
ATOM      2  C5  IDS d 402      27.313 -68.789  70.109  0.00  0.00     0.152 C 
ATOM      3  C1  IDS d 402      28.684 -68.229  71.944  0.00  0.00     0.158 C 
ATOM      4  O5  IDS d 402      27.464 -68.880  71.537  0.00  0.00    -0.340 OA
ATOM      5  O61 IDS d 402      25.018 -69.508  70.131  0.00  0.00    -0.646 OA
ATOM      6  C3  IDS d 402      27.282 -66.418  70.919  0.00  0.00     0.094 C 
ATOM      7  O62 IDS d 402      26.476 -70.630  68.825  0.00  0.00    -0.646 OA
ATOM      8  O3S IDS d 402      28.880 -65.650  75.278  0.00  0.00    -0.572 OA
ATOM      9  O2S IDS d 402      30.838 -66.639  74.043  0.00  0.00    -0.572 OA
ATOM     10  C4  IDS d 402      27.025 -67.335  69.722  0.00  0.00     0.103 C 
ATOM     11  O1S IDS d 402      28.708 -67.946  74.290  0.00  0.00    -0.572 OA
ATOM     12  O3  IDS d 402      27.303 -65.054  70.481  0.00  0.00    -0.390 OA
ATOM     13  O1  IDS d 402      29.820 -68.840  71.289  0.00  0.00    -0.368 OA
ATOM     14  C2  IDS d 402      28.621 -66.749  71.582  0.00  0.00     0.134 C 
ATOM     15  C6  IDS d 402      26.169 -69.719  69.646  0.00  0.00     0.206 C 
ATOM     16  S   IDS d 402      29.299 -66.546  74.094  0.00  0.00     0.252 S 
ATOM     17  H   IDS d 402      28.216 -69.101  69.626  0.00  0.00     0.104 H 
ATOM     18  H   IDS d 402      28.796 -68.335  73.002  0.00  0.00     0.133 H 
ATOM     19  H   IDS d 402      26.498 -66.567  71.632  0.00  0.00     0.091 H 
ATOM     20  H   IDS d 402      27.673 -67.050  68.918  0.00  0.00     0.092 H 
ATOM     21  H   IDS d 402      28.017 -64.932  69.835  0.00  0.00     0.210 HD
ATOM     22  H   IDS d 402      29.727 -68.749  70.328  0.00  0.00     0.212 HD
ATOM     23  H   IDS d 402      29.415 -66.532  70.898  0.00  0.00     0.097 H 
ATOM     24  O4S SGN d 403      29.596 -67.524  64.196  0.00  0.00    -0.572 OA
ATOM     25  O5  SGN d 403      26.060 -66.708  67.014  0.00  0.00    -0.352 OA
ATOM     26  O3  SGN d 403      24.029 -65.595  65.632  0.00  0.00    -0.394 OA
ATOM     27  O3S SGN d 403      22.439 -64.023  69.089  0.00  0.00    -0.296 OA
ATOM     28  O1  SGN d 403      25.654 -67.210  69.295  0.00  0.00    -0.348 OA
ATOM     29  O6  SGN d 403      27.249 -67.683  65.046  0.00  0.00    -0.254 OA
ATOM     30  O5S SGN d 403      29.093 -66.910  66.560  0.00  0.00    -0.572 OA
ATOM     31  C2  SGN d 403      24.013 -65.941  68.039  0.00  0.00     0.079 C 
ATOM     32  C3  SGN d 403      23.542 -66.461  66.672  0.00  0.00     0.058 C 
ATOM     33  N   SGN d 403      23.207 -66.510  69.132  0.00  0.00    -0.210 NA
ATOM     34  O6S SGN d 403      28.992 -69.302  65.839  0.00  0.00    -0.572 OA
ATOM     35  C4  SGN d 403      24.030 -67.892  66.426  0.00  0.00    -0.013 C 
ATOM     36  C6  SGN d 403      26.252 -68.604  65.510  0.00  0.00     0.064 C 
ATOM     37  S2  SGN d 403      28.730 -67.856  65.411  0.00  0.00     0.251 S 
ATOM     38  O2S SGN d 403      22.983 -65.066  71.293  0.00  0.00    -0.296 OA
ATOM     39  C1  SGN d 403      25.498 -66.230  68.244  0.00  0.00     0.150 C 
ATOM     40  O1S SGN d 403      20.909 -65.735  70.075  0.00  0.00    -0.296 OA
ATOM     41  S1  SGN d 403      22.371 -65.314  69.911  0.00  0.00     0.156 S 
ATOM     42  C5  SGN d 403      25.523 -68.006  66.718  0.00  0.00     0.066 C 
ATOM     43  H   SGN d 403      23.718 -64.691  65.792  0.00  0.00     0.210 HD
ATOM     44  H   SGN d 403      23.365 -63.755  68.985  0.00  0.00     0.231 HD
ATOM     45  H   SGN d 403      23.876 -64.880  68.054  0.00  0.00     0.076 H 
ATOM     46  H   SGN d 403      22.473 -66.467  66.666  0.00  0.00     0.085 H 
ATOM     47  H   SGN d 403      23.824 -66.977  69.797  0.00  0.00     0.140 HD
ATOM     48  H   SGN d 403      23.851 -68.154  65.404  0.00  0.00     0.040 H 
ATOM     49  H   SGN d 403      23.498 -68.555  67.076  0.00  0.00     0.040 H 
ATOM     50  H   SGN d 403      26.722 -69.523  65.795  0.00  0.00     0.080 H 
ATOM     51  H   SGN d 403      25.548 -68.791  64.726  0.00  0.00     0.080 H 
ATOM     52  H   SGN d 403      23.910 -64.798  71.193  0.00  0.00     0.231 HD
ATOM     53  H   SGN d 403      26.013 -65.337  68.532  0.00  0.00     0.131 H 
ATOM     54  H   SGN d 403      20.518 -65.893  69.201  0.00  0.00     0.231 HD
ATOM     55  H   SGN d 403      25.663 -68.648  67.563  0.00  0.00     0.086 H 
ENDROOT
TORSDOF 16
ENDMDL
MODEL 6
REMARK VINA RESULT:      -4.0      1.309      1.485
REMARK  0 active torsions:
REMARK  status: ('A' for Active; 'I' for Inactive)
REMARK       I    between atoms: O2_1  and  C2_31 
REMARK       I    between atoms: O2_1  and  S_34 
REMARK       I    between atoms: C5_3  and  C6_33 
REMARK       I    between atoms: O3_5  and  C3_13 
REMARK       I    between atoms: O3S_6  and  S1_32 
REMARK       I    between atoms: O1_7  and  C4_23 
REMARK       I    between atoms: O1_7  and  C1_27 
REMARK       I    between atoms: O6_8  and  C6_21 
REMARK       I    between atoms: O6_8  and  S2_24 
REMARK       I    between atoms: C1_9  and  O1_30 
REMARK       I    between atoms: C2_12  and  N_14 
REMARK       I    between atoms: N_14  and  S1_32 
REMARK       I    between atoms: C3_16  and  O3_29 
REMARK       I    between atoms: C6_21  and  C5_35 
REMARK       I    between atoms: O2S_26  and  S1_32 
REMARK       I    between atoms: O1S_28  and  S1_32 
ROOT
ATOM      1  O2  IDS d 402      32.862 -66.587  66.754  0.00  0.00    -0.244 OA
ATOM      2  C5  IDS d 402      29.407 -68.610  67.887  0.00  0.00     0.152 C 
ATOM      3  C1  IDS d 402      31.362 -68.492  66.574  0.00  0.00     0.158 C 
ATOM      4  O5  IDS d 402      30.741 -69.122  67.711  0.00  0.00    -0.340 OA
ATOM      5  O61 IDS d 402      29.143 -69.564  70.079  0.00  0.00    -0.646 OA
ATOM      6  C3  IDS d 402      30.911 -66.630  68.194  0.00  0.00     0.094 C 
ATOM      7  O62 IDS d 402      27.594 -70.046  68.511  0.00  0.00    -0.646 OA
ATOM      8  O3S IDS d 402      35.335 -67.073  66.653  0.00  0.00    -0.572 OA
ATOM      9  O2S IDS d 402      33.908 -67.392  64.604  0.00  0.00    -0.572 OA
ATOM     10  C4  IDS d 402      29.482 -67.153  68.351  0.00  0.00     0.103 C 
ATOM     11  O1S IDS d 402      33.680 -68.952  66.559  0.00  0.00    -0.572 OA
ATOM     12  O3  IDS d 402      30.918 -65.204  68.342  0.00  0.00    -0.390 OA
ATOM     13  O1  IDS d 402      30.581 -68.732  65.380  0.00  0.00    -0.368 OA
ATOM     14  C2  IDS d 402      31.475 -66.990  66.818  0.00  0.00     0.134 C 
ATOM     15  C6  IDS d 402      28.648 -69.477  68.916  0.00  0.00     0.206 C 
ATOM     16  S   IDS d 402      33.944 -67.501  66.143  0.00  0.00     0.252 S 
ATOM     17  H   IDS d 402      28.877 -68.648  66.958  0.00  0.00     0.104 H 
ATOM     18  H   IDS d 402      32.338 -68.907  66.439  0.00  0.00     0.133 H 
ATOM     19  H   IDS d 402      31.521 -67.083  68.947  0.00  0.00     0.091 H 
ATOM     20  H   IDS d 402      28.824 -66.558  67.751  0.00  0.00     0.092 H 
ATOM     21  H   IDS d 402      30.361 -64.805  67.654  0.00  0.00     0.210 HD
ATOM     22  H   IDS d 402      29.694 -68.358  65.494  0.00  0.00     0.212 HD
ATOM     23  H   IDS d 402      30.914 -66.480  66.063  0.00  0.00     0.097 H 
ATOM     24  O4S SGN d 403      24.242 -65.311  65.835  0.00  0.00    -0.572 OA
ATOM     25  O5  SGN d 403      27.077 -65.832  69.414  0.00  0.00    -0.352 OA
ATOM     26  O3  SGN d 403      26.052 -64.591  71.578  0.00  0.00    -0.394 OA
ATOM     27  O3S SGN d 403      29.782 -64.370  73.308  0.00  0.00    -0.296 OA
ATOM     28  O1  SGN d 403      29.078 -67.062  69.733  0.00  0.00    -0.348 OA
ATOM     29  O6  SGN d 403      24.936 -66.001  68.137  0.00  0.00    -0.254 OA
ATOM     30  O5S SGN d 403      26.665 -65.526  66.383  0.00  0.00    -0.572 OA
ATOM     31  C2  SGN d 403      28.233 -65.667  71.527  0.00  0.00     0.079 C 
ATOM     32  C3  SGN d 403      26.760 -65.788  71.946  0.00  0.00     0.058 C 
ATOM     33  N   SGN d 403      29.074 -66.639  72.247  0.00  0.00    -0.210 NA
ATOM     34  O6S SGN d 403      25.236 -67.569  66.204  0.00  0.00    -0.572 OA
ATOM     35  C4  SGN d 403      26.096 -67.004  71.293  0.00  0.00    -0.013 C 
ATOM     36  C6  SGN d 403      25.065 -67.131  69.011  0.00  0.00     0.064 C 
ATOM     37  S2  SGN d 403      25.270 -66.103  66.642  0.00  0.00     0.251 S 
ATOM     38  O2S SGN d 403      31.568 -65.975  72.620  0.00  0.00    -0.296 OA
ATOM     39  C1  SGN d 403      28.379 -65.830  70.016  0.00  0.00     0.150 C 
ATOM     40  O1S SGN d 403      30.147 -66.471  74.612  0.00  0.00    -0.296 OA
ATOM     41  S1  SGN d 403      30.162 -65.851  73.212  0.00  0.00     0.156 S 
ATOM     42  C5  SGN d 403      26.379 -67.027  69.795  0.00  0.00     0.066 C 
ATOM     43  H   SGN d 403      26.476 -63.825  71.994  0.00  0.00     0.210 HD
ATOM     44  H   SGN d 403      29.792 -63.976  72.423  0.00  0.00     0.231 HD
ATOM     45  H   SGN d 403      28.572 -64.687  71.790  0.00  0.00     0.076 H 
ATOM     46  H   SGN d 403      26.723 -65.918  73.007  0.00  0.00     0.085 H 
ATOM     47  H   SGN d 403      29.577 -67.214  71.571  0.00  0.00     0.140 HD
ATOM     48  H   SGN d 403      25.039 -66.955  71.451  0.00  0.00     0.040 H 
ATOM     49  H   SGN d 403      26.493 -67.894  71.735  0.00  0.00     0.040 H 
ATOM     50  H   SGN d 403      25.064 -68.030  68.432  0.00  0.00     0.080 H 
ATOM     51  H   SGN d 403      24.243 -67.146  69.696  0.00  0.00     0.080 H 
ATOM     52  H   SGN d 403      31.582 -65.583  71.733  0.00  0.00     0.231 HD
ATOM     53  H   SGN d 403      28.943 -65.016  69.609  0.00  0.00     0.131 H 
ATOM     54  H   SGN d 403      29.257 -66.394  74.990  0.00  0.00     0.231 HD
ATOM     55  H   SGN d 403      26.986 -67.879  69.570  0.00  0.00     0.086 H 
ENDROOT
TORSDOF 16
ENDMDL
MODEL 7
REMARK VINA RESULT:      -4.0      2.756      5.851
REMARK  0 active torsions:
REMARK  status: ('A' for Active; 'I' for Inactive)
REMARK       I    between atoms: O2_1  and  C2_31 
REMARK       I    between atoms: O2_1  and  S_34 
REMARK       I    between atoms: C5_3  and  C6_33 
REMARK       I    between atoms: O3_5  and  C3_13 
REMARK       I    between atoms: O3S_6  and  S1_32 
REMARK       I    between atoms: O1_7  and  C4_23 
REMARK       I    between atoms: O1_7  and  C1_27 
REMARK       I    between atoms: O6_8  and  C6_21 
REMARK       I    between atoms: O6_8  and  S2_24 
REMARK       I    between atoms: C1_9  and  O1_30 
REMARK       I    between atoms: C2_12  and  N_14 
REMARK       I    between atoms: N_14  and  S1_32 
REMARK       I    between atoms: C3_16  and  O3_29 
REMARK       I    between atoms: C6_21  and  C5_35 
REMARK       I    between atoms: O2S_26  and  S1_32 
REMARK       I    between atoms: O1S_28  and  S1_32 
ROOT
ATOM      1  O2  IDS d 402      30.104 -68.227  65.488  0.00  0.00    -0.244 OA
ATOM      2  C5  IDS d 402      29.034 -66.901  69.284  0.00  0.00     0.152 C 
ATOM      3  C1  IDS d 402      30.679 -67.218  67.624  0.00  0.00     0.158 C 
ATOM      4  O5  IDS d 402      29.847 -66.248  68.292  0.00  0.00    -0.340 OA
ATOM      5  O61 IDS d 402      27.607 -64.995  69.619  0.00  0.00    -0.646 OA
ATOM      6  C3  IDS d 402      28.322 -67.898  67.099  0.00  0.00     0.094 C 
ATOM      7  O62 IDS d 402      28.627 -65.894  71.419  0.00  0.00    -0.646 OA
ATOM      8  O3S IDS d 402      31.207 -67.255  63.438  0.00  0.00    -0.572 OA
ATOM      9  O2S IDS d 402      32.583 -68.520  65.124  0.00  0.00    -0.572 OA
ATOM     10  C4  IDS d 402      27.985 -67.770  68.586  0.00  0.00     0.103 C 
ATOM     11  O1S IDS d 402      31.649 -66.260  65.694  0.00  0.00    -0.572 OA
ATOM     12  O3  IDS d 402      27.524 -68.937  66.516  0.00  0.00    -0.390 OA
ATOM     13  O1  IDS d 402      31.522 -67.898  68.581  0.00  0.00    -0.368 OA
ATOM     14  C2  IDS d 402      29.801 -68.235  66.902  0.00  0.00     0.134 C 
ATOM     15  C6  IDS d 402      28.360 -65.841  70.185  0.00  0.00     0.206 C 
ATOM     16  S   IDS d 402      31.385 -67.566  64.938  0.00  0.00     0.252 S 
ATOM     17  H   IDS d 402      29.644 -67.527  69.901  0.00  0.00     0.104 H 
ATOM     18  H   IDS d 402      31.298 -66.711  66.915  0.00  0.00     0.133 H 
ATOM     19  H   IDS d 402      28.114 -66.961  66.625  0.00  0.00     0.091 H 
ATOM     20  H   IDS d 402      27.984 -68.745  69.029  0.00  0.00     0.092 H 
ATOM     21  H   IDS d 402      27.721 -69.780  66.954  0.00  0.00     0.210 HD
ATOM     22  H   IDS d 402      30.968 -68.361  69.229  0.00  0.00     0.212 HD
ATOM     23  H   IDS d 402      29.998 -69.204  67.310  0.00  0.00     0.097 H 
ATOM     24  O4S SGN d 403      27.500 -71.991  72.960  0.00  0.00    -0.572 OA
ATOM     25  O5  SGN d 403      25.718 -68.844  70.125  0.00  0.00    -0.352 OA
ATOM     26  O3  SGN d 403      23.027 -68.881  70.296  0.00  0.00    -0.394 OA
ATOM     27  O3S SGN d 403      22.693 -67.117  66.591  0.00  0.00    -0.296 OA
ATOM     28  O1  SGN d 403      26.680 -67.176  68.743  0.00  0.00    -0.348 OA
ATOM     29  O6  SGN d 403      26.162 -69.982  72.304  0.00  0.00    -0.254 OA
ATOM     30  O5S SGN d 403      27.926 -70.885  70.767  0.00  0.00    -0.572 OA
ATOM     31  C2  SGN d 403      24.277 -67.494  68.738  0.00  0.00     0.079 C 
ATOM     32  C3  SGN d 403      23.520 -67.548  70.074  0.00  0.00     0.058 C 
ATOM     33  N   SGN d 403      24.416 -66.107  68.261  0.00  0.00    -0.210 NA
ATOM     34  O6S SGN d 403      28.589 -69.747  72.892  0.00  0.00    -0.572 OA
ATOM     35  C4  SGN d 403      24.421 -67.128  71.239  0.00  0.00    -0.013 C 
ATOM     36  C6  SGN d 403      26.024 -68.571  72.518  0.00  0.00     0.064 C 
ATOM     37  S2  SGN d 403      27.543 -70.648  72.231  0.00  0.00     0.251 S 
ATOM     38  O2S SGN d 403      24.590 -65.772  65.679  0.00  0.00    -0.296 OA
ATOM     39  C1  SGN d 403      25.639 -68.171  68.861  0.00  0.00     0.150 C 
ATOM     40  O1S SGN d 403      22.740 -64.640  66.915  0.00  0.00    -0.296 OA
ATOM     41  S1  SGN d 403      23.597 -65.906  66.837  0.00  0.00     0.156 S 
ATOM     42  C5  SGN d 403      25.752 -67.872  71.181  0.00  0.00     0.066 C 
ATOM     43  H   SGN d 403      22.457 -69.143  69.557  0.00  0.00     0.210 HD
ATOM     44  H   SGN d 403      23.236 -67.920  66.541  0.00  0.00     0.231 HD
ATOM     45  H   SGN d 403      23.703 -68.030  68.011  0.00  0.00     0.076 H 
ATOM     46  H   SGN d 403      22.700 -66.863  70.023  0.00  0.00     0.085 H 
ATOM     47  H   SGN d 403      25.404 -65.900  68.113  0.00  0.00     0.140 HD
ATOM     48  H   SGN d 403      23.932 -67.354  72.162  0.00  0.00     0.040 H 
ATOM     49  H   SGN d 403      24.609 -66.077  71.169  0.00  0.00     0.040 H 
ATOM     50  H   SGN d 403      26.926 -68.185  72.945  0.00  0.00     0.080 H 
ATOM     51  H   SGN d 403      25.207 -68.391  73.186  0.00  0.00     0.080 H 
ATOM     52  H   SGN d 403      25.136 -66.572  65.627  0.00  0.00     0.231 HD
ATOM     53  H   SGN d 403      25.766 -68.892  68.080  0.00  0.00     0.131 H 
ATOM     54  H   SGN d 403      22.109 -64.722  67.648  0.00  0.00     0.231 HD
ATOM     55  H   SGN d 403      26.535 -67.168  70.990  0.00  0.00     0.086 H 
ENDROOT
TORSDOF 16
ENDMDL
MODEL 8
REMARK VINA RESULT:      -4.0      2.362      7.050
REMARK  0 active torsions:
REMARK  status: ('A' for Active; 'I' for Inactive)
REMARK       I    between atoms: O2_1  and  C2_31 
REMARK       I    between atoms: O2_1  and  S_34 
REMARK       I    between atoms: C5_3  and  C6_33 
REMARK       I    between atoms: O3_5  and  C3_13 
REMARK       I    between atoms: O3S_6  and  S1_32 
REMARK       I    between atoms: O1_7  and  C4_23 
REMARK       I    between atoms: O1_7  and  C1_27 
REMARK       I    between atoms: O6_8  and  C6_21 
REMARK       I    between atoms: O6_8  and  S2_24 
REMARK       I    between atoms: C1_9  and  O1_30 
REMARK       I    between atoms: C2_12  and  N_14 
REMARK       I    between atoms: N_14  and  S1_32 
REMARK       I    between atoms: C3_16  and  O3_29 
REMARK       I    between atoms: C6_21  and  C5_35 
REMARK       I    between atoms: O2S_26  and  S1_32 
REMARK       I    between atoms: O1S_28  and  S1_32 
ROOT
ATOM      1  O2  IDS d 402      29.215 -65.415  71.788  0.00  0.00    -0.244 OA
ATOM      2  C5  IDS d 402      30.813 -68.232  69.177  0.00  0.00     0.152 C 
ATOM      3  C1  IDS d 402      30.801 -67.188  71.291  0.00  0.00     0.158 C 
ATOM      4  O5  IDS d 402      30.453 -68.382  70.563  0.00  0.00    -0.340 OA
ATOM      5  O61 IDS d 402      29.573 -70.167  68.467  0.00  0.00    -0.646 OA
ATOM      6  C3  IDS d 402      29.099 -66.455  69.601  0.00  0.00     0.094 C 
ATOM      7  O62 IDS d 402      31.762 -70.046  67.934  0.00  0.00    -0.646 OA
ATOM      8  O3S IDS d 402      28.205 -65.405  74.100  0.00  0.00    -0.572 OA
ATOM      9  O2S IDS d 402      30.651 -64.890  73.795  0.00  0.00    -0.572 OA
ATOM     10  C4  IDS d 402      29.891 -67.199  68.524  0.00  0.00     0.103 C 
ATOM     11  O1S IDS d 402      29.795 -67.223  73.429  0.00  0.00    -0.572 OA
ATOM     12  O3  IDS d 402      28.470 -65.303  69.023  0.00  0.00    -0.390 OA
ATOM     13  O1  IDS d 402      32.219 -66.927  71.177  0.00  0.00    -0.368 OA
ATOM     14  C2  IDS d 402      30.016 -66.003  70.739  0.00  0.00     0.134 C 
ATOM     15  C6  IDS d 402      30.705 -69.597  68.460  0.00  0.00     0.206 C 
ATOM     16  S   IDS d 402      29.467 -65.733  73.276  0.00  0.00     0.252 S 
ATOM     17  H   IDS d 402      31.824 -67.890  69.098  0.00  0.00     0.104 H 
ATOM     18  H   IDS d 402      30.557 -67.330  72.323  0.00  0.00     0.133 H 
ATOM     19  H   IDS d 402      28.360 -67.121  69.996  0.00  0.00     0.091 H 
ATOM     20  H   IDS d 402      30.484 -66.494  67.977  0.00  0.00     0.092 H 
ATOM     21  H   IDS d 402      29.149 -64.709  68.668  0.00  0.00     0.210 HD
ATOM     22  H   IDS d 402      32.449 -66.797  70.244  0.00  0.00     0.212 HD
ATOM     23  H   IDS d 402      30.711 -65.281  70.364  0.00  0.00     0.097 H 
ATOM     24  O4S SGN d 403      33.875 -65.182  64.371  0.00  0.00    -0.572 OA
ATOM     25  O5  SGN d 403      29.815 -66.954  65.593  0.00  0.00    -0.352 OA
ATOM     26  O3  SGN d 403      28.201 -67.108  63.438  0.00  0.00    -0.394 OA
ATOM     27  O3S SGN d 403      24.866 -67.199  65.850  0.00  0.00    -0.296 OA
ATOM     28  O1  SGN d 403      28.984 -67.861  67.619  0.00  0.00    -0.348 OA
ATOM     29  O6  SGN d 403      31.966 -66.798  64.332  0.00  0.00    -0.254 OA
ATOM     30  O5S SGN d 403      32.287 -65.266  66.292  0.00  0.00    -0.572 OA
ATOM     31  C2  SGN d 403      27.513 -67.673  65.701  0.00  0.00     0.079 C 
ATOM     32  C3  SGN d 403      27.979 -68.207  64.337  0.00  0.00     0.058 C 
ATOM     33  N   SGN d 403      26.868 -68.732  66.495  0.00  0.00    -0.210 NA
ATOM     34  O6S SGN d 403      33.886 -67.149  65.907  0.00  0.00    -0.572 OA
ATOM     35  C4  SGN d 403      29.264 -69.031  64.475  0.00  0.00    -0.013 C 
ATOM     36  C6  SGN d 403      31.620 -68.177  64.523  0.00  0.00     0.064 C 
ATOM     37  S2  SGN d 403      33.002 -66.101  65.226  0.00  0.00     0.251 S 
ATOM     38  O2S SGN d 403      25.066 -67.966  68.219  0.00  0.00    -0.296 OA
ATOM     39  C1  SGN d 403      28.679 -67.049  66.463  0.00  0.00     0.150 C 
ATOM     40  O1S SGN d 403      24.410 -69.585  66.435  0.00  0.00    -0.296 OA
ATOM     41  S1  SGN d 403      25.276 -68.364  66.755  0.00  0.00     0.156 S 
ATOM     42  C5  SGN d 403      30.300 -68.272  65.298  0.00  0.00     0.066 C 
ATOM     43  H   SGN d 403      27.386 -66.590  63.354  0.00  0.00     0.210 HD
ATOM     44  H   SGN d 403      25.413 -66.425  66.052  0.00  0.00     0.231 HD
ATOM     45  H   SGN d 403      26.784 -66.910  65.524  0.00  0.00     0.076 H 
ATOM     46  H   SGN d 403      27.215 -68.845  63.948  0.00  0.00     0.085 H 
ATOM     47  H   SGN d 403      27.345 -68.817  67.393  0.00  0.00     0.140 HD
ATOM     48  H   SGN d 403      29.662 -69.227  63.502  0.00  0.00     0.040 H 
ATOM     49  H   SGN d 403      29.033 -69.951  64.971  0.00  0.00     0.040 H 
ATOM     50  H   SGN d 403      32.395 -68.664  65.078  0.00  0.00     0.080 H 
ATOM     51  H   SGN d 403      31.509 -68.651  63.571  0.00  0.00     0.080 H 
ATOM     52  H   SGN d 403      25.613 -67.192  68.425  0.00  0.00     0.231 HD
ATOM     53  H   SGN d 403      28.419 -66.065  66.796  0.00  0.00     0.131 H 
ATOM     54  H   SGN d 403      24.540 -69.840  65.508  0.00  0.00     0.231 HD
ATOM     55  H   SGN d 403      30.471 -68.800  66.213  0.00  0.00     0.086 H 
ENDROOT
TORSDOF 16
ENDMDL
MODEL 9
REMARK VINA RESULT:      -4.0      4.076      8.562
REMARK  0 active torsions:
REMARK  status: ('A' for Active; 'I' for Inactive)
REMARK       I    between atoms: O2_1  and  C2_31 
REMARK       I    between atoms: O2_1  and  S_34 
REMARK       I    between atoms: C5_3  and  C6_33 
REMARK       I    between atoms: O3_5  and  C3_13 
REMARK       I    between atoms: O3S_6  and  S1_32 
REMARK       I    between atoms: O1_7  and  C4_23 
REMARK       I    between atoms: O1_7  and  C1_27 
REMARK       I    between atoms: O6_8  and  C6_21 
REMARK       I    between atoms: O6_8  and  S2_24 
REMARK       I    between atoms: C1_9  and  O1_30 
REMARK       I    between atoms: C2_12  and  N_14 
REMARK       I    between atoms: N_14  and  S1_32 
REMARK       I    between atoms: C3_16  and  O3_29 
REMARK       I    between atoms: C6_21  and  C5_35 
REMARK       I    between atoms: O2S_26  and  S1_32 
REMARK       I    between atoms: O1S_28  and  S1_32 
ROOT
ATOM      1  O2  IDS d 402      23.368 -64.753  71.197  0.00  0.00    -0.244 OA
ATOM      2  C5  IDS d 402      22.786 -66.687  67.559  0.00  0.00     0.152 C 
ATOM      3  C1  IDS d 402      22.091 -65.099  69.157  0.00  0.00     0.158 C 
ATOM      4  O5  IDS d 402      22.698 -65.283  67.863  0.00  0.00    -0.340 OA
ATOM      5  O61 IDS d 402      24.262 -66.365  65.687  0.00  0.00    -0.646 OA
ATOM      6  C3  IDS d 402      24.208 -66.372  69.597  0.00  0.00     0.094 C 
ATOM      7  O62 IDS d 402      22.349 -67.513  65.353  0.00  0.00    -0.646 OA
ATOM      8  O3S IDS d 402      23.599 -62.375  72.006  0.00  0.00    -0.572 OA
ATOM      9  O2S IDS d 402      21.355 -63.514  72.076  0.00  0.00    -0.572 OA
ATOM     10  C4  IDS d 402      23.824 -67.339  68.476  0.00  0.00     0.103 C 
ATOM     11  O1S IDS d 402      22.375 -62.866  69.875  0.00  0.00    -0.572 OA
ATOM     12  O3  IDS d 402      24.940 -67.077  70.608  0.00  0.00    -0.390 OA
ATOM     13  O1  IDS d 402      20.772 -65.691  69.181  0.00  0.00    -0.368 OA
ATOM     14  C2  IDS d 402      22.962 -65.747  70.229  0.00  0.00     0.134 C 
ATOM     15  C6  IDS d 402      23.168 -66.875  66.073  0.00  0.00     0.206 C 
ATOM     16  S   IDS d 402      22.674 -63.379  71.287  0.00  0.00     0.252 S 
ATOM     17  H   IDS d 402      21.838 -67.156  67.724  0.00  0.00     0.104 H 
ATOM     18  H   IDS d 402      22.004 -64.051  69.353  0.00  0.00     0.133 H 
ATOM     19  H   IDS d 402      24.811 -65.592  69.179  0.00  0.00     0.091 H 
ATOM     20  H   IDS d 402      23.406 -68.225  68.907  0.00  0.00     0.092 H 
ATOM     21  H   IDS d 402      24.383 -67.780  70.979  0.00  0.00     0.210 HD
ATOM     22  H   IDS d 402      20.841 -66.643  69.005  0.00  0.00     0.212 HD
ATOM     23  H   IDS d 402      22.391 -66.513  70.713  0.00  0.00     0.097 H 
ATOM     24  O4S SGN d 403      21.270 -72.873  68.658  0.00  0.00    -0.572 OA
ATOM     25  O5  SGN d 403      24.808 -70.047  67.876  0.00  0.00    -0.352 OA
ATOM     26  O3  SGN d 403      27.022 -71.486  67.330  0.00  0.00    -0.394 OA
ATOM     27  O3S SGN d 403      29.431 -68.318  68.386  0.00  0.00    -0.296 OA
ATOM     28  O1  SGN d 403      24.995 -67.689  67.711  0.00  0.00    -0.348 OA
ATOM     29  O6  SGN d 403      23.158 -71.853  67.372  0.00  0.00    -0.254 OA
ATOM     30  O5S SGN d 403      22.176 -70.654  69.344  0.00  0.00    -0.572 OA
ATOM     31  C2  SGN d 403      26.986 -69.063  67.536  0.00  0.00     0.079 C 
ATOM     32  C3  SGN d 403      26.993 -70.262  66.575  0.00  0.00     0.058 C 
ATOM     33  N   SGN d 403      27.390 -67.825  66.847  0.00  0.00    -0.210 NA
ATOM     34  O6S SGN d 403      20.856 -70.868  67.232  0.00  0.00    -0.572 OA
ATOM     35  C4  SGN d 403      25.765 -70.246  65.660  0.00  0.00    -0.013 C 
ATOM     36  C6  SGN d 403      23.481 -71.146  66.166  0.00  0.00     0.064 C 
ATOM     37  S2  SGN d 403      21.866 -71.560  68.149  0.00  0.00     0.251 S 
ATOM     38  O2S SGN d 403      28.527 -65.991  68.313  0.00  0.00    -0.296 OA
ATOM     39  C1  SGN d 403      25.615 -68.904  68.190  0.00  0.00     0.150 C 
ATOM     40  O1S SGN d 403      29.775 -66.906  66.353  0.00  0.00    -0.296 OA
ATOM     41  S1  SGN d 403      28.804 -67.250  67.486  0.00  0.00     0.156 S 
ATOM     42  C5  SGN d 403      24.493 -70.037  66.476  0.00  0.00     0.066 C 
ATOM     43  H   SGN d 403      27.801 -71.491  67.907  0.00  0.00     0.210 HD
ATOM     44  H   SGN d 403      28.818 -68.536  69.104  0.00  0.00     0.231 HD
ATOM     45  H   SGN d 403      27.703 -69.254  68.307  0.00  0.00     0.076 H 
ATOM     46  H   SGN d 403      27.867 -70.194  65.962  0.00  0.00     0.085 H 
ATOM     47  H   SGN d 403      26.659 -67.123  66.960  0.00  0.00     0.140 HD
ATOM     48  H   SGN d 403      25.701 -71.179  65.141  0.00  0.00     0.040 H 
ATOM     49  H   SGN d 403      25.864 -69.441  64.962  0.00  0.00     0.040 H 
ATOM     50  H   SGN d 403      22.591 -70.713  65.758  0.00  0.00     0.080 H 
ATOM     51  H   SGN d 403      23.904 -71.827  65.458  0.00  0.00     0.080 H 
ATOM     52  H   SGN d 403      27.913 -66.204  69.032  0.00  0.00     0.231 HD
ATOM     53  H   SGN d 403      25.718 -68.837  69.253  0.00  0.00     0.131 H 
ATOM     54  H   SGN d 403      29.952 -67.702  65.827  0.00  0.00     0.231 HD
ATOM     55  H   SGN d 403      24.065 -69.092  66.215  0.00  0.00     0.086 H 
ENDROOT
TORSDOF 16
ENDMDL
MODEL 10
REMARK VINA RESULT:      -4.0      4.413      8.716
REMARK  0 active torsions:
REMARK  status: ('A' for Active; 'I' for Inactive)
REMARK       I    between atoms: O2_1  and  C2_31 
REMARK       I    between atoms: O2_1  and  S_34 
REMARK       I    between atoms: C5_3  and  C6_33 
REMARK       I    between atoms: O3_5  and  C3_13 
REMARK       I    between atoms: O3S_6  and  S1_32 
REMARK       I    between atoms: O1_7  and  C4_23 
REMARK       I    between atoms: O1_7  and  C1_27 
REMARK       I    between atoms: O6_8  and  C6_21 
REMARK       I    between atoms: O6_8  and  S2_24 
REMARK       I    between atoms: C1_9  and  O1_30 
REMARK       I    between atoms: C2_12  and  N_14 
REMARK       I    between atoms: N_14  and  S1_32 
REMARK       I    between atoms: C3_16  and  O3_29 
REMARK       I    between atoms: C6_21  and  C5_35 
REMARK       I    between atoms: O2S_26  and  S1_32 
REMARK       I    between atoms: O1S_28  and  S1_32 
ROOT
ATOM      1  O2  IDS d 402      23.259 -65.104  69.901  0.00  0.00    -0.244 OA
ATOM      2  C5  IDS d 402      22.821 -68.702  67.858  0.00  0.00     0.152 C 
ATOM      3  C1  IDS d 402      21.861 -66.880  69.006  0.00  0.00     0.158 C 
ATOM      4  O5  IDS d 402      22.074 -67.481  67.713  0.00  0.00    -0.340 OA
ATOM      5  O61 IDS d 402      23.282 -68.902  65.506  0.00  0.00    -0.646 OA
ATOM      6  C3  IDS d 402      24.350 -66.900  68.690  0.00  0.00     0.094 C 
ATOM      7  O62 IDS d 402      22.301 -70.643  66.554  0.00  0.00    -0.646 OA
ATOM      8  O3S IDS d 402      22.375 -62.750  69.702  0.00  0.00    -0.572 OA
ATOM      9  O2S IDS d 402      21.243 -64.391  71.240  0.00  0.00    -0.572 OA
ATOM     10  C4  IDS d 402      24.256 -68.370  68.277  0.00  0.00     0.103 C 
ATOM     11  O1S IDS d 402      21.072 -64.668  68.750  0.00  0.00    -0.572 OA
ATOM     12  O3  IDS d 402      25.598 -66.669  69.356  0.00  0.00    -0.390 OA
ATOM     13  O1  IDS d 402      21.148 -67.794  69.871  0.00  0.00    -0.368 OA
ATOM     14  C2  IDS d 402      23.205 -66.524  69.633  0.00  0.00     0.134 C 
ATOM     15  C6  IDS d 402      22.805 -69.484  66.525  0.00  0.00     0.206 C 
ATOM     16  S   IDS d 402      21.988 -64.230  69.898  0.00  0.00     0.252 S 
ATOM     17  H   IDS d 402      22.375 -69.316  68.613  0.00  0.00     0.104 H 
ATOM     18  H   IDS d 402      21.277 -65.993  68.882  0.00  0.00     0.133 H 
ATOM     19  H   IDS d 402      24.283 -66.297  67.808  0.00  0.00     0.091 H 
ATOM     20  H   IDS d 402      24.530 -68.985  69.110  0.00  0.00     0.092 H 
ATOM     21  H   IDS d 402      25.646 -67.220  70.153  0.00  0.00     0.210 HD
ATOM     22  H   IDS d 402      21.671 -68.602  69.989  0.00  0.00     0.212 HD
ATOM     23  H   IDS d 402      23.308 -67.071  70.547  0.00  0.00     0.097 H 
ATOM     24  O4S SGN d 403      25.304 -73.488  71.422  0.00  0.00    -0.572 OA
ATOM     25  O5  SGN d 403      26.337 -70.445  68.137  0.00  0.00    -0.352 OA
ATOM     26  O3  SGN d 403      28.714 -71.072  67.028  0.00  0.00    -0.394 OA
ATOM     27  O3S SGN d 403      29.190 -67.208  65.688  0.00  0.00    -0.296 OA
ATOM     28  O1  SGN d 403      25.155 -68.628  67.179  0.00  0.00    -0.348 OA
ATOM     29  O6  SGN d 403      25.875 -72.695  69.119  0.00  0.00    -0.254 OA
ATOM     30  O5S SGN d 403      25.005 -71.084  70.833  0.00  0.00    -0.572 OA
ATOM     31  C2  SGN d 403      27.424 -69.089  66.463  0.00  0.00     0.079 C 
ATOM     32  C3  SGN d 403      27.811 -70.519  66.054  0.00  0.00     0.058 C 
ATOM     33  N   SGN d 403      26.875 -68.339  65.320  0.00  0.00    -0.210 NA
ATOM     34  O6S SGN d 403      23.481 -72.810  69.859  0.00  0.00    -0.572 OA
ATOM     35  C4  SGN d 403      26.574 -71.413  65.929  0.00  0.00    -0.013 C 
ATOM     36  C6  SGN d 403      25.404 -72.656  67.765  0.00  0.00     0.064 C 
ATOM     37  S2  SGN d 403      24.916 -72.519  70.305  0.00  0.00     0.251 S 
ATOM     38  O2S SGN d 403      27.189 -65.750  65.363  0.00  0.00    -0.296 OA
ATOM     39  C1  SGN d 403      26.441 -69.108  67.630  0.00  0.00     0.150 C 
ATOM     40  O1S SGN d 403      28.117 -67.041  63.438  0.00  0.00    -0.296 OA
ATOM     41  S1  SGN d 403      27.859 -67.062  64.946  0.00  0.00     0.156 S 
ATOM     42  C5  SGN d 403      25.687 -71.275  67.162  0.00  0.00     0.066 C 
ATOM     43  H   SGN d 403      29.495 -70.503  67.104  0.00  0.00     0.210 HD
ATOM     44  H   SGN d 403      29.028 -67.221  66.644  0.00  0.00     0.231 HD
ATOM     45  H   SGN d 403      28.313 -68.586  66.783  0.00  0.00     0.076 H 
ATOM     46  H   SGN d 403      28.290 -70.477  65.099  0.00  0.00     0.085 H 
ATOM     47  H   SGN d 403      25.947 -67.990  65.562  0.00  0.00     0.140 HD
ATOM     48  H   SGN d 403      26.884 -72.432  65.831  0.00  0.00     0.040 H 
ATOM     49  H   SGN d 403      26.016 -71.113  65.066  0.00  0.00     0.040 H 
ATOM     50  H   SGN d 403      24.350 -72.843  67.749  0.00  0.00     0.080 H 
ATOM     51  H   SGN d 403      25.908 -73.405  67.191  0.00  0.00     0.080 H 
ATOM     52  H   SGN d 403      27.023 -65.760  66.318  0.00  0.00     0.231 HD
ATOM     53  H   SGN d 403      26.787 -68.469  68.416  0.00  0.00     0.131 H 
ATOM     54  H   SGN d 403      28.542 -67.871  63.171  0.00  0.00     0.231 HD
ATOM     55  H   SGN d 403      24.760 -70.824  66.875  0.00  0.00     0.086 H 
ENDROOT
TORSDOF 16
ENDMDL
MODEL 11
REMARK VINA RESULT:      -3.9      3.658      7.108
REMARK  0 active torsions:
REMARK  status: ('A' for Active; 'I' for Inactive)
REMARK       I    between atoms: O2_1  and  C2_31 
REMARK       I    between atoms: O2_1  and  S_34 
REMARK       I    between atoms: C5_3  and  C6_33 
REMARK       I    between atoms: O3_5  and  C3_13 
REMARK       I    between atoms: O3S_6  and  S1_32 
REMARK       I    between atoms: O1_7  and  C4_23 
REMARK       I    between atoms: O1_7  and  C1_27 
REMARK       I    between atoms: O6_8  and  C6_21 
REMARK       I    between atoms: O6_8  and  S2_24 
REMARK       I    between atoms: C1_9  and  O1_30 
REMARK       I    between atoms: C2_12  and  N_14 
REMARK       I    between atoms: N_14  and  S1_32 
REMARK       I    between atoms: C3_16  and  O3_29 
REMARK       I    between atoms: C6_21  and  C5_35 
REMARK       I    between atoms: O2S_26  and  S1_32 
REMARK       I    between atoms: O1S_28  and  S1_32 
ROOT
ATOM      1  O2  IDS d 402      33.282 -64.880  64.187  0.00  0.00    -0.244 OA
ATOM      2  C5  IDS d 402      33.269 -67.649  67.292  0.00  0.00     0.152 C 
ATOM      3  C1  IDS d 402      34.173 -65.717  66.289  0.00  0.00     0.158 C 
ATOM      4  O5  IDS d 402      33.345 -66.213  67.359  0.00  0.00    -0.340 OA
ATOM      5  O61 IDS d 402      31.457 -67.798  68.866  0.00  0.00    -0.646 OA
ATOM      6  C3  IDS d 402      32.238 -66.843  65.156  0.00  0.00     0.094 C 
ATOM      7  O62 IDS d 402      33.327 -68.992  69.275  0.00  0.00    -0.646 OA
ATOM      8  O3S IDS d 402      33.094 -62.376  63.947  0.00  0.00    -0.572 OA
ATOM      9  O2S IDS d 402      35.363 -63.462  64.036  0.00  0.00    -0.572 OA
ATOM     10  C4  IDS d 402      32.452 -68.056  66.063  0.00  0.00     0.103 C 
ATOM     11  O1S IDS d 402      33.921 -63.376  66.090  0.00  0.00    -0.572 OA
ATOM     12  O3  IDS d 402      31.742 -67.278  63.884  0.00  0.00    -0.390 OA
ATOM     13  O1  IDS d 402      35.500 -66.285  66.377  0.00  0.00    -0.368 OA
ATOM     14  C2  IDS d 402      33.549 -66.082  64.946  0.00  0.00     0.134 C 
ATOM     15  C6  IDS d 402      32.626 -68.197  68.587  0.00  0.00     0.206 C 
ATOM     16  S   IDS d 402      33.915 -63.526  64.565  0.00  0.00     0.252 S 
ATOM     17  H   IDS d 402      34.252 -68.063  67.204  0.00  0.00     0.104 H 
ATOM     18  H   IDS d 402      34.245 -64.653  66.373  0.00  0.00     0.133 H 
ATOM     19  H   IDS d 402      31.532 -66.190  65.626  0.00  0.00     0.091 H 
ATOM     20  H   IDS d 402      32.984 -68.809  65.520  0.00  0.00     0.092 H 
ATOM     21  H   IDS d 402      32.390 -67.868  63.469  0.00  0.00     0.210 HD
ATOM     22  H   IDS d 402      35.444 -67.250  66.301  0.00  0.00     0.212 HD
ATOM     23  H   IDS d 402      34.235 -66.705  64.410  0.00  0.00     0.097 H 
ATOM     24  O4S SGN d 403      35.255 -73.375  65.046  0.00  0.00    -0.572 OA
ATOM     25  O5  SGN d 403      31.503 -70.828  65.791  0.00  0.00    -0.352 OA
ATOM     26  O3  SGN d 403      29.297 -72.358  65.538  0.00  0.00    -0.394 OA
ATOM     27  O3S SGN d 403      26.979 -69.029  64.835  0.00  0.00    -0.296 OA
ATOM     28  O1  SGN d 403      31.176 -68.584  66.481  0.00  0.00    -0.348 OA
ATOM     29  O6  SGN d 403      33.115 -72.702  66.152  0.00  0.00    -0.254 OA
ATOM     30  O5S SGN d 403      34.388 -71.055  64.754  0.00  0.00    -0.572 OA
ATOM     31  C2  SGN d 403      29.256 -69.959  65.934  0.00  0.00     0.079 C 
ATOM     32  C3  SGN d 403      29.127 -71.358  66.557  0.00  0.00     0.058 C 
ATOM     33  N   SGN d 403      28.672 -68.929  66.810  0.00  0.00    -0.210 NA
ATOM     34  O6S SGN d 403      35.301 -71.781  66.966  0.00  0.00    -0.572 OA
ATOM     35  C4  SGN d 403      30.161 -71.567  67.667  0.00  0.00    -0.013 C 
ATOM     36  C6  SGN d 403      32.540 -72.315  67.408  0.00  0.00     0.064 C 
ATOM     37  S2  SGN d 403      34.513 -72.228  65.732  0.00  0.00     0.251 S 
ATOM     38  O2S SGN d 403      27.742 -66.791  65.640  0.00  0.00    -0.296 OA
ATOM     39  C1  SGN d 403      30.715 -69.643  65.613  0.00  0.00     0.150 C 
ATOM     40  O1S SGN d 403      26.196 -68.161  67.043  0.00  0.00    -0.296 OA
ATOM     41  S1  SGN d 403      27.376 -68.215  66.069  0.00  0.00     0.156 S 
ATOM     42  C5  SGN d 403      31.551 -71.164  67.186  0.00  0.00     0.066 C 
ATOM     43  H   SGN d 403      28.641 -72.222  64.838  0.00  0.00     0.210 HD
ATOM     44  H   SGN d 403      27.725 -69.064  64.217  0.00  0.00     0.231 HD
ATOM     45  H   SGN d 403      28.705 -69.955  65.016  0.00  0.00     0.076 H 
ATOM     46  H   SGN d 403      28.152 -71.443  66.989  0.00  0.00     0.085 H 
ATOM     47  H   SGN d 403      29.377 -68.220  67.012  0.00  0.00     0.140 HD
ATOM     48  H   SGN d 403      30.172 -72.599  67.948  0.00  0.00     0.040 H 
ATOM     49  H   SGN d 403      29.895 -70.959  68.507  0.00  0.00     0.040 H 
ATOM     50  H   SGN d 403      33.316 -71.995  68.071  0.00  0.00     0.080 H 
ATOM     51  H   SGN d 403      32.025 -73.149  67.836  0.00  0.00     0.080 H 
ATOM     52  H   SGN d 403      28.489 -66.821  65.022  0.00  0.00     0.231 HD
ATOM     53  H   SGN d 403      30.809 -69.318  64.598  0.00  0.00     0.131 H 
ATOM     54  H   SGN d 403      25.962 -69.062  67.317  0.00  0.00     0.231 HD
ATOM     55  H   SGN d 403      31.878 -70.312  67.745  0.00  0.00     0.086 H 
ENDROOT
TORSDOF 16
ENDMDL
MODEL 12
REMARK VINA RESULT:      -3.9      3.255      4.345
REMARK  0 active torsions:
REMARK  status: ('A' for Active; 'I' for Inactive)
REMARK       I    between atoms: O2_1  and  C2_31 
REMARK       I    between atoms: O2_1  and  S_34 
REMARK       I    between atoms: C5_3  and  C6_33 
REMARK       I    between atoms: O3_5  and  C3_13 
REMARK       I    between atoms: O3S_6  and  S1_32 
REMARK       I    between atoms: O1_7  and  C4_23 
REMARK       I    between atoms: O1_7  and  C1_27 
REMARK       I    between atoms: O6_8  and  C6_21 
REMARK       I    between atoms: O6_8  and  S2_24 
REMARK       I    between atoms: C1_9  and  O1_30 
REMARK       I    between atoms: C2_12  and  N_14 
REMARK       I    between atoms: N_14  and  S1_32 
REMARK       I    between atoms: C3_16  and  O3_29 
REMARK       I    between atoms: C6_21  and  C5_35 
REMARK       I    between atoms: O2S_26  and  S1_32 
REMARK       I    between atoms: O1S_28  and  S1_32 
ROOT
ATOM      1  O2  IDS d 402      29.181 -66.872  65.517  0.00  0.00    -0.244 OA
ATOM      2  C5  IDS d 402      26.373 -69.502  67.100  0.00  0.00     0.152 C 
ATOM      3  C1  IDS d 402      28.206 -69.093  65.675  0.00  0.00     0.158 C 
ATOM      4  O5  IDS d 402      27.789 -69.689  66.919  0.00  0.00    -0.340 OA
ATOM      5  O61 IDS d 402      26.405 -70.171  69.410  0.00  0.00    -0.646 OA
ATOM      6  C3  IDS d 402      27.335 -67.189  67.057  0.00  0.00     0.094 C 
ATOM      7  O62 IDS d 402      24.994 -71.238  68.009  0.00  0.00    -0.646 OA
ATOM      8  O3S IDS d 402      31.694 -66.741  65.343  0.00  0.00    -0.572 OA
ATOM      9  O2S IDS d 402      30.351 -67.690  63.438  0.00  0.00    -0.572 OA
ATOM     10  C4  IDS d 402      26.088 -68.021  67.362  0.00  0.00     0.103 C 
ATOM     11  O1S IDS d 402      30.564 -68.964  65.591  0.00  0.00    -0.572 OA
ATOM     12  O3  IDS d 402      26.984 -65.800  67.015  0.00  0.00    -0.390 OA
ATOM     13  O1  IDS d 402      27.487 -69.685  64.569  0.00  0.00    -0.368 OA
ATOM     14  C2  IDS d 402      27.942 -67.591  65.711  0.00  0.00     0.134 C 
ATOM     15  C6  IDS d 402      25.879 -70.375  68.276  0.00  0.00     0.206 C 
ATOM     16  S   IDS d 402      30.445 -67.567  64.972  0.00  0.00     0.252 S 
ATOM     17  H   IDS d 402      25.850 -69.802  66.216  0.00  0.00     0.104 H 
ATOM     18  H   IDS d 402      29.253 -69.269  65.542  0.00  0.00     0.133 H 
ATOM     19  H   IDS d 402      28.056 -67.366  67.828  0.00  0.00     0.091 H 
ATOM     20  H   IDS d 402      25.289 -67.699  66.727  0.00  0.00     0.092 H 
ATOM     21  H   IDS d 402      26.331 -65.653  66.313  0.00  0.00     0.210 HD
ATOM     22  H   IDS d 402      26.536 -69.530  64.682  0.00  0.00     0.212 HD
ATOM     23  H   IDS d 402      27.255 -67.348  64.928  0.00  0.00     0.097 H 
ATOM     24  O4S SGN d 403      20.500 -67.907  64.923  0.00  0.00    -0.572 OA
ATOM     25  O5  SGN d 403      23.450 -67.198  68.375  0.00  0.00    -0.352 OA
ATOM     26  O3  SGN d 403      22.191 -65.954  70.409  0.00  0.00    -0.394 OA
ATOM     27  O3S SGN d 403      25.780 -64.576  71.883  0.00  0.00    -0.296 OA
ATOM     28  O1  SGN d 403      25.703 -67.838  68.740  0.00  0.00    -0.348 OA
ATOM     29  O6  SGN d 403      21.395 -68.070  67.253  0.00  0.00    -0.254 OA
ATOM     30  O5S SGN d 403      22.910 -67.437  65.358  0.00  0.00    -0.572 OA
ATOM     31  C2  SGN d 403      24.571 -66.455  70.378  0.00  0.00     0.079 C 
ATOM     32  C3  SGN d 403      23.186 -66.875  70.893  0.00  0.00     0.058 C 
ATOM     33  N   SGN d 403      25.645 -67.076  71.173  0.00  0.00    -0.210 NA
ATOM     34  O6S SGN d 403      22.040 -69.774  65.531  0.00  0.00    -0.572 OA
ATOM     35  C4  SGN d 403      22.836 -68.297  70.444  0.00  0.00    -0.013 C 
ATOM     36  C6  SGN d 403      21.822 -68.997  68.261  0.00  0.00     0.064 C 
ATOM     37  S2  SGN d 403      21.712 -68.298  65.769  0.00  0.00     0.251 S 
ATOM     38  O2S SGN d 403      27.899 -65.770  71.314  0.00  0.00    -0.296 OA
ATOM     39  C1  SGN d 403      24.721 -66.789  68.896  0.00  0.00     0.150 C 
ATOM     40  O1S SGN d 403      26.691 -66.314  73.431  0.00  0.00    -0.296 OA
ATOM     41  S1  SGN d 403      26.519 -65.915  71.963  0.00  0.00     0.156 S 
ATOM     42  C5  SGN d 403      23.084 -68.462  68.949  0.00  0.00     0.066 C 
ATOM     43  H   SGN d 403      22.417 -65.056  70.696  0.00  0.00     0.210 HD
ATOM     44  H   SGN d 403      25.671 -64.321  70.954  0.00  0.00     0.231 HD
ATOM     45  H   SGN d 403      24.657 -65.394  70.491  0.00  0.00     0.076 H 
ATOM     46  H   SGN d 403      23.205 -66.857  71.962  0.00  0.00     0.085 H 
ATOM     47  H   SGN d 403      26.263 -67.599  70.552  0.00  0.00     0.140 HD
ATOM     48  H   SGN d 403      21.805 -68.488  70.653  0.00  0.00     0.040 H 
ATOM     49  H   SGN d 403      23.455 -68.989  70.977  0.00  0.00     0.040 H 
ATOM     50  H   SGN d 403      22.037 -69.942  67.806  0.00  0.00     0.080 H 
ATOM     51  H   SGN d 403      21.046 -69.117  68.986  0.00  0.00     0.080 H 
ATOM     52  H   SGN d 403      27.794 -65.517  70.384  0.00  0.00     0.231 HD
ATOM     53  H   SGN d 403      25.053 -65.928  68.355  0.00  0.00     0.131 H 
ATOM     54  H   SGN d 403      25.818 -66.406  73.845  0.00  0.00     0.231 HD
ATOM     55  H   SGN d 403      23.882 -69.161  68.804  0.00  0.00     0.086 H 
ENDROOT
TORSDOF 16
ENDMDL
MODEL 13
REMARK VINA RESULT:      -3.9      3.124      5.954
REMARK  0 active torsions:
REMARK  status: ('A' for Active; 'I' for Inactive)
REMARK       I    between atoms: O2_1  and  C2_31 
REMARK       I    between atoms: O2_1  and  S_34 
REMARK       I    between atoms: C5_3  and  C6_33 
REMARK       I    between atoms: O3_5  and  C3_13 
REMARK       I    between atoms: O3S_6  and  S1_32 
REMARK       I    between atoms: O1_7  and  C4_23 
REMARK       I    between atoms: O1_7  and  C1_27 
REMARK       I    between atoms: O6_8  and  C6_21 
REMARK       I    between atoms: O6_8  and  S2_24 
REMARK       I    between atoms: C1_9  and  O1_30 
REMARK       I    between atoms: C2_12  and  N_14 
REMARK       I    between atoms: N_14  and  S1_32 
REMARK       I    between atoms: C3_16  and  O3_29 
REMARK       I    between atoms: C6_21  and  C5_35 
REMARK       I    between atoms: O2S_26  and  S1_32 
REMARK       I    between atoms: O1S_28  and  S1_32 
ROOT
ATOM      1  O2  IDS d 402      32.745 -69.348  65.833  0.00  0.00    -0.244 OA
ATOM      2  C5  IDS d 402      29.180 -67.204  65.727  0.00  0.00     0.152 C 
ATOM      3  C1  IDS d 402      31.517 -67.291  65.422  0.00  0.00     0.158 C 
ATOM      4  O5  IDS d 402      30.240 -67.250  64.754  0.00  0.00    -0.340 OA
ATOM      5  O61 IDS d 402      27.452 -67.673  64.122  0.00  0.00    -0.646 OA
ATOM      6  C3  IDS d 402      30.338 -69.390  66.126  0.00  0.00     0.094 C 
ATOM      7  O62 IDS d 402      27.248 -65.826  65.401  0.00  0.00    -0.646 OA
ATOM      8  O3S IDS d 402      34.616 -69.897  64.233  0.00  0.00    -0.572 OA
ATOM      9  O2S IDS d 402      34.835 -67.937  65.799  0.00  0.00    -0.572 OA
ATOM     10  C4  IDS d 402      29.101 -68.551  66.451  0.00  0.00     0.103 C 
ATOM     11  O1S IDS d 402      33.219 -67.847  63.880  0.00  0.00    -0.572 OA
ATOM     12  O3  IDS d 402      30.408 -70.507  67.022  0.00  0.00    -0.390 OA
ATOM     13  O1  IDS d 402      31.676 -66.130  66.270  0.00  0.00    -0.368 OA
ATOM     14  C2  IDS d 402      31.614 -68.558  66.266  0.00  0.00     0.134 C 
ATOM     15  C6  IDS d 402      27.843 -66.876  65.026  0.00  0.00     0.206 C 
ATOM     16  S   IDS d 402      33.852 -68.757  64.938  0.00  0.00     0.252 S 
ATOM     17  H   IDS d 402      29.379 -66.438  66.448  0.00  0.00     0.104 H 
ATOM     18  H   IDS d 402      32.292 -67.291  64.685  0.00  0.00     0.133 H 
ATOM     19  H   IDS d 402      30.257 -69.732  65.115  0.00  0.00     0.091 H 
ATOM     20  H   IDS d 402      29.062 -68.381  67.507  0.00  0.00     0.092 H 
ATOM     21  H   IDS d 402      30.480 -70.184  67.934  0.00  0.00     0.210 HD
ATOM     22  H   IDS d 402      30.977 -66.122  66.942  0.00  0.00     0.212 HD
ATOM     23  H   IDS d 402      31.739 -68.275  67.290  0.00  0.00     0.097 H 
ATOM     24  O4S SGN d 403      26.997 -66.408  71.759  0.00  0.00    -0.572 OA
ATOM     25  O5  SGN d 403      26.750 -69.184  68.105  0.00  0.00    -0.352 OA
ATOM     26  O3  SGN d 403      24.716 -70.927  68.419  0.00  0.00    -0.394 OA
ATOM     27  O3S SGN d 403      26.425 -73.522  65.718  0.00  0.00    -0.296 OA
ATOM     28  O1  SGN d 403      27.911 -69.254  66.039  0.00  0.00    -0.348 OA
ATOM     29  O6  SGN d 403      25.949 -67.501  69.768  0.00  0.00    -0.254 OA
ATOM     30  O5S SGN d 403      28.441 -67.505  70.047  0.00  0.00    -0.572 OA
ATOM     31  C2  SGN d 403      26.269 -70.964  66.547  0.00  0.00     0.079 C 
ATOM     32  C3  SGN d 403      24.874 -70.548  67.040  0.00  0.00     0.058 C 
ATOM     33  N   SGN d 403      26.324 -71.002  65.076  0.00  0.00    -0.210 NA
ATOM     34  O6S SGN d 403      27.251 -65.375  69.501  0.00  0.00    -0.572 OA
ATOM     35  C4  SGN d 403      24.660 -69.039  66.889  0.00  0.00    -0.013 C 
ATOM     36  C6  SGN d 403      25.350 -67.238  68.491  0.00  0.00     0.064 C 
ATOM     37  S2  SGN d 403      27.158 -66.698  70.266  0.00  0.00     0.251 S 
ATOM     38  O2S SGN d 403      28.035 -72.660  64.013  0.00  0.00    -0.296 OA
ATOM     39  C1  SGN d 403      27.340 -70.035  67.113  0.00  0.00     0.150 C 
ATOM     40  O1S SGN d 403      25.617 -72.897  63.438  0.00  0.00    -0.296 OA
ATOM     41  S1  SGN d 403      26.606 -72.546  64.552  0.00  0.00     0.156 S 
ATOM     42  C5  SGN d 403      25.843 -68.271  67.470  0.00  0.00     0.066 C 
ATOM     43  H   SGN d 403      24.852 -71.882  68.509  0.00  0.00     0.210 HD
ATOM     44  H   SGN d 403      27.052 -73.301  66.424  0.00  0.00     0.231 HD
ATOM     45  H   SGN d 403      26.463 -71.953  66.904  0.00  0.00     0.076 H 
ATOM     46  H   SGN d 403      24.143 -71.050  66.441  0.00  0.00     0.085 H 
ATOM     47  H   SGN d 403      27.077 -70.394  64.751  0.00  0.00     0.140 HD
ATOM     48  H   SGN d 403      23.768 -68.756  67.408  0.00  0.00     0.040 H 
ATOM     49  H   SGN d 403      24.572 -68.804  65.849  0.00  0.00     0.040 H 
ATOM     50  H   SGN d 403      25.624 -66.256  68.166  0.00  0.00     0.080 H 
ATOM     51  H   SGN d 403      24.286 -67.303  68.577  0.00  0.00     0.080 H 
ATOM     52  H   SGN d 403      28.665 -72.439  64.717  0.00  0.00     0.231 HD
ATOM     53  H   SGN d 403      28.121 -70.606  67.570  0.00  0.00     0.131 H 
ATOM     54  H   SGN d 403      24.710 -72.826  63.777  0.00  0.00     0.231 HD
ATOM     55  H   SGN d 403      26.349 -67.762  66.677  0.00  0.00     0.086 H 
ENDROOT
TORSDOF 16
ENDMDL
MODEL 14
REMARK VINA RESULT:      -3.9      2.699      7.520
REMARK  0 active torsions:
REMARK  status: ('A' for Active; 'I' for Inactive)
REMARK       I    between atoms: O2_1  and  C2_31 
REMARK       I    between atoms: O2_1  and  S_34 
REMARK       I    between atoms: C5_3  and  C6_33 
REMARK       I    between atoms: O3_5  and  C3_13 
REMARK       I    between atoms: O3S_6  and  S1_32 
REMARK       I    between atoms: O1_7  and  C4_23 
REMARK       I    between atoms: O1_7  and  C1_27 
REMARK       I    between atoms: O6_8  and  C6_21 
REMARK       I    between atoms: O6_8  and  S2_24 
REMARK       I    between atoms: C1_9  and  O1_30 
REMARK       I    between atoms: C2_12  and  N_14 
REMARK       I    between atoms: N_14  and  S1_32 
REMARK       I    between atoms: C3_16  and  O3_29 
REMARK       I    between atoms: C6_21  and  C5_35 
REMARK       I    between atoms: O2S_26  and  S1_32 
REMARK       I    between atoms: O1S_28  and  S1_32 
ROOT
ATOM      1  O2  IDS d 402      26.717 -67.163  65.661  0.00  0.00    -0.244 OA
ATOM      2  C5  IDS d 402      30.036 -67.411  68.159  0.00  0.00     0.152 C 
ATOM      3  C1  IDS d 402      27.787 -66.793  67.813  0.00  0.00     0.158 C 
ATOM      4  O5  IDS d 402      28.665 -67.751  68.437  0.00  0.00    -0.340 OA
ATOM      5  O61 IDS d 402      30.896 -69.517  68.938  0.00  0.00    -0.646 OA
ATOM      6  C3  IDS d 402      29.017 -67.889  65.921  0.00  0.00     0.094 C 
ATOM      7  O62 IDS d 402      31.735 -67.624  69.834  0.00  0.00    -0.646 OA
ATOM      8  O3S IDS d 402      24.316 -67.935  65.701  0.00  0.00    -0.572 OA
ATOM      9  O2S IDS d 402      24.900 -65.607  66.460  0.00  0.00    -0.572 OA
ATOM     10  C4  IDS d 402      30.326 -67.654  66.676  0.00  0.00     0.103 C 
ATOM     11  O1S IDS d 402      25.563 -67.592  67.847  0.00  0.00    -0.572 OA
ATOM     12  O3  IDS d 402      29.259 -67.819  64.509  0.00  0.00    -0.390 OA
ATOM     13  O1  IDS d 402      28.072 -65.461  68.299  0.00  0.00    -0.368 OA
ATOM     14  C2  IDS d 402      27.973 -66.836  66.300  0.00  0.00     0.134 C 
ATOM     15  C6  IDS d 402      30.973 -68.258  69.050  0.00  0.00     0.206 C 
ATOM     16  S   IDS d 402      25.376 -67.074  66.418  0.00  0.00     0.252 S 
ATOM     17  H   IDS d 402      30.207 -66.378  68.378  0.00  0.00     0.104 H 
ATOM     18  H   IDS d 402      26.775 -67.042  68.057  0.00  0.00     0.133 H 
ATOM     19  H   IDS d 402      28.643 -68.856  66.185  0.00  0.00     0.091 H 
ATOM     20  H   IDS d 402      30.816 -66.794  66.267  0.00  0.00     0.092 H 
ATOM     21  H   IDS d 402      29.597 -66.938  64.283  0.00  0.00     0.210 HD
ATOM     22  H   IDS d 402      28.988 -65.227  68.082  0.00  0.00     0.212 HD
ATOM     23  H   IDS d 402      28.308 -65.874  65.971  0.00  0.00     0.097 H 
ATOM     24  O4S SGN d 403      34.595 -63.345  66.048  0.00  0.00    -0.572 OA
ATOM     25  O5  SGN d 403      33.108 -67.681  65.717  0.00  0.00    -0.352 OA
ATOM     26  O3  SGN d 403      34.971 -69.193  64.486  0.00  0.00    -0.394 OA
ATOM     27  O3S SGN d 403      32.125 -71.977  63.438  0.00  0.00    -0.296 OA
ATOM     28  O1  SGN d 403      31.186 -68.803  66.532  0.00  0.00    -0.348 OA
ATOM     29  O6  SGN d 403      34.639 -65.824  66.386  0.00  0.00    -0.254 OA
ATOM     30  O5S SGN d 403      32.500 -64.668  65.772  0.00  0.00    -0.572 OA
ATOM     31  C2  SGN d 403      32.778 -70.004  65.152  0.00  0.00     0.079 C 
ATOM     32  C3  SGN d 403      34.274 -69.941  65.496  0.00  0.00     0.058 C 
ATOM     33  N   SGN d 403      32.107 -71.091  65.885  0.00  0.00    -0.210 NA
ATOM     34  O6S SGN d 403      33.484 -64.343  68.047  0.00  0.00    -0.572 OA
ATOM     35  C4  SGN d 403      34.500 -69.296  66.867  0.00  0.00    -0.013 C 
ATOM     36  C6  SGN d 403      34.662 -66.849  67.388  0.00  0.00     0.064 C 
ATOM     37  S2  SGN d 403      33.805 -64.548  66.565  0.00  0.00     0.251 S 
ATOM     38  O2S SGN d 403      30.007 -72.144  64.751  0.00  0.00    -0.296 OA
ATOM     39  C1  SGN d 403      32.104 -68.661  65.424  0.00  0.00     0.150 C 
ATOM     40  O1S SGN d 403      31.940 -73.623  65.308  0.00  0.00    -0.296 OA
ATOM     41  S1  SGN d 403      31.534 -72.228  64.828  0.00  0.00     0.156 S 
ATOM     42  C5  SGN d 403      33.722 -67.989  66.978  0.00  0.00     0.066 C 
ATOM     43  H   SGN d 403      34.826 -69.605  63.620  0.00  0.00     0.210 HD
ATOM     44  H   SGN d 403      31.868 -71.093  63.132  0.00  0.00     0.231 HD
ATOM     45  H   SGN d 403      32.688 -70.215  64.106  0.00  0.00     0.076 H 
ATOM     46  H   SGN d 403      34.652 -70.941  65.532  0.00  0.00     0.085 H 
ATOM     47  H   SGN d 403      31.328 -70.706  66.420  0.00  0.00     0.140 HD
ATOM     48  H   SGN d 403      35.543 -69.097  66.995  0.00  0.00     0.040 H 
ATOM     49  H   SGN d 403      34.157 -69.968  67.626  0.00  0.00     0.040 H 
ATOM     50  H   SGN d 403      34.340 -66.440  68.323  0.00  0.00     0.080 H 
ATOM     51  H   SGN d 403      35.657 -67.228  67.488  0.00  0.00     0.080 H 
ATOM     52  H   SGN d 403      29.746 -71.261  64.447  0.00  0.00     0.231 HD
ATOM     53  H   SGN d 403      31.553 -68.342  64.564  0.00  0.00     0.131 H 
ATOM     54  H   SGN d 403      32.907 -73.680  65.358  0.00  0.00     0.231 HD
ATOM     55  H   SGN d 403      32.962 -68.099  67.724  0.00  0.00     0.086 H 
ENDROOT
TORSDOF 16
ENDMDL
MODEL 15
REMARK VINA RESULT:      -3.9      2.688      5.901
REMARK  0 active torsions:
REMARK  status: ('A' for Active; 'I' for Inactive)
REMARK       I    between atoms: O2_1  and  C2_31 
REMARK       I    between atoms: O2_1  and  S_34 
REMARK       I    between atoms: C5_3  and  C6_33 
REMARK       I    between atoms: O3_5  and  C3_13 
REMARK       I    between atoms: O3S_6  and  S1_32 
REMARK       I    between atoms: O1_7  and  C4_23 
REMARK       I    between atoms: O1_7  and  C1_27 
REMARK       I    between atoms: O6_8  and  C6_21 
REMARK       I    between atoms: O6_8  and  S2_24 
REMARK       I    between atoms: C1_9  and  O1_30 
REMARK       I    between atoms: C2_12  and  N_14 
REMARK       I    between atoms: N_14  and  S1_32 
REMARK       I    between atoms: C3_16  and  O3_29 
REMARK       I    between atoms: C6_21  and  C5_35 
REMARK       I    between atoms: O2S_26  and  S1_32 
REMARK       I    between atoms: O1S_28  and  S1_32 
ROOT
ATOM      1  O2  IDS d 402      31.665 -66.510  66.436  0.00  0.00    -0.244 OA
ATOM      2  C5  IDS d 402      29.538 -66.076  69.986  0.00  0.00     0.152 C 
ATOM      3  C1  IDS d 402      31.506 -65.731  68.733  0.00  0.00     0.158 C 
ATOM      4  O5  IDS d 402      30.328 -65.103  69.278  0.00  0.00    -0.340 OA
ATOM      5  O61 IDS d 402      27.615 -64.643  70.158  0.00  0.00    -0.646 OA
ATOM      6  C3  IDS d 402      29.574 -66.869  67.609  0.00  0.00     0.094 C 
ATOM      7  O62 IDS d 402      28.455 -65.535  72.052  0.00  0.00    -0.646 OA
ATOM      8  O3S IDS d 402      32.855 -65.001  64.802  0.00  0.00    -0.572 OA
ATOM      9  O2S IDS d 402      34.152 -66.139  66.635  0.00  0.00    -0.572 OA
ATOM     10  C4  IDS d 402      28.923 -67.055  68.982  0.00  0.00     0.103 C 
ATOM     11  O1S IDS d 402      32.551 -64.285  67.184  0.00  0.00    -0.572 OA
ATOM     12  O3  IDS d 402      29.219 -67.968  66.760  0.00  0.00    -0.390 OA
ATOM     13  O1  IDS d 402      32.291 -66.326  69.792  0.00  0.00    -0.368 OA
ATOM     14  C2  IDS d 402      31.098 -66.807  67.732  0.00  0.00     0.134 C 
ATOM     15  C6  IDS d 402      28.438 -65.360  70.801  0.00  0.00     0.206 C 
ATOM     16  S   IDS d 402      32.805 -65.485  66.266  0.00  0.00     0.252 S 
ATOM     17  H   IDS d 402      30.157 -66.624  70.665  0.00  0.00     0.104 H 
ATOM     18  H   IDS d 402      32.096 -64.988  68.240  0.00  0.00     0.133 H 
ATOM     19  H   IDS d 402      29.222 -65.949  67.191  0.00  0.00     0.091 H 
ATOM     20  H   IDS d 402      29.095 -68.057  69.317  0.00  0.00     0.092 H 
ATOM     21  H   IDS d 402      29.542 -68.796  67.149  0.00  0.00     0.210 HD
ATOM     22  H   IDS d 402      31.763 -67.002  70.245  0.00  0.00     0.212 HD
ATOM     23  H   IDS d 402      31.462 -67.751  68.081  0.00  0.00     0.097 H 
ATOM     24  O4S SGN d 403      28.720 -71.885  72.698  0.00  0.00    -0.572 OA
ATOM     25  O5  SGN d 403      26.767 -68.864  69.839  0.00  0.00    -0.352 OA
ATOM     26  O3  SGN d 403      24.207 -69.573  69.373  0.00  0.00    -0.394 OA
ATOM     27  O3S SGN d 403      24.164 -67.397  65.877  0.00  0.00    -0.296 OA
ATOM     28  O1  SGN d 403      27.503 -66.823  68.885  0.00  0.00    -0.348 OA
ATOM     29  O6  SGN d 403      27.052 -70.181  71.943  0.00  0.00    -0.254 OA
ATOM     30  O5S SGN d 403      29.265 -70.387  70.781  0.00  0.00    -0.572 OA
ATOM     31  C2  SGN d 403      25.325 -67.705  68.289  0.00  0.00     0.079 C 
ATOM     32  C3  SGN d 403      24.358 -68.143  69.400  0.00  0.00     0.058 C 
ATOM     33  N   SGN d 403      25.180 -66.269  67.992  0.00  0.00    -0.210 NA
ATOM     34  O6S SGN d 403      29.157 -69.461  73.101  0.00  0.00    -0.572 OA
ATOM     35  C4  SGN d 403      24.861 -67.701  70.777  0.00  0.00    -0.013 C 
ATOM     36  C6  SGN d 403      26.500 -68.894  72.253  0.00  0.00     0.064 C 
ATOM     37  S2  SGN d 403      28.547 -70.476  72.131  0.00  0.00     0.251 S 
ATOM     38  O2S SGN d 403      25.773 -65.512  65.567  0.00  0.00    -0.296 OA
ATOM     39  C1  SGN d 403      26.766 -68.045  68.662  0.00  0.00     0.150 C 
ATOM     40  O1S SGN d 403      23.477 -65.061  66.439  0.00  0.00    -0.296 OA
ATOM     41  S1  SGN d 403      24.641 -66.056  66.442  0.00  0.00     0.156 S 
ATOM     42  C5  SGN d 403      26.325 -68.086  70.961  0.00  0.00     0.066 C 
ATOM     43  H   SGN d 403      23.889 -69.848  68.499  0.00  0.00     0.210 HD
ATOM     44  H   SGN d 403      24.900 -68.028  65.879  0.00  0.00     0.231 HD
ATOM     45  H   SGN d 403      25.074 -68.246  67.401  0.00  0.00     0.076 H 
ATOM     46  H   SGN d 403      23.412 -67.676  69.224  0.00  0.00     0.085 H 
ATOM     47  H   SGN d 403      26.085 -65.811  68.099  0.00  0.00     0.140 HD
ATOM     48  H   SGN d 403      24.274 -68.177  71.535  0.00  0.00     0.040 H 
ATOM     49  H   SGN d 403      24.770 -66.638  70.854  0.00  0.00     0.040 H 
ATOM     50  H   SGN d 403      27.161 -68.372  72.913  0.00  0.00     0.080 H 
ATOM     51  H   SGN d 403      25.548 -69.019  72.725  0.00  0.00     0.080 H 
ATOM     52  H   SGN d 403      26.512 -66.140  65.567  0.00  0.00     0.231 HD
ATOM     53  H   SGN d 403      27.236 -68.587  67.867  0.00  0.00     0.131 H 
ATOM     54  H   SGN d 403      22.758 -65.403  66.992  0.00  0.00     0.231 HD
ATOM     55  H   SGN d 403      26.913 -67.193  71.027  0.00  0.00     0.086 H 
ENDROOT
TORSDOF 16
ENDMDL
MODEL 16
REMARK VINA RESULT:      -3.9      3.605      6.929
REMARK  0 active torsions:
REMARK  status: ('A' for Active; 'I' for Inactive)
REMARK       I    between atoms: O2_1  and  C2_31 
REMARK       I    between atoms: O2_1  and  S_34 
REMARK       I    between atoms: C5_3  and  C6_33 
REMARK       I    between atoms: O3_5  and  C3_13 
REMARK       I    between atoms: O3S_6  and  S1_32 
REMARK       I    between atoms: O1_7  and  C4_23 
REMARK       I    between atoms: O1_7  and  C1_27 
REMARK       I    between atoms: O6_8  and  C6_21 
REMARK       I    between atoms: O6_8  and  S2_24 
REMARK       I    between atoms: C1_9  and  O1_30 
REMARK       I    between atoms: C2_12  and  N_14 
REMARK       I    between atoms: N_14  and  S1_32 
REMARK       I    between atoms: C3_16  and  O3_29 
REMARK       I    between atoms: C6_21  and  C5_35 
REMARK       I    between atoms: O2S_26  and  S1_32 
REMARK       I    between atoms: O1S_28  and  S1_32 
ROOT
ATOM      1  O2  IDS d 402      29.320 -67.830  70.490  0.00  0.00    -0.244 OA
ATOM      2  C5  IDS d 402      26.776 -66.334  67.556  0.00  0.00     0.152 C 
ATOM      3  C1  IDS d 402      28.634 -66.051  68.981  0.00  0.00     0.158 C 
ATOM      4  O5  IDS d 402      28.213 -66.283  67.622  0.00  0.00    -0.340 OA
ATOM      5  O61 IDS d 402      26.737 -67.222  65.322  0.00  0.00    -0.646 OA
ATOM      6  C3  IDS d 402      27.430 -68.252  69.030  0.00  0.00     0.094 C 
ATOM      7  O62 IDS d 402      25.577 -65.333  65.740  0.00  0.00    -0.646 OA
ATOM      8  O3S IDS d 402      31.800 -68.190  70.773  0.00  0.00    -0.572 OA
ATOM      9  O2S IDS d 402      30.725 -66.095  71.664  0.00  0.00    -0.572 OA
ATOM     10  C4  IDS d 402      26.283 -67.608  68.247  0.00  0.00     0.103 C 
ATOM     11  O1S IDS d 402      30.955 -66.442  69.188  0.00  0.00    -0.572 OA
ATOM     12  O3  IDS d 402      26.905 -69.260  69.904  0.00  0.00    -0.390 OA
ATOM     13  O1  IDS d 402      28.075 -64.812  69.474  0.00  0.00    -0.368 OA
ATOM     14  C2  IDS d 402      28.175 -67.207  69.864  0.00  0.00     0.134 C 
ATOM     15  C6  IDS d 402      26.321 -66.297  66.080  0.00  0.00     0.206 C 
ATOM     16  S   IDS d 402      30.698 -67.139  70.528  0.00  0.00     0.252 S 
ATOM     17  H   IDS d 402      26.358 -65.486  68.059  0.00  0.00     0.104 H 
ATOM     18  H   IDS d 402      29.701 -65.984  69.006  0.00  0.00     0.133 H 
ATOM     19  H   IDS d 402      28.113 -68.687  68.331  0.00  0.00     0.091 H 
ATOM     20  H   IDS d 402      25.494 -67.357  68.926  0.00  0.00     0.092 H 
ATOM     21  H   IDS d 402      26.288 -68.853  70.532  0.00  0.00     0.210 HD
ATOM     22  H   IDS d 402      27.106 -64.865  69.456  0.00  0.00     0.212 HD
ATOM     23  H   IDS d 402      27.516 -66.821  70.614  0.00  0.00     0.097 H 
ATOM     24  O4S SGN d 403      20.908 -65.405  70.101  0.00  0.00    -0.572 OA
ATOM     25  O5  SGN d 403      23.498 -68.484  67.882  0.00  0.00    -0.352 OA
ATOM     26  O3  SGN d 403      21.952 -70.511  67.001  0.00  0.00    -0.394 OA
ATOM     27  O3S SGN d 403      25.222 -73.003  66.772  0.00  0.00    -0.296 OA
ATOM     28  O1  SGN d 403      25.785 -68.534  67.260  0.00  0.00    -0.348 OA
ATOM     29  O6  SGN d 403      21.655 -66.825  68.182  0.00  0.00    -0.254 OA
ATOM     30  O5S SGN d 403      23.201 -66.385  70.107  0.00  0.00    -0.572 OA
ATOM     31  C2  SGN d 403      24.374 -70.446  66.781  0.00  0.00     0.079 C 
ATOM     32  C3  SGN d 403      23.023 -70.231  66.082  0.00  0.00     0.058 C 
ATOM     33  N   SGN d 403      25.462 -70.600  65.801  0.00  0.00    -0.210 NA
ATOM     34  O6S SGN d 403      22.633 -64.540  68.518  0.00  0.00    -0.572 OA
ATOM     35  C4  SGN d 403      22.893 -68.798  65.558  0.00  0.00    -0.013 C 
ATOM     36  C6  SGN d 403      22.130 -66.776  66.830  0.00  0.00     0.064 C 
ATOM     37  S2  SGN d 403      22.100 -65.789  69.224  0.00  0.00     0.251 S 
ATOM     38  O2S SGN d 403      27.512 -72.031  66.547  0.00  0.00    -0.296 OA
ATOM     39  C1  SGN d 403      24.667 -69.305  67.753  0.00  0.00     0.150 C 
ATOM     40  O1S SGN d 403      26.243 -72.719  64.509  0.00  0.00    -0.296 OA
ATOM     41  S1  SGN d 403      26.122 -72.113  65.910  0.00  0.00     0.156 S 
ATOM     42  C5  SGN d 403      23.262 -67.794  66.646  0.00  0.00     0.066 C 
ATOM     43  H   SGN d 403      22.039 -71.419  67.331  0.00  0.00     0.210 HD
ATOM     44  H   SGN d 403      25.145 -72.620  67.660  0.00  0.00     0.231 HD
ATOM     45  H   SGN d 403      24.313 -71.355  67.344  0.00  0.00     0.076 H 
ATOM     46  H   SGN d 403      22.967 -70.897  65.248  0.00  0.00     0.085 H 
ATOM     47  H   SGN d 403      26.184 -69.903  65.989  0.00  0.00     0.140 HD
ATOM     48  H   SGN d 403      21.883 -68.626  65.249  0.00  0.00     0.040 H 
ATOM     49  H   SGN d 403      23.558 -68.671  64.729  0.00  0.00     0.040 H 
ATOM     50  H   SGN d 403      22.496 -65.793  66.616  0.00  0.00     0.080 H 
ATOM     51  H   SGN d 403      21.328 -67.011  66.162  0.00  0.00     0.080 H 
ATOM     52  H   SGN d 403      27.439 -71.647  67.434  0.00  0.00     0.231 HD
ATOM     53  H   SGN d 403      24.920 -69.696  68.716  0.00  0.00     0.131 H 
ATOM     54  H   SGN d 403      25.364 -72.773  64.103  0.00  0.00     0.231 HD
ATOM     55  H   SGN d 403      24.152 -67.277  66.353  0.00  0.00     0.086 H 
ENDROOT
TORSDOF 16
ENDMDL
MODEL 17
REMARK VINA RESULT:      -3.9      2.755      5.826
REMARK  0 active torsions:
REMARK  status: ('A' for Active; 'I' for Inactive)
REMARK       I    between atoms: O2_1  and  C2_31 
REMARK       I    between atoms: O2_1  and  S_34 
REMARK       I    between atoms: C5_3  and  C6_33 
REMARK       I    between atoms: O3_5  and  C3_13 
REMARK       I    between atoms: O3S_6  and  S1_32 
REMARK       I    between atoms: O1_7  and  C4_23 
REMARK       I    between atoms: O1_7  and  C1_27 
REMARK       I    between atoms: O6_8  and  C6_21 
REMARK       I    between atoms: O6_8  and  S2_24 
REMARK       I    between atoms: C1_9  and  O1_30 
REMARK       I    between atoms: C2_12  and  N_14 
REMARK       I    between atoms: N_14  and  S1_32 
REMARK       I    between atoms: C3_16  and  O3_29 
REMARK       I    between atoms: C6_21  and  C5_35 
REMARK       I    between atoms: O2S_26  and  S1_32 
REMARK       I    between atoms: O1S_28  and  S1_32 
ROOT
ATOM      1  O2  IDS d 402      31.387 -70.451  71.050  0.00  0.00    -0.244 OA
ATOM      2  C5  IDS d 402      28.658 -67.594  69.745  0.00  0.00     0.152 C 
ATOM      3  C1  IDS d 402      29.760 -68.704  71.509  0.00  0.00     0.158 C 
ATOM      4  O5  IDS d 402      29.678 -67.479  70.754  0.00  0.00    -0.340 OA
ATOM      5  O61 IDS d 402      29.346 -65.606  68.579  0.00  0.00    -0.646 OA
ATOM      6  C3  IDS d 402      30.357 -69.339  69.157  0.00  0.00     0.094 C 
ATOM      7  O62 IDS d 402      27.195 -65.766  69.239  0.00  0.00    -0.646 OA
ATOM      8  O3S IDS d 402      33.440 -70.509  72.515  0.00  0.00    -0.572 OA
ATOM      9  O2S IDS d 402      31.187 -71.076  73.486  0.00  0.00    -0.572 OA
ATOM     10  C4  IDS d 402      29.120 -68.582  68.670  0.00  0.00     0.103 C 
ATOM     11  O1S IDS d 402      31.721 -68.712  72.828  0.00  0.00    -0.572 OA
ATOM     12  O3  IDS d 402      30.607 -70.455  68.292  0.00  0.00    -0.390 OA
ATOM     13  O1  IDS d 402      28.486 -68.998  72.127  0.00  0.00    -0.368 OA
ATOM     14  C2  IDS d 402      30.156 -69.851  70.585  0.00  0.00     0.134 C 
ATOM     15  C6  IDS d 402      28.375 -66.205  69.130  0.00  0.00     0.206 C 
ATOM     16  S   IDS d 402      31.932 -70.187  72.468  0.00  0.00     0.252 S 
ATOM     17  H   IDS d 402      27.752 -67.959  70.181  0.00  0.00     0.104 H 
ATOM     18  H   IDS d 402      30.498 -68.589  72.275  0.00  0.00     0.133 H 
ATOM     19  H   IDS d 402      31.191 -68.667  69.145  0.00  0.00     0.091 H 
ATOM     20  H   IDS d 402      28.335 -69.283  68.476  0.00  0.00     0.092 H 
ATOM     21  H   IDS d 402      29.845 -71.055  68.312  0.00  0.00     0.210 HD
ATOM     22  H   IDS d 402      27.810 -69.104  71.440  0.00  0.00     0.212 HD
ATOM     23  H   IDS d 402      29.372 -70.578  70.591  0.00  0.00     0.097 H 
ATOM     24  O4S SGN d 403      23.581 -70.567  67.069  0.00  0.00    -0.572 OA
ATOM     25  O5  SGN d 403      27.683 -68.731  66.107  0.00  0.00    -0.352 OA
ATOM     26  O3  SGN d 403      27.960 -68.467  63.438  0.00  0.00    -0.394 OA
ATOM     27  O3S SGN d 403      32.061 -68.366  63.800  0.00  0.00    -0.296 OA
ATOM     28  O1  SGN d 403      29.431 -67.868  67.456  0.00  0.00    -0.348 OA
ATOM     29  O6  SGN d 403      25.190 -68.902  66.122  0.00  0.00    -0.254 OA
ATOM     30  O5S SGN d 403      25.930 -70.503  67.905  0.00  0.00    -0.572 OA
ATOM     31  C2  SGN d 403      29.709 -67.956  65.049  0.00  0.00     0.079 C 
ATOM     32  C3  SGN d 403      28.606 -67.391  64.141  0.00  0.00     0.058 C 
ATOM     33  N   SGN d 403      30.665 -66.907  65.443  0.00  0.00    -0.210 NA
ATOM     34  O6S SGN d 403      24.349 -68.651  68.471  0.00  0.00    -0.572 OA
ATOM     35  C4  SGN d 403      27.570 -66.605  64.950  0.00  0.00    -0.013 C 
ATOM     36  C6  SGN d 403      25.577 -67.521  66.165  0.00  0.00     0.064 C 
ATOM     37  S2  SGN d 403      24.764 -69.653  67.391  0.00  0.00     0.251 S 
ATOM     38  O2S SGN d 403      33.100 -67.681  65.966  0.00  0.00    -0.296 OA
ATOM     39  C1  SGN d 403      29.103 -68.635  66.275  0.00  0.00     0.150 C 
ATOM     40  O1S SGN d 403      32.738 -65.989  64.166  0.00  0.00    -0.296 OA
ATOM     41  S1  SGN d 403      32.166 -67.242  64.834  0.00  0.00     0.156 S 
ATOM     42  C5  SGN d 403      27.107 -67.416  66.156  0.00  0.00     0.066 C 
ATOM     43  H   SGN d 403      28.620 -68.960  62.927  0.00  0.00     0.210 HD
ATOM     44  H   SGN d 403      31.699 -69.160  64.223  0.00  0.00     0.231 HD
ATOM     45  H   SGN d 403      30.249 -68.694  64.493  0.00  0.00     0.076 H 
ATOM     46  H   SGN d 403      29.059 -66.721  63.440  0.00  0.00     0.085 H 
ATOM     47  H   SGN d 403      30.716 -66.863  66.461  0.00  0.00     0.140 HD
ATOM     48  H   SGN d 403      26.728 -66.389  64.328  0.00  0.00     0.040 H 
ATOM     49  H   SGN d 403      28.017 -65.696  65.295  0.00  0.00     0.040 H 
ATOM     50  H   SGN d 403      25.194 -67.072  67.058  0.00  0.00     0.080 H 
ATOM     51  H   SGN d 403      25.181 -67.014  65.311  0.00  0.00     0.080 H 
ATOM     52  H   SGN d 403      32.741 -68.475  66.392  0.00  0.00     0.231 HD
ATOM     53  H   SGN d 403      29.503 -69.621  66.387  0.00  0.00     0.131 H 
ATOM     54  H   SGN d 403      32.149 -65.708  63.448  0.00  0.00     0.231 HD
ATOM     55  H   SGN d 403      27.427 -66.923  67.050  0.00  0.00     0.086 H 
ENDROOT
TORSDOF 16
ENDMDL
MODEL 18
REMARK VINA RESULT:      -3.8      2.411      5.778
REMARK  0 active torsions:
REMARK  status: ('A' for Active; 'I' for Inactive)
REMARK       I    between atoms: O2_1  and  C2_31 
REMARK       I    between atoms: O2_1  and  S_34 
REMARK       I    between atoms: C5_3  and  C6_33 
REMARK       I    between atoms: O3_5  and  C3_13 
REMARK       I    between atoms: O3S_6  and  S1_32 
REMARK       I    between atoms: O1_7  and  C4_23 
REMARK       I    between atoms: O1_7  and  C1_27 
REMARK       I    between atoms: O6_8  and  C6_21 
REMARK       I    between atoms: O6_8  and  S2_24 
REMARK       I    between atoms: C1_9  and  O1_30 
REMARK       I    between atoms: C2_12  and  N_14 
REMARK       I    between atoms: N_14  and  S1_32 
REMARK       I    between atoms: C3_16  and  O3_29 
REMARK       I    between atoms: C6_21  and  C5_35 
REMARK       I    between atoms: O2S_26  and  S1_32 
REMARK       I    between atoms: O1S_28  and  S1_32 
ROOT
ATOM      1  O2  IDS d 402      32.536 -66.773  66.488  0.00  0.00    -0.244 OA
ATOM      2  C5  IDS d 402      30.325 -65.356  69.715  0.00  0.00     0.152 C 
ATOM      3  C1  IDS d 402      32.329 -65.386  68.474  0.00  0.00     0.158 C 
ATOM      4  O5  IDS d 402      31.148 -64.623  68.789  0.00  0.00    -0.340 OA
ATOM      5  O61 IDS d 402      28.420 -63.916  69.428  0.00  0.00    -0.646 OA
ATOM      6  C3  IDS d 402      30.409 -66.777  67.653  0.00  0.00     0.094 C 
ATOM      7  O62 IDS d 402      29.197 -64.255  71.519  0.00  0.00    -0.646 OA
ATOM      8  O3S IDS d 402      33.791 -65.785  64.535  0.00  0.00    -0.572 OA
ATOM      9  O2S IDS d 402      35.022 -66.381  66.649  0.00  0.00    -0.572 OA
ATOM     10  C4  IDS d 402      29.721 -66.570  69.004  0.00  0.00     0.103 C 
ATOM     11  O1S IDS d 402      33.436 -64.434  66.616  0.00  0.00    -0.572 OA
ATOM     12  O3  IDS d 402      30.059 -68.065  67.131  0.00  0.00    -0.390 OA
ATOM     13  O1  IDS d 402      33.077 -65.672  69.678  0.00  0.00    -0.368 OA
ATOM     14  C2  IDS d 402      31.930 -66.694  67.798  0.00  0.00     0.134 C 
ATOM     15  C6  IDS d 402      29.215 -64.433  70.268  0.00  0.00     0.206 C 
ATOM     16  S   IDS d 402      33.695 -65.844  66.074  0.00  0.00     0.252 S 
ATOM     17  H   IDS d 402      30.918 -65.699  70.538  0.00  0.00     0.104 H 
ATOM     18  H   IDS d 402      32.944 -64.814  67.812  0.00  0.00     0.133 H 
ATOM     19  H   IDS d 402      30.083 -66.005  66.987  0.00  0.00     0.091 H 
ATOM     20  H   IDS d 402      29.868 -67.441  69.608  0.00  0.00     0.092 H 
ATOM     21  H   IDS d 402      30.359 -68.754  67.743  0.00  0.00     0.210 HD
ATOM     22  H   IDS d 402      32.527 -66.191  70.285  0.00  0.00     0.212 HD
ATOM     23  H   IDS d 402      32.270 -67.508  68.405  0.00  0.00     0.097 H 
ATOM     24  O4S SGN d 403      29.346 -70.180  73.904  0.00  0.00    -0.572 OA
ATOM     25  O5  SGN d 403      27.515 -68.054  70.265  0.00  0.00    -0.352 OA
ATOM     26  O3  SGN d 403      24.957 -68.844  69.939  0.00  0.00    -0.394 OA
ATOM     27  O3S SGN d 403      25.038 -67.721  65.978  0.00  0.00    -0.296 OA
ATOM     28  O1  SGN d 403      28.307 -66.362  68.806  0.00  0.00    -0.348 OA
ATOM     29  O6  SGN d 403      27.725 -68.738  72.658  0.00  0.00    -0.254 OA
ATOM     30  O5S SGN d 403      29.964 -69.276  71.664  0.00  0.00    -0.572 OA
ATOM     31  C2  SGN d 403      26.132 -67.358  68.413  0.00  0.00     0.079 C 
ATOM     32  C3  SGN d 403      25.130 -67.463  69.573  0.00  0.00     0.058 C 
ATOM     33  N   SGN d 403      26.017 -66.059  67.727  0.00  0.00    -0.210 NA
ATOM     34  O6S SGN d 403      29.811 -67.743  73.633  0.00  0.00    -0.572 OA
ATOM     35  C4  SGN d 403      25.604 -66.661  70.789  0.00  0.00    -0.013 C 
ATOM     36  C6  SGN d 403      27.185 -67.411  72.584  0.00  0.00     0.064 C 
ATOM     37  S2  SGN d 403      29.210 -68.982  72.964  0.00  0.00     0.251 S 
ATOM     38  O2S SGN d 403      26.684 -66.008  65.205  0.00  0.00    -0.296 OA
ATOM     39  C1  SGN d 403      27.557 -67.593  68.908  0.00  0.00     0.150 C 
ATOM     40  O1S SGN d 403      24.374 -65.315  65.851  0.00  0.00    -0.296 OA
ATOM     41  S1  SGN d 403      25.521 -66.279  66.164  0.00  0.00     0.156 S 
ATOM     42  C5  SGN d 403      27.057 -66.991  71.115  0.00  0.00     0.066 C 
ATOM     43  H   SGN d 403      24.657 -69.347  69.166  0.00  0.00     0.210 HD
ATOM     44  H   SGN d 403      25.764 -68.333  66.176  0.00  0.00     0.231 HD
ATOM     45  H   SGN d 403      25.896 -68.122  67.703  0.00  0.00     0.076 H 
ATOM     46  H   SGN d 403      24.196 -67.056  69.248  0.00  0.00     0.085 H 
ATOM     47  H   SGN d 403      26.926 -65.596  67.730  0.00  0.00     0.140 HD
ATOM     48  H   SGN d 403      24.991 -66.904  71.631  0.00  0.00     0.040 H 
ATOM     49  H   SGN d 403      25.527 -65.617  70.566  0.00  0.00     0.040 H 
ATOM     50  H   SGN d 403      27.837 -66.733  73.093  0.00  0.00     0.080 H 
ATOM     51  H   SGN d 403      26.220 -67.394  73.045  0.00  0.00     0.080 H 
ATOM     52  H   SGN d 403      27.413 -66.618  65.401  0.00  0.00     0.231 HD
ATOM     53  H   SGN d 403      28.039 -68.337  68.308  0.00  0.00     0.131 H 
ATOM     54  H   SGN d 403      23.635 -65.485  66.456  0.00  0.00     0.231 HD
ATOM     55  H   SGN d 403      27.656 -66.120  70.948  0.00  0.00     0.086 H 
ENDROOT
TORSDOF 16
ENDMDL
MODEL 19
REMARK VINA RESULT:      -3.8      3.768      8.272
REMARK  0 active torsions:
REMARK  status: ('A' for Active; 'I' for Inactive)
REMARK       I    between atoms: O2_1  and  C2_31 
REMARK       I    between atoms: O2_1  and  S_34 
REMARK       I    between atoms: C5_3  and  C6_33 
REMARK       I    between atoms: O3_5  and  C3_13 
REMARK       I    between atoms: O3S_6  and  S1_32 
REMARK       I    between atoms: O1_7  and  C4_23 
REMARK       I    between atoms: O1_7  and  C1_27 
REMARK       I    between atoms: O6_8  and  C6_21 
REMARK       I    between atoms: O6_8  and  S2_24 
REMARK       I    between atoms: C1_9  and  O1_30 
REMARK       I    between atoms: C2_12  and  N_14 
REMARK       I    between atoms: N_14  and  S1_32 
REMARK       I    between atoms: C3_16  and  O3_29 
REMARK       I    between atoms: C6_21  and  C5_35 
REMARK       I    between atoms: O2S_26  and  S1_32 
REMARK       I    between atoms: O1S_28  and  S1_32 
ROOT
ATOM      1  O2  IDS d 402      24.481 -66.996  73.589  0.00  0.00    -0.244 OA
ATOM      2  C5  IDS d 402      26.497 -69.131  70.641  0.00  0.00     0.152 C 
ATOM      3  C1  IDS d 402      25.774 -68.927  72.876  0.00  0.00     0.158 C 
ATOM      4  O5  IDS d 402      25.559 -69.607  71.624  0.00  0.00    -0.340 OA
ATOM      5  O61 IDS d 402      25.349 -70.160  68.795  0.00  0.00    -0.646 OA
ATOM      6  C3  IDS d 402      25.122 -67.128  71.254  0.00  0.00     0.094 C 
ATOM      7  O62 IDS d 402      27.537 -70.626  69.085  0.00  0.00    -0.646 OA
ATOM      8  O3S IDS d 402      22.601 -67.422  75.216  0.00  0.00    -0.572 OA
ATOM      9  O2S IDS d 402      24.991 -67.708  75.954  0.00  0.00    -0.572 OA
ATOM     10  C4  IDS d 402      26.147 -67.688  70.266  0.00  0.00     0.103 C 
ATOM     11  O1S IDS d 402      23.964 -69.333  74.339  0.00  0.00    -0.572 OA
ATOM     12  O3  IDS d 402      25.022 -65.707  71.086  0.00  0.00    -0.390 OA
ATOM     13  O1  IDS d 402      27.126 -69.146  73.339  0.00  0.00    -0.368 OA
ATOM     14  C2  IDS d 402      25.531 -67.432  72.696  0.00  0.00     0.134 C 
ATOM     15  C6  IDS d 402      26.458 -70.047  69.397  0.00  0.00     0.206 C 
ATOM     16  S   IDS d 402      24.011 -67.864  74.773  0.00  0.00     0.252 S 
ATOM     17  H   IDS d 402      27.488 -69.151  71.043  0.00  0.00     0.104 H 
ATOM     18  H   IDS d 402      25.091 -69.315  73.602  0.00  0.00     0.133 H 
ATOM     19  H   IDS d 402      24.177 -67.591  71.058  0.00  0.00     0.091 H 
ATOM     20  H   IDS d 402      27.034 -67.089  70.307  0.00  0.00     0.092 H 
ATOM     21  H   IDS d 402      25.884 -65.300  71.266  0.00  0.00     0.210 HD
ATOM     22  H   IDS d 402      27.752 -68.796  72.686  0.00  0.00     0.212 HD
ATOM     23  H   IDS d 402      26.438 -66.911  72.921  0.00  0.00     0.097 H 
ATOM     24  O4S SGN d 403      31.817 -65.886  68.927  0.00  0.00    -0.572 OA
ATOM     25  O5  SGN d 403      27.376 -66.456  67.893  0.00  0.00    -0.352 OA
ATOM     26  O3  SGN d 403      26.839 -65.308  65.513  0.00  0.00    -0.394 OA
ATOM     27  O3S SGN d 403      22.838 -65.058  66.453  0.00  0.00    -0.296 OA
ATOM     28  O1  SGN d 403      25.609 -67.650  68.929  0.00  0.00    -0.348 OA
ATOM     29  O6  SGN d 403      29.848 -66.633  67.577  0.00  0.00    -0.254 OA
ATOM     30  O5S SGN d 403      29.575 -66.063  70.004  0.00  0.00    -0.572 OA
ATOM     31  C2  SGN d 403      25.160 -66.333  66.944  0.00  0.00     0.079 C 
ATOM     32  C3  SGN d 403      26.057 -66.500  65.708  0.00  0.00     0.058 C 
ATOM     33  N   SGN d 403      24.056 -67.307  66.936  0.00  0.00    -0.210 NA
ATOM     34  O6S SGN d 403      30.812 -68.132  69.341  0.00  0.00    -0.572 OA
ATOM     35  C4  SGN d 403      26.986 -67.709  65.857  0.00  0.00    -0.013 C 
ATOM     36  C6  SGN d 403      29.208 -67.786  67.014  0.00  0.00     0.064 C 
ATOM     37  S2  SGN d 403      30.511 -66.680  68.961  0.00  0.00     0.251 S 
ATOM     38  O2S SGN d 403      21.864 -66.599  68.161  0.00  0.00    -0.296 OA
ATOM     39  C1  SGN d 403      25.981 -66.443  68.226  0.00  0.00     0.150 C 
ATOM     40  O1S SGN d 403      21.749 -67.190  65.738  0.00  0.00    -0.296 OA
ATOM     41  S1  SGN d 403      22.602 -66.526  66.821  0.00  0.00     0.156 S 
ATOM     42  C5  SGN d 403      27.691 -67.678  67.209  0.00  0.00     0.066 C 
ATOM     43  H   SGN d 403      26.247 -64.546  65.419  0.00  0.00     0.210 HD
ATOM     44  H   SGN d 403      23.378 -64.636  67.139  0.00  0.00     0.231 HD
ATOM     45  H   SGN d 403      24.729 -65.354  66.908  0.00  0.00     0.076 H 
ATOM     46  H   SGN d 403      25.430 -66.664  64.857  0.00  0.00     0.085 H 
ATOM     47  H   SGN d 403      24.079 -67.849  67.801  0.00  0.00     0.140 HD
ATOM     48  H   SGN d 403      27.718 -67.689  65.077  0.00  0.00     0.040 H 
ATOM     49  H   SGN d 403      26.402 -68.604  65.791  0.00  0.00     0.040 H 
ATOM     50  H   SGN d 403      29.569 -68.667  67.504  0.00  0.00     0.080 H 
ATOM     51  H   SGN d 403      29.430 -67.842  65.969  0.00  0.00     0.080 H 
ATOM     52  H   SGN d 403      22.402 -66.179  68.850  0.00  0.00     0.231 HD
ATOM     53  H   SGN d 403      25.788 -65.605  68.862  0.00  0.00     0.131 H 
ATOM     54  H   SGN d 403      22.214 -67.145  64.887  0.00  0.00     0.231 HD
ATOM     55  H   SGN d 403      27.355 -68.509  67.794  0.00  0.00     0.086 H 
ENDROOT
TORSDOF 16
ENDMDL
MODEL 20
REMARK VINA RESULT:      -3.8      3.458      8.058
REMARK  0 active torsions:
REMARK  status: ('A' for Active; 'I' for Inactive)
REMARK       I    between atoms: O2_1  and  C2_31 
REMARK       I    between atoms: O2_1  and  S_34 
REMARK       I    between atoms: C5_3  and  C6_33 
REMARK       I    between atoms: O3_5  and  C3_13 
REMARK       I    between atoms: O3S_6  and  S1_32 
REMARK       I    between atoms: O1_7  and  C4_23 
REMARK       I    between atoms: O1_7  and  C1_27 
REMARK       I    between atoms: O6_8  and  C6_21 
REMARK       I    between atoms: O6_8  and  S2_24 
REMARK       I    between atoms: C1_9  and  O1_30 
REMARK       I    between atoms: C2_12  and  N_14 
REMARK       I    between atoms: N_14  and  S1_32 
REMARK       I    between atoms: C3_16  and  O3_29 
REMARK       I    between atoms: C6_21  and  C5_35 
REMARK       I    between atoms: O2S_26  and  S1_32 
REMARK       I    between atoms: O1S_28  and  S1_32 
ROOT
ATOM      1  O2  IDS d 402      25.294 -66.533  73.037  0.00  0.00    -0.244 OA
ATOM      2  C5  IDS d 402      26.811 -69.410  70.442  0.00  0.00     0.152 C 
ATOM      3  C1  IDS d 402      26.191 -68.754  72.620  0.00  0.00     0.158 C 
ATOM      4  O5  IDS d 402      25.824 -69.556  71.479  0.00  0.00    -0.340 OA
ATOM      5  O61 IDS d 402      25.451 -70.463  68.761  0.00  0.00    -0.646 OA
ATOM      6  C3  IDS d 402      25.845 -67.119  70.749  0.00  0.00     0.094 C 
ATOM      7  O62 IDS d 402      27.521 -71.282  69.126  0.00  0.00    -0.646 OA
ATOM      8  O3S IDS d 402      23.406 -66.362  74.701  0.00  0.00    -0.572 OA
ATOM      9  O2S IDS d 402      25.718 -66.979  75.483  0.00  0.00    -0.572 OA
ATOM     10  C4  IDS d 402      26.727 -67.997  69.859  0.00  0.00     0.103 C 
ATOM     11  O1S IDS d 402      24.370 -68.600  74.119  0.00  0.00    -0.572 OA
ATOM     12  O3  IDS d 402      26.007 -65.744  70.375  0.00  0.00    -0.390 OA
ATOM     13  O1  IDS d 402      27.489 -69.153  73.116  0.00  0.00    -0.368 OA
ATOM     14  C2  IDS d 402      26.225 -67.282  72.222  0.00  0.00     0.134 C 
ATOM     15  C6  IDS d 402      26.575 -70.473  69.345  0.00  0.00     0.206 C 
ATOM     16  S   IDS d 402      24.698 -67.119  74.333  0.00  0.00     0.252 S 
ATOM     17  H   IDS d 402      27.791 -69.557  70.847  0.00  0.00     0.104 H 
ATOM     18  H   IDS d 402      25.465 -68.900  73.392  0.00  0.00     0.133 H 
ATOM     19  H   IDS d 402      24.827 -67.421  70.619  0.00  0.00     0.091 H 
ATOM     20  H   IDS d 402      27.710 -67.575  69.815  0.00  0.00     0.092 H 
ATOM     21  H   IDS d 402      26.933 -65.483  70.497  0.00  0.00     0.210 HD
ATOM     22  H   IDS d 402      28.154 -69.024  72.422  0.00  0.00     0.212 HD
ATOM     23  H   IDS d 402      27.217 -66.913  72.373  0.00  0.00     0.097 H 
ATOM     24  O4S SGN d 403      32.600 -67.496  68.296  0.00  0.00    -0.572 OA
ATOM     25  O5  SGN d 403      28.107 -67.372  67.336  0.00  0.00    -0.352 OA
ATOM     26  O3  SGN d 403      27.738 -66.500  64.811  0.00  0.00    -0.394 OA
ATOM     27  O3S SGN d 403      23.875 -65.375  65.687  0.00  0.00    -0.296 OA
ATOM     28  O1  SGN d 403      26.175 -68.053  68.528  0.00  0.00    -0.348 OA
ATOM     29  O6  SGN d 403      30.496 -68.050  67.061  0.00  0.00    -0.254 OA
ATOM     30  O5S SGN d 403      30.389 -67.095  69.377  0.00  0.00    -0.572 OA
ATOM     31  C2  SGN d 403      25.932 -66.976  66.369  0.00  0.00     0.079 C 
ATOM     32  C3  SGN d 403      26.754 -67.484  65.175  0.00  0.00     0.058 C 
ATOM     33  N   SGN d 403      24.666 -67.718  66.500  0.00  0.00    -0.210 NA
ATOM     34  O6S SGN d 403      31.206 -69.432  69.029  0.00  0.00    -0.572 OA
ATOM     35  C4  SGN d 403      27.445 -68.811  65.503  0.00  0.00    -0.013 C 
ATOM     36  C6  SGN d 403      29.641 -69.133  66.670  0.00  0.00     0.064 C 
ATOM     37  S2  SGN d 403      31.171 -68.020  68.439  0.00  0.00     0.251 S 
ATOM     38  O2S SGN d 403      22.672 -66.444  67.598  0.00  0.00    -0.296 OA
ATOM     39  C1  SGN d 403      26.747 -67.051  67.658  0.00  0.00     0.150 C 
ATOM     40  O1S SGN d 403      22.394 -67.347  65.287  0.00  0.00    -0.296 OA
ATOM     41  S1  SGN d 403      23.380 -66.704  66.265  0.00  0.00     0.156 S 
ATOM     42  C5  SGN d 403      28.175 -68.717  66.840  0.00  0.00     0.066 C 
ATOM     43  H   SGN d 403      27.295 -65.662  64.604  0.00  0.00     0.210 HD
ATOM     44  H   SGN d 403      24.499 -64.966  66.307  0.00  0.00     0.231 HD
ATOM     45  H   SGN d 403      25.688 -65.949  66.189  0.00  0.00     0.076 H 
ATOM     46  H   SGN d 403      26.087 -67.650  64.355  0.00  0.00     0.085 H 
ATOM     47  H   SGN d 403      24.609 -68.124  67.434  0.00  0.00     0.140 HD
ATOM     48  H   SGN d 403      28.151 -69.040  64.733  0.00  0.00     0.040 H 
ATOM     49  H   SGN d 403      26.705 -69.581  65.567  0.00  0.00     0.040 H 
ATOM     50  H   SGN d 403      29.843 -69.986  67.285  0.00  0.00     0.080 H 
ATOM     51  H   SGN d 403      29.824 -69.380  65.645  0.00  0.00     0.080 H 
ATOM     52  H   SGN d 403      23.294 -66.037  68.221  0.00  0.00     0.231 HD
ATOM     53  H   SGN d 403      26.727 -66.109  68.164  0.00  0.00     0.131 H 
ATOM     54  H   SGN d 403      22.839 -67.513  64.441  0.00  0.00     0.231 HD
ATOM     55  H   SGN d 403      27.704 -69.377  67.539  0.00  0.00     0.086 H 
ENDROOT
TORSDOF 16
ENDMDL
MODEL 21
REMARK VINA RESULT:      -3.8      4.512      7.785
REMARK  0 active torsions:
REMARK  status: ('A' for Active; 'I' for Inactive)
REMARK       I    between atoms: O2_1  and  C2_31 
REMARK       I    between atoms: O2_1  and  S_34 
REMARK       I    between atoms: C5_3  and  C6_33 
REMARK       I    between atoms: O3_5  and  C3_13 
REMARK       I    between atoms: O3S_6  and  S1_32 
REMARK       I    between atoms: O1_7  and  C4_23 
REMARK       I    between atoms: O1_7  and  C1_27 
REMARK       I    between atoms: O6_8  and  C6_21 
REMARK       I    between atoms: O6_8  and  S2_24 
REMARK       I    between atoms: C1_9  and  O1_30 
REMARK       I    between atoms: C2_12  and  N_14 
REMARK       I    between atoms: N_14  and  S1_32 
REMARK       I    between atoms: C3_16  and  O3_29 
REMARK       I    between atoms: C6_21  and  C5_35 
REMARK       I    between atoms: O2S_26  and  S1_32 
REMARK       I    between atoms: O1S_28  and  S1_32 
ROOT
ATOM      1  O2  IDS d 402      27.946 -68.615  66.184  0.00  0.00    -0.244 OA
ATOM      2  C5  IDS d 402      24.460 -66.518  67.063  0.00  0.00     0.152 C 
ATOM      3  C1  IDS d 402      26.611 -66.584  66.098  0.00  0.00     0.158 C 
ATOM      4  O5  IDS d 402      25.196 -66.577  65.826  0.00  0.00    -0.340 OA
ATOM      5  O61 IDS d 402      22.353 -67.051  66.034  0.00  0.00    -0.646 OA
ATOM      6  C3  IDS d 402      25.726 -68.678  67.159  0.00  0.00     0.094 C 
ATOM      7  O62 IDS d 402      22.490 -65.173  67.277  0.00  0.00    -0.646 OA
ATOM      8  O3S IDS d 402      29.287 -69.183  64.125  0.00  0.00    -0.572 OA
ATOM      9  O2S IDS d 402      29.909 -67.180  65.517  0.00  0.00    -0.572 OA
ATOM     10  C4  IDS d 402      24.619 -67.846  67.809  0.00  0.00     0.103 C 
ATOM     11  O1S IDS d 402      27.807 -67.161  64.143  0.00  0.00    -0.572 OA
ATOM     12  O3  IDS d 402      26.073 -69.769  68.022  0.00  0.00    -0.390 OA
ATOM     13  O1  IDS d 402      26.986 -65.399  66.837  0.00  0.00    -0.368 OA
ATOM     14  C2  IDS d 402      26.972 -67.827  66.906  0.00  0.00     0.134 C 
ATOM     15  C6  IDS d 402      22.972 -66.226  66.769  0.00  0.00     0.206 C 
ATOM     16  S   IDS d 402      28.736 -68.034  64.994  0.00  0.00     0.252 S 
ATOM     17  H   IDS d 402      24.843 -65.730  67.677  0.00  0.00     0.104 H 
ATOM     18  H   IDS d 402      27.141 -66.595  65.169  0.00  0.00     0.133 H 
ATOM     19  H   IDS d 402      25.364 -69.048  66.222  0.00  0.00     0.091 H 
ATOM     20  H   IDS d 402      24.883 -67.648  68.827  0.00  0.00     0.092 H 
ATOM     21  H   IDS d 402      26.399 -69.421  68.867  0.00  0.00     0.210 HD
ATOM     22  H   IDS d 402      26.509 -65.382  67.682  0.00  0.00     0.212 HD
ATOM     23  H   IDS d 402      27.381 -67.515  67.844  0.00  0.00     0.097 H 
ATOM     24  O4S SGN d 403      24.092 -65.585  73.447  0.00  0.00    -0.572 OA
ATOM     25  O5  SGN d 403      22.857 -68.462  70.084  0.00  0.00    -0.352 OA
ATOM     26  O3  SGN d 403      21.034 -70.220  71.010  0.00  0.00    -0.394 OA
ATOM     27  O3S SGN d 403      21.944 -72.867  67.990  0.00  0.00    -0.296 OA
ATOM     28  O1  SGN d 403      23.375 -68.574  67.773  0.00  0.00    -0.348 OA
ATOM     29  O6  SGN d 403      22.536 -66.745  71.869  0.00  0.00    -0.254 OA
ATOM     30  O5S SGN d 403      25.002 -66.710  71.417  0.00  0.00    -0.572 OA
ATOM     31  C2  SGN d 403      21.982 -70.289  68.771  0.00  0.00     0.079 C 
ATOM     32  C3  SGN d 403      20.781 -69.878  69.636  0.00  0.00     0.058 C 
ATOM     33  N   SGN d 403      21.613 -70.367  67.348  0.00  0.00    -0.210 NA
ATOM     34  O6S SGN d 403      23.664 -64.611  71.190  0.00  0.00    -0.572 OA
ATOM     35  C4  SGN d 403      20.503 -68.376  69.520  0.00  0.00    -0.013 C 
ATOM     36  C6  SGN d 403      21.590 -66.524  70.814  0.00  0.00     0.064 C 
ATOM     37  S2  SGN d 403      23.822 -65.913  71.979  0.00  0.00     0.251 S 
ATOM     38  O2S SGN d 403      22.977 -72.032  65.875  0.00  0.00    -0.296 OA
ATOM     39  C1  SGN d 403      23.153 -69.333  68.983  0.00  0.00     0.150 C 
ATOM     40  O1S SGN d 403      20.500 -72.314  66.027  0.00  0.00    -0.296 OA
ATOM     41  S1  SGN d 403      21.762 -71.921  66.800  0.00  0.00     0.156 S 
ATOM     42  C5  SGN d 403      21.788 -67.578  69.717  0.00  0.00     0.066 C 
ATOM     43  H   SGN d 403      21.209 -71.172  71.079  0.00  0.00     0.210 HD
ATOM     44  H   SGN d 403      22.743 -72.620  68.481  0.00  0.00     0.231 HD
ATOM     45  H   SGN d 403      22.291 -71.267  69.079  0.00  0.00     0.076 H 
ATOM     46  H   SGN d 403      19.919 -70.404  69.285  0.00  0.00     0.085 H 
ATOM     47  H   SGN d 403      22.228 -69.758  66.807  0.00  0.00     0.140 HD
ATOM     48  H   SGN d 403      19.793 -68.090  70.267  0.00  0.00     0.040 H 
ATOM     49  H   SGN d 403      20.115 -68.171  68.544  0.00  0.00     0.040 H 
ATOM     50  H   SGN d 403      21.739 -65.548  70.401  0.00  0.00     0.080 H 
ATOM     51  H   SGN d 403      20.597 -66.599  71.204  0.00  0.00     0.080 H 
ATOM     52  H   SGN d 403      23.778 -71.784  66.361  0.00  0.00     0.231 HD
ATOM     53  H   SGN d 403      24.043 -69.882  69.209  0.00  0.00     0.131 H 
ATOM     54  H   SGN d 403      19.729 -72.245  66.611  0.00  0.00     0.231 HD
ATOM     55  H   SGN d 403      22.034 -67.084  68.800  0.00  0.00     0.086 H 
ENDROOT
TORSDOF 16
ENDMDL
MODEL 22
REMARK VINA RESULT:      -3.8      2.620      6.902
REMARK  0 active torsions:
REMARK  status: ('A' for Active; 'I' for Inactive)
REMARK       I    between atoms: O2_1  and  C2_31 
REMARK       I    between atoms: O2_1  and  S_34 
REMARK       I    between atoms: C5_3  and  C6_33 
REMARK       I    between atoms: O3_5  and  C3_13 
REMARK       I    between atoms: O3S_6  and  S1_32 
REMARK       I    between atoms: O1_7  and  C4_23 
REMARK       I    between atoms: O1_7  and  C1_27 
REMARK       I    between atoms: O6_8  and  C6_21 
REMARK       I    between atoms: O6_8  and  S2_24 
REMARK       I    between atoms: C1_9  and  O1_30 
REMARK       I    between atoms: C2_12  and  N_14 
REMARK       I    between atoms: N_14  and  S1_32 
REMARK       I    between atoms: C3_16  and  O3_29 
REMARK       I    between atoms: C6_21  and  C5_35 
REMARK       I    between atoms: O2S_26  and  S1_32 
REMARK       I    between atoms: O1S_28  and  S1_32 
ROOT
ATOM      1  O2  IDS d 402      30.235 -67.323  71.812  0.00  0.00    -0.244 OA
ATOM      2  C5  IDS d 402      31.672 -69.229  68.404  0.00  0.00     0.152 C 
ATOM      3  C1  IDS d 402      31.847 -68.772  70.710  0.00  0.00     0.158 C 
ATOM      4  O5  IDS d 402      31.482 -69.761  69.727  0.00  0.00    -0.340 OA
ATOM      5  O61 IDS d 402      30.465 -71.009  67.327  0.00  0.00    -0.646 OA
ATOM      6  C3  IDS d 402      29.925 -67.768  69.448  0.00  0.00     0.094 C 
ATOM      7  O62 IDS d 402      32.569 -70.576  66.637  0.00  0.00    -0.646 OA
ATOM      8  O3S IDS d 402      29.498 -67.995  74.129  0.00  0.00    -0.572 OA
ATOM      9  O2S IDS d 402      31.861 -67.220  73.737  0.00  0.00    -0.572 OA
ATOM     10  C4  IDS d 402      30.628 -68.141  68.141  0.00  0.00     0.103 C 
ATOM     11  O1S IDS d 402      31.095 -69.440  72.848  0.00  0.00    -0.572 OA
ATOM     12  O3  IDS d 402      29.174 -66.561  69.260  0.00  0.00    -0.390 OA
ATOM     13  O1  IDS d 402      33.226 -68.375  70.533  0.00  0.00    -0.368 OA
ATOM     14  C2  IDS d 402      30.942 -67.552  70.571  0.00  0.00     0.134 C 
ATOM     15  C6  IDS d 402      31.556 -70.366  67.364  0.00  0.00     0.206 C 
ATOM     16  S   IDS d 402      30.673 -67.994  73.129  0.00  0.00     0.252 S 
ATOM     17  H   IDS d 402      32.648 -68.796  68.321  0.00  0.00     0.104 H 
ATOM     18  H   IDS d 402      31.730 -69.195  71.686  0.00  0.00     0.133 H 
ATOM     19  H   IDS d 402      29.273 -68.572  69.721  0.00  0.00     0.091 H 
ATOM     20  H   IDS d 402      31.115 -67.273  67.747  0.00  0.00     0.092 H 
ATOM     21  H   IDS d 402      29.775 -65.842  69.013  0.00  0.00     0.210 HD
ATOM     22  H   IDS d 402      33.341 -67.990  69.651  0.00  0.00     0.212 HD
ATOM     23  H   IDS d 402      31.549 -66.703  70.337  0.00  0.00     0.097 H 
ATOM     24  O4S SGN d 403      33.997 -64.799  64.311  0.00  0.00    -0.572 OA
ATOM     25  O5  SGN d 403      30.204 -67.153  65.402  0.00  0.00    -0.352 OA
ATOM     26  O3  SGN d 403      28.364 -66.875  63.449  0.00  0.00    -0.394 OA
ATOM     27  O3S SGN d 403      25.337 -67.860  66.060  0.00  0.00    -0.296 OA
ATOM     28  O1  SGN d 403      29.660 -68.618  67.184  0.00  0.00    -0.348 OA
ATOM     29  O6  SGN d 403      32.185 -66.501  64.027  0.00  0.00    -0.254 OA
ATOM     30  O5S SGN d 403      32.646 -65.507  66.283  0.00  0.00    -0.572 OA
ATOM     31  C2  SGN d 403      27.972 -68.061  65.536  0.00  0.00     0.079 C 
ATOM     32  C3  SGN d 403      28.306 -68.185  64.041  0.00  0.00     0.058 C 
ATOM     33  N   SGN d 403      27.479 -69.339  66.078  0.00  0.00    -0.210 NA
ATOM     34  O6S SGN d 403      34.288 -67.089  65.259  0.00  0.00    -0.572 OA
ATOM     35  C4  SGN d 403      29.640 -68.908  63.830  0.00  0.00    -0.013 C 
ATOM     36  C6  SGN d 403      31.938 -67.906  63.877  0.00  0.00     0.064 C 
ATOM     37  S2  SGN d 403      33.278 -65.977  64.970  0.00  0.00     0.251 S 
ATOM     38  O2S SGN d 403      25.847 -69.194  68.109  0.00  0.00    -0.296 OA
ATOM     39  C1  SGN d 403      29.182 -67.562  66.321  0.00  0.00     0.150 C 
ATOM     40  O1S SGN d 403      25.079 -70.346  66.031  0.00  0.00    -0.296 OA
ATOM     41  S1  SGN d 403      25.910 -69.182  66.579  0.00  0.00     0.156 S 
ATOM     42  C5  SGN d 403      30.722 -68.306  64.721  0.00  0.00     0.066 C 
ATOM     43  H   SGN d 403      27.518 -66.422  63.585  0.00  0.00     0.210 HD
ATOM     44  H   SGN d 403      25.861 -67.122  66.407  0.00  0.00     0.231 HD
ATOM     45  H   SGN d 403      27.187 -67.341  65.640  0.00  0.00     0.076 H 
ATOM     46  H   SGN d 403      27.537 -68.760  63.571  0.00  0.00     0.085 H 
ATOM     47  H   SGN d 403      28.059 -69.614  66.871  0.00  0.00     0.140 HD
ATOM     48  H   SGN d 403      29.934 -68.812  62.806  0.00  0.00     0.040 H 
ATOM     49  H   SGN d 403      29.517 -69.941  64.084  0.00  0.00     0.040 H 
ATOM     50  H   SGN d 403      32.796 -68.455  64.204  0.00  0.00     0.080 H 
ATOM     51  H   SGN d 403      31.744 -68.125  62.848  0.00  0.00     0.080 H 
ATOM     52  H   SGN d 403      26.372 -68.458  68.460  0.00  0.00     0.231 HD
ATOM     53  H   SGN d 403      28.909 -66.723  66.927  0.00  0.00     0.131 H 
ATOM     54  H   SGN d 403      25.116 -70.340  65.061  0.00  0.00     0.231 HD
ATOM     55  H   SGN d 403      31.024 -69.037  65.442  0.00  0.00     0.086 H 
ENDROOT
TORSDOF 16
ENDMDL
MODEL 23
REMARK VINA RESULT:      -3.8      2.690      7.258
REMARK  0 active torsions:
REMARK  status: ('A' for Active; 'I' for Inactive)
REMARK       I    between atoms: O2_1  and  C2_31 
REMARK       I    between atoms: O2_1  and  S_34 
REMARK       I    between atoms: C5_3  and  C6_33 
REMARK       I    between atoms: O3_5  and  C3_13 
REMARK       I    between atoms: O3S_6  and  S1_32 
REMARK       I    between atoms: O1_7  and  C4_23 
REMARK       I    between atoms: O1_7  and  C1_27 
REMARK       I    between atoms: O6_8  and  C6_21 
REMARK       I    between atoms: O6_8  and  S2_24 
REMARK       I    between atoms: C1_9  and  O1_30 
REMARK       I    between atoms: C2_12  and  N_14 
REMARK       I    between atoms: N_14  and  S1_32 
REMARK       I    between atoms: C3_16  and  O3_29 
REMARK       I    between atoms: C6_21  and  C5_35 
REMARK       I    between atoms: O2S_26  and  S1_32 
REMARK       I    between atoms: O1S_28  and  S1_32 
ROOT
ATOM      1  O2  IDS d 402      30.004 -65.188  71.002  0.00  0.00    -0.244 OA
ATOM      2  C5  IDS d 402      29.244 -67.663  67.745  0.00  0.00     0.152 C 
ATOM      3  C1  IDS d 402      28.492 -66.572  69.695  0.00  0.00     0.158 C 
ATOM      4  O5  IDS d 402      28.460 -66.569  68.254  0.00  0.00    -0.340 OA
ATOM      5  O61 IDS d 402      29.241 -66.840  65.485  0.00  0.00    -0.646 OA
ATOM      6  C3  IDS d 402      30.871 -66.217  68.984  0.00  0.00     0.094 C 
ATOM      7  O62 IDS d 402      28.517 -68.944  65.856  0.00  0.00    -0.646 OA
ATOM      8  O3S IDS d 402      29.054 -63.057  71.961  0.00  0.00    -0.572 OA
ATOM      9  O2S IDS d 402      28.275 -65.285  72.836  0.00  0.00    -0.572 OA
ATOM     10  C4  IDS d 402      30.727 -67.392  68.016  0.00  0.00     0.103 C 
ATOM     11  O1S IDS d 402      27.627 -64.537  70.528  0.00  0.00    -0.572 OA
ATOM     12  O3  IDS d 402      32.221 -66.156  69.464  0.00  0.00    -0.390 OA
ATOM     13  O1  IDS d 402      27.979 -67.825  70.205  0.00  0.00    -0.368 OA
ATOM     14  C2  IDS d 402      29.925 -66.373  70.177  0.00  0.00     0.134 C 
ATOM     15  C6  IDS d 402      28.983 -67.831  66.231  0.00  0.00     0.206 C 
ATOM     16  S   IDS d 402      28.741 -64.519  71.581  0.00  0.00     0.252 S 
ATOM     17  H   IDS d 402      28.966 -68.572  68.237  0.00  0.00     0.104 H 
ATOM     18  H   IDS d 402      27.878 -65.774  70.056  0.00  0.00     0.133 H 
ATOM     19  H   IDS d 402      30.623 -65.316  68.462  0.00  0.00     0.091 H 
ATOM     20  H   IDS d 402      31.169 -68.263  68.454  0.00  0.00     0.092 H 
ATOM     21  H   IDS d 402      32.434 -66.977  69.935  0.00  0.00     0.210 HD
ATOM     22  H   IDS d 402      28.530 -68.555  69.882  0.00  0.00     0.212 HD
ATOM     23  H   IDS d 402      30.215 -67.232  70.745  0.00  0.00     0.097 H 
ATOM     24  O4S SGN d 403      32.463 -73.217  68.498  0.00  0.00    -0.572 OA
ATOM     25  O5  SGN d 403      32.779 -69.014  66.669  0.00  0.00    -0.352 OA
ATOM     26  O3  SGN d 403      34.906 -68.897  65.015  0.00  0.00    -0.394 OA
ATOM     27  O3S SGN d 403      35.040 -64.796  65.358  0.00  0.00    -0.296 OA
ATOM     28  O1  SGN d 403      31.399 -67.090  66.776  0.00  0.00    -0.348 OA
ATOM     29  O6  SGN d 403      32.559 -71.502  66.680  0.00  0.00    -0.254 OA
ATOM     30  O5S SGN d 403      32.010 -70.824  69.031  0.00  0.00    -0.572 OA
ATOM     31  C2  SGN d 403      33.494 -66.993  65.560  0.00  0.00     0.079 C 
ATOM     32  C3  SGN d 403      33.820 -68.086  64.531  0.00  0.00     0.058 C 
ATOM     33  N   SGN d 403      32.719 -65.900  64.948  0.00  0.00    -0.210 NA
ATOM     34  O6S SGN d 403      30.358 -72.143  67.696  0.00  0.00    -0.572 OA
ATOM     35  C4  SGN d 403      32.599 -68.968  64.254  0.00  0.00    -0.013 C 
ATOM     36  C6  SGN d 403      31.833 -70.961  65.568  0.00  0.00     0.064 C 
ATOM     37  S2  SGN d 403      31.847 -71.920  67.974  0.00  0.00     0.251 S 
ATOM     38  O2S SGN d 403      32.986 -63.536  66.018  0.00  0.00    -0.296 OA
ATOM     39  C1  SGN d 403      32.757 -67.583  66.760  0.00  0.00     0.150 C 
ATOM     40  O1S SGN d 403      33.546 -63.831  63.603  0.00  0.00    -0.296 OA
ATOM     41  S1  SGN d 403      33.587 -64.492  64.983  0.00  0.00     0.156 S 
ATOM     42  C5  SGN d 403      31.967 -69.433  65.561  0.00  0.00     0.066 C 
ATOM     43  H   SGN d 403      35.676 -68.334  65.188  0.00  0.00     0.210 HD
ATOM     44  H   SGN d 403      35.067 -65.214  66.233  0.00  0.00     0.231 HD
ATOM     45  H   SGN d 403      34.418 -66.580  65.907  0.00  0.00     0.076 H 
ATOM     46  H   SGN d 403      34.104 -67.612  63.615  0.00  0.00     0.085 H 
ATOM     47  H   SGN d 403      31.849 -65.773  65.467  0.00  0.00     0.140 HD
ATOM     48  H   SGN d 403      32.904 -69.823  63.687  0.00  0.00     0.040 H 
ATOM     49  H   SGN d 403      31.879 -68.399  63.704  0.00  0.00     0.040 H 
ATOM     50  H   SGN d 403      30.800 -71.227  65.654  0.00  0.00     0.080 H 
ATOM     51  H   SGN d 403      32.229 -71.357  64.657  0.00  0.00     0.080 H 
ATOM     52  H   SGN d 403      33.010 -63.951  66.894  0.00  0.00     0.231 HD
ATOM     53  H   SGN d 403      33.238 -67.290  67.670  0.00  0.00     0.131 H 
ATOM     54  H   SGN d 403      33.926 -64.434  62.945  0.00  0.00     0.231 HD
ATOM     55  H   SGN d 403      30.994 -68.998  65.651  0.00  0.00     0.086 H 
ENDROOT
TORSDOF 16
ENDMDL
MODEL 24
REMARK VINA RESULT:      -3.8      2.862      5.900
REMARK  0 active torsions:
REMARK  status: ('A' for Active; 'I' for Inactive)
REMARK       I    between atoms: O2_1  and  C2_31 
REMARK       I    between atoms: O2_1  and  S_34 
REMARK       I    between atoms: C5_3  and  C6_33 
REMARK       I    between atoms: O3_5  and  C3_13 
REMARK       I    between atoms: O3S_6  and  S1_32 
REMARK       I    between atoms: O1_7  and  C4_23 
REMARK       I    between atoms: O1_7  and  C1_27 
REMARK       I    between atoms: O6_8  and  C6_21 
REMARK       I    between atoms: O6_8  and  S2_24 
REMARK       I    between atoms: C1_9  and  O1_30 
REMARK       I    between atoms: C2_12  and  N_14 
REMARK       I    between atoms: N_14  and  S1_32 
REMARK       I    between atoms: C3_16  and  O3_29 
REMARK       I    between atoms: C6_21  and  C5_35 
REMARK       I    between atoms: O2S_26  and  S1_32 
REMARK       I    between atoms: O1S_28  and  S1_32 
ROOT
ATOM      1  O2  IDS d 402      32.622 -65.357  64.854  0.00  0.00    -0.244 OA
ATOM      2  C5  IDS d 402      31.712 -67.214  68.464  0.00  0.00     0.152 C 
ATOM      3  C1  IDS d 402      33.171 -65.900  67.159  0.00  0.00     0.158 C 
ATOM      4  O5  IDS d 402      32.205 -65.883  68.229  0.00  0.00    -0.340 OA
ATOM      5  O61 IDS d 402      29.894 -66.481  69.858  0.00  0.00    -0.646 OA
ATOM      6  C3  IDS d 402      31.022 -66.669  66.118  0.00  0.00     0.094 C 
ATOM      7  O62 IDS d 402      31.319 -68.023  70.685  0.00  0.00    -0.646 OA
ATOM      8  O3S IDS d 402      33.185 -63.027  64.068  0.00  0.00    -0.572 OA
ATOM      9  O2S IDS d 402      35.031 -64.654  64.598  0.00  0.00    -0.572 OA
ATOM     10  C4  IDS d 402      30.845 -67.649  67.280  0.00  0.00     0.103 C 
ATOM     11  O1S IDS d 402      33.624 -63.694  66.443  0.00  0.00    -0.572 OA
ATOM     12  O3  IDS d 402      30.453 -67.230  64.928  0.00  0.00    -0.390 OA
ATOM     13  O1  IDS d 402      34.269 -66.780  67.490  0.00  0.00    -0.368 OA
ATOM     14  C2  IDS d 402      32.503 -66.376  65.873  0.00  0.00     0.134 C 
ATOM     15  C6  IDS d 402      30.902 -67.245  69.780  0.00  0.00     0.206 C 
ATOM     16  S   IDS d 402      33.615 -64.185  64.991  0.00  0.00     0.252 S 
ATOM     17  H   IDS d 402      32.532 -67.896  68.558  0.00  0.00     0.104 H 
ATOM     18  H   IDS d 402      33.550 -64.909  67.020  0.00  0.00     0.133 H 
ATOM     19  H   IDS d 402      30.526 -65.754  66.370  0.00  0.00     0.091 H 
ATOM     20  H   IDS d 402      31.147 -68.625  66.962  0.00  0.00     0.092 H 
ATOM     21  H   IDS d 402      30.911 -68.057  64.711  0.00  0.00     0.210 HD
ATOM     22  H   IDS d 402      33.934 -67.681  67.618  0.00  0.00     0.212 HD
ATOM     23  H   IDS d 402      32.990 -67.272  65.550  0.00  0.00     0.097 H 
ATOM     24  O4S SGN d 403      31.987 -73.625  67.687  0.00  0.00    -0.572 OA
ATOM     25  O5  SGN d 403      29.131 -70.029  67.519  0.00  0.00    -0.352 OA
ATOM     26  O3  SGN d 403      26.580 -70.895  67.395  0.00  0.00    -0.394 OA
ATOM     27  O3S SGN d 403      25.363 -67.307  65.784  0.00  0.00    -0.296 OA
ATOM     28  O1  SGN d 403      29.460 -67.687  67.680  0.00  0.00    -0.348 OA
ATOM     29  O6  SGN d 403      30.110 -72.143  68.421  0.00  0.00    -0.254 OA
ATOM     30  O5S SGN d 403      31.848 -71.288  66.828  0.00  0.00    -0.572 OA
ATOM     31  C2  SGN d 403      27.235 -68.557  67.263  0.00  0.00     0.079 C 
ATOM     32  C3  SGN d 403      26.684 -69.679  68.156  0.00  0.00     0.058 C 
ATOM     33  N   SGN d 403      26.957 -67.231  67.840  0.00  0.00    -0.210 NA
ATOM     34  O6S SGN d 403      32.447 -71.709  69.218  0.00  0.00    -0.572 OA
ATOM     35  C4  SGN d 403      27.581 -69.907  69.376  0.00  0.00    -0.013 C 
ATOM     36  C6  SGN d 403      29.641 -71.330  69.505  0.00  0.00     0.064 C 
ATOM     37  S2  SGN d 403      31.597 -72.189  68.040  0.00  0.00     0.251 S 
ATOM     38  O2S SGN d 403      26.728 -65.249  66.159  0.00  0.00    -0.296 OA
ATOM     39  C1  SGN d 403      28.731 -68.745  67.020  0.00  0.00     0.150 C 
ATOM     40  O1S SGN d 403      24.811 -65.767  67.673  0.00  0.00    -0.296 OA
ATOM     41  S1  SGN d 403      25.948 -66.373  66.847  0.00  0.00     0.156 S 
ATOM     42  C5  SGN d 403      29.040 -70.032  68.952  0.00  0.00     0.066 C 
ATOM     43  H   SGN d 403      26.011 -70.746  66.623  0.00  0.00     0.210 HD
ATOM     44  H   SGN d 403      26.082 -67.691  65.259  0.00  0.00     0.231 HD
ATOM     45  H   SGN d 403      26.735 -68.610  66.318  0.00  0.00     0.076 H 
ATOM     46  H   SGN d 403      25.716 -69.386  68.503  0.00  0.00     0.085 H 
ATOM     47  H   SGN d 403      27.833 -66.721  67.951  0.00  0.00     0.140 HD
ATOM     48  H   SGN d 403      27.280 -70.806  69.871  0.00  0.00     0.040 H 
ATOM     49  H   SGN d 403      27.483 -69.071  70.038  0.00  0.00     0.040 H 
ATOM     50  H   SGN d 403      30.459 -71.096  70.154  0.00  0.00     0.080 H 
ATOM     51  H   SGN d 403      28.892 -71.863  70.052  0.00  0.00     0.080 H 
ATOM     52  H   SGN d 403      27.450 -65.629  65.635  0.00  0.00     0.231 HD
ATOM     53  H   SGN d 403      28.943 -68.703  65.972  0.00  0.00     0.131 H 
ATOM     54  H   SGN d 403      24.315 -66.478  68.110  0.00  0.00     0.231 HD
ATOM     55  H   SGN d 403      29.588 -69.200  69.343  0.00  0.00     0.086 H 
ENDROOT
TORSDOF 16
ENDMDL
MODEL 25
REMARK VINA RESULT:      -3.7      3.630      6.927
REMARK  0 active torsions:
REMARK  status: ('A' for Active; 'I' for Inactive)
REMARK       I    between atoms: O2_1  and  C2_31 
REMARK       I    between atoms: O2_1  and  S_34 
REMARK       I    between atoms: C5_3  and  C6_33 
REMARK       I    between atoms: O3_5  and  C3_13 
REMARK       I    between atoms: O3S_6  and  S1_32 
REMARK       I    between atoms: O1_7  and  C4_23 
REMARK       I    between atoms: O1_7  and  C1_27 
REMARK       I    between atoms: O6_8  and  C6_21 
REMARK       I    between atoms: O6_8  and  S2_24 
REMARK       I    between atoms: C1_9  and  O1_30 
REMARK       I    between atoms: C2_12  and  N_14 
REMARK       I    between atoms: N_14  and  S1_32 
REMARK       I    between atoms: C3_16  and  O3_29 
REMARK       I    between atoms: C6_21  and  C5_35 
REMARK       I    between atoms: O2S_26  and  S1_32 
REMARK       I    between atoms: O1S_28  and  S1_32 
ROOT
ATOM      1  O2  IDS d 402      26.010 -71.310  72.006  0.00  0.00    -0.244 OA
ATOM      2  C5  IDS d 402      24.801 -67.638  70.466  0.00  0.00     0.152 C 
ATOM      3  C1  IDS d 402      24.672 -69.285  72.149  0.00  0.00     0.158 C 
ATOM      4  O5  IDS d 402      25.175 -67.977  71.814  0.00  0.00    -0.340 OA
ATOM      5  O61 IDS d 402      26.285 -65.750  70.344  0.00  0.00    -0.646 OA
ATOM      6  C3  IDS d 402      26.265 -69.659  70.248  0.00  0.00     0.094 C 
ATOM      7  O62 IDS d 402      24.100 -65.422  69.888  0.00  0.00    -0.646 OA
ATOM      8  O3S IDS d 402      27.006 -72.170  74.158  0.00  0.00    -0.572 OA
ATOM      9  O2S IDS d 402      24.515 -72.252  73.806  0.00  0.00    -0.572 OA
ATOM     10  C4  IDS d 402      25.579 -68.522  69.488  0.00  0.00     0.103 C 
ATOM     11  O1S IDS d 402      25.671 -70.049  74.149  0.00  0.00    -0.572 OA
ATOM     12  O3  IDS d 402      26.738 -70.641  69.316  0.00  0.00    -0.390 OA
ATOM     13  O1  IDS d 402      23.232 -69.317  72.016  0.00  0.00    -0.368 OA
ATOM     14  C2  IDS d 402      25.295 -70.326  71.225  0.00  0.00     0.134 C 
ATOM     15  C6  IDS d 402      25.089 -66.143  70.206  0.00  0.00     0.206 C 
ATOM     16  S   IDS d 402      25.800 -71.444  73.528  0.00  0.00     0.252 S 
ATOM     17  H   IDS d 402      23.754 -67.809  70.325  0.00  0.00     0.104 H 
ATOM     18  H   IDS d 402      24.931 -69.506  73.163  0.00  0.00     0.133 H 
ATOM     19  H   IDS d 402      27.085 -69.249  70.801  0.00  0.00     0.091 H 
ATOM     20  H   IDS d 402      24.900 -68.939  68.774  0.00  0.00     0.092 H 
ATOM     21  H   IDS d 402      25.987 -71.004  68.821  0.00  0.00     0.210 HD
ATOM     22  H   IDS d 402      22.988 -69.118  71.098  0.00  0.00     0.212 HD
ATOM     23  H   IDS d 402      24.511 -70.802  70.672  0.00  0.00     0.097 H 
ATOM     24  O4S SGN d 403      21.371 -68.619  65.077  0.00  0.00    -0.572 OA
ATOM     25  O5  SGN d 403      25.627 -67.843  66.626  0.00  0.00    -0.352 OA
ATOM     26  O3  SGN d 403      27.250 -67.225  64.563  0.00  0.00    -0.394 OA
ATOM     27  O3S SGN d 403      30.565 -68.314  66.749  0.00  0.00    -0.296 OA
ATOM     28  O1  SGN d 403      26.567 -67.729  68.799  0.00  0.00    -0.348 OA
ATOM     29  O6  SGN d 403      23.476 -67.325  65.466  0.00  0.00    -0.254 OA
ATOM     30  O5S SGN d 403      22.953 -69.341  66.863  0.00  0.00    -0.572 OA
ATOM     31  C2  SGN d 403      28.003 -67.489  66.860  0.00  0.00     0.079 C 
ATOM     32  C3  SGN d 403      27.613 -66.500  65.750  0.00  0.00     0.058 C 
ATOM     33  N   SGN d 403      28.781 -66.822  67.918  0.00  0.00    -0.210 NA
ATOM     34  O6S SGN d 403      21.617 -67.247  67.147  0.00  0.00    -0.572 OA
ATOM     35  C4  SGN d 403      26.449 -65.607  66.188  0.00  0.00    -0.013 C 
ATOM     36  C6  SGN d 403      24.000 -66.130  66.062  0.00  0.00     0.064 C 
ATOM     37  S2  SGN d 403      22.356 -68.131  66.139  0.00  0.00     0.251 S 
ATOM     38  O2S SGN d 403      30.464 -68.310  69.244  0.00  0.00    -0.296 OA
ATOM     39  C1  SGN d 403      26.764 -68.169  67.436  0.00  0.00     0.150 C 
ATOM     40  O1S SGN d 403      31.330 -66.309  68.028  0.00  0.00    -0.296 OA
ATOM     41  S1  SGN d 403      30.310 -67.450  67.987  0.00  0.00     0.156 S 
ATOM     42  C5  SGN d 403      25.320 -66.449  66.775  0.00  0.00     0.066 C 
ATOM     43  H   SGN d 403      27.990 -67.789  64.289  0.00  0.00     0.210 HD
ATOM     44  H   SGN d 403      29.920 -69.037  66.722  0.00  0.00     0.231 HD
ATOM     45  H   SGN d 403      28.626 -68.243  66.426  0.00  0.00     0.076 H 
ATOM     46  H   SGN d 403      28.456 -65.874  65.548  0.00  0.00     0.085 H 
ATOM     47  H   SGN d 403      28.318 -66.964  68.816  0.00  0.00     0.140 HD
ATOM     48  H   SGN d 403      26.081 -65.067  65.341  0.00  0.00     0.040 H 
ATOM     49  H   SGN d 403      26.797 -64.926  66.936  0.00  0.00     0.040 H 
ATOM     50  H   SGN d 403      23.295 -65.748  66.771  0.00  0.00     0.080 H 
ATOM     51  H   SGN d 403      24.174 -65.399  65.301  0.00  0.00     0.080 H 
ATOM     52  H   SGN d 403      29.819 -69.034  69.222  0.00  0.00     0.231 HD
ATOM     53  H   SGN d 403      26.892 -69.232  67.436  0.00  0.00     0.131 H 
ATOM     54  H   SGN d 403      31.236 -65.762  67.233  0.00  0.00     0.231 HD
ATOM     55  H   SGN d 403      25.219 -66.217  67.815  0.00  0.00     0.086 H 
ENDROOT
TORSDOF 16
ENDMDL
MODEL 26
REMARK VINA RESULT:      -3.7      4.509      8.306
REMARK  0 active torsions:
REMARK  status: ('A' for Active; 'I' for Inactive)
REMARK       I    between atoms: O2_1  and  C2_31 
REMARK       I    between atoms: O2_1  and  S_34 
REMARK       I    between atoms: C5_3  and  C6_33 
REMARK       I    between atoms: O3_5  and  C3_13 
REMARK       I    between atoms: O3S_6  and  S1_32 
REMARK       I    between atoms: O1_7  and  C4_23 
REMARK       I    between atoms: O1_7  and  C1_27 
REMARK       I    between atoms: O6_8  and  C6_21 
REMARK       I    between atoms: O6_8  and  S2_24 
REMARK       I    between atoms: C1_9  and  O1_30 
REMARK       I    between atoms: C2_12  and  N_14 
REMARK       I    between atoms: N_14  and  S1_32 
REMARK       I    between atoms: C3_16  and  O3_29 
REMARK       I    between atoms: C6_21  and  C5_35 
REMARK       I    between atoms: O2S_26  and  S1_32 
REMARK       I    between atoms: O1S_28  and  S1_32 
ROOT
ATOM      1  O2  IDS d 402      23.959 -69.865  73.271  0.00  0.00    -0.244 OA
ATOM      2  C5  IDS d 402      22.424 -67.336  70.346  0.00  0.00     0.152 C 
ATOM      3  C1  IDS d 402      22.163 -68.483  72.389  0.00  0.00     0.158 C 
ATOM      4  O5  IDS d 402      22.381 -67.196  71.778  0.00  0.00    -0.340 OA
ATOM      5  O61 IDS d 402      23.292 -65.123  69.983  0.00  0.00    -0.646 OA
ATOM      6  C3  IDS d 402      24.358 -68.686  71.190  0.00  0.00     0.094 C 
ATOM      7  O62 IDS d 402      21.401 -65.717  68.906  0.00  0.00    -0.646 OA
ATOM      8  O3S IDS d 402      24.334 -69.789  75.765  0.00  0.00    -0.572 OA
ATOM      9  O2S IDS d 402      22.242 -70.840  74.841  0.00  0.00    -0.572 OA
ATOM     10  C4  IDS d 402      23.701 -68.080  69.948  0.00  0.00     0.103 C 
ATOM     11  O1S IDS d 402      22.569 -68.354  74.713  0.00  0.00    -0.572 OA
ATOM     12  O3  IDS d 402      25.370 -69.619  70.789  0.00  0.00    -0.390 OA
ATOM     13  O1  IDS d 402      20.926 -69.061  71.914  0.00  0.00    -0.368 OA
ATOM     14  C2  IDS d 402      23.324 -69.414  72.053  0.00  0.00     0.134 C 
ATOM     15  C6  IDS d 402      22.372 -65.940  69.685  0.00  0.00     0.206 C 
ATOM     16  S   IDS d 402      23.275 -69.712  74.645  0.00  0.00     0.252 S 
ATOM     17  H   IDS d 402      21.579 -67.899  70.009  0.00  0.00     0.104 H 
ATOM     18  H   IDS d 402      22.102 -68.356  73.449  0.00  0.00     0.133 H 
ATOM     19  H   IDS d 402      24.791 -67.893  71.764  0.00  0.00     0.091 H 
ATOM     20  H   IDS d 402      23.452 -68.866  69.265  0.00  0.00     0.092 H 
ATOM     21  H   IDS d 402      24.966 -70.331  70.270  0.00  0.00     0.210 HD
ATOM     22  H   IDS d 402      20.973 -69.180  70.953  0.00  0.00     0.212 HD
ATOM     23  H   IDS d 402      22.941 -70.253  71.510  0.00  0.00     0.097 H 
ATOM     24  O4S SGN d 403      21.486 -70.698  64.906  0.00  0.00    -0.572 OA
ATOM     25  O5  SGN d 403      24.560 -68.109  67.134  0.00  0.00    -0.352 OA
ATOM     26  O3  SGN d 403      26.571 -67.442  65.465  0.00  0.00    -0.394 OA
ATOM     27  O3S SGN d 403      29.077 -66.729  68.653  0.00  0.00    -0.296 OA
ATOM     28  O1  SGN d 403      24.616 -67.167  69.308  0.00  0.00    -0.348 OA
ATOM     29  O6  SGN d 403      22.893 -68.681  65.363  0.00  0.00    -0.254 OA
ATOM     30  O5S SGN d 403      22.478 -70.370  67.170  0.00  0.00    -0.572 OA
ATOM     31  C2  SGN d 403      26.516 -66.879  67.831  0.00  0.00     0.079 C 
ATOM     32  C3  SGN d 403      26.288 -66.382  66.395  0.00  0.00     0.058 C 
ATOM     33  N   SGN d 403      26.667 -65.753  68.768  0.00  0.00    -0.210 NA
ATOM     34  O6S SGN d 403      20.617 -68.892  66.393  0.00  0.00    -0.572 OA
ATOM     35  C4  SGN d 403      24.850 -65.892  66.201  0.00  0.00    -0.013 C 
ATOM     36  C6  SGN d 403      22.835 -67.276  65.641  0.00  0.00     0.064 C 
ATOM     37  S2  SGN d 403      21.869 -69.658  65.959  0.00  0.00     0.251 S 
ATOM     38  O2S SGN d 403      28.116 -66.187  70.893  0.00  0.00    -0.296 OA
ATOM     39  C1  SGN d 403      25.386 -67.808  68.267  0.00  0.00     0.150 C 
ATOM     40  O1S SGN d 403      28.780 -64.346  69.343  0.00  0.00    -0.296 OA
ATOM     41  S1  SGN d 403      28.185 -65.754  69.426  0.00  0.00     0.156 S 
ATOM     42  C5  SGN d 403      23.858 -66.924  66.728  0.00  0.00     0.066 C 
ATOM     43  H   SGN d 403      27.482 -67.748  65.592  0.00  0.00     0.210 HD
ATOM     44  H   SGN d 403      28.702 -67.622  68.705  0.00  0.00     0.231 HD
ATOM     45  H   SGN d 403      27.429 -67.437  67.845  0.00  0.00     0.076 H 
ATOM     46  H   SGN d 403      26.947 -65.559  66.216  0.00  0.00     0.085 H 
ATOM     47  H   SGN d 403      25.977 -65.841  69.513  0.00  0.00     0.140 HD
ATOM     48  H   SGN d 403      24.670 -65.732  65.159  0.00  0.00     0.040 H 
ATOM     49  H   SGN d 403      24.719 -64.978  66.743  0.00  0.00     0.040 H 
ATOM     50  H   SGN d 403      21.853 -67.020  65.979  0.00  0.00     0.080 H 
ATOM     51  H   SGN d 403      23.060 -66.727  64.750  0.00  0.00     0.080 H 
ATOM     52  H   SGN d 403      27.739 -67.079  70.950  0.00  0.00     0.231 HD
ATOM     53  H   SGN d 403      25.786 -68.722  68.652  0.00  0.00     0.131 H 
ATOM     54  H   SGN d 403      28.826 -64.069  68.414  0.00  0.00     0.231 HD
ATOM     55  H   SGN d 403      23.342 -66.512  67.570  0.00  0.00     0.086 H 
ENDROOT
TORSDOF 16
ENDMDL
MODEL 27
REMARK VINA RESULT:      -3.7      2.985      7.677
REMARK  0 active torsions:
REMARK  status: ('A' for Active; 'I' for Inactive)
REMARK       I    between atoms: O2_1  and  C2_31 
REMARK       I    between atoms: O2_1  and  S_34 
REMARK       I    between atoms: C5_3  and  C6_33 
REMARK       I    between atoms: O3_5  and  C3_13 
REMARK       I    between atoms: O3S_6  and  S1_32 
REMARK       I    between atoms: O1_7  and  C4_23 
REMARK       I    between atoms: O1_7  and  C1_27 
REMARK       I    between atoms: O6_8  and  C6_21 
REMARK       I    between atoms: O6_8  and  S2_24 
REMARK       I    between atoms: C1_9  and  O1_30 
REMARK       I    between atoms: C2_12  and  N_14 
REMARK       I    between atoms: N_14  and  S1_32 
REMARK       I    between atoms: C3_16  and  O3_29 
REMARK       I    between atoms: C6_21  and  C5_35 
REMARK       I    between atoms: O2S_26  and  S1_32 
REMARK       I    between atoms: O1S_28  and  S1_32 
ROOT
ATOM      1  O2  IDS d 402      26.697 -65.948  72.813  0.00  0.00    -0.244 OA
ATOM      2  C5  IDS d 402      27.675 -69.128  70.314  0.00  0.00     0.152 C 
ATOM      3  C1  IDS d 402      27.409 -68.249  72.486  0.00  0.00     0.158 C 
ATOM      4  O5  IDS d 402      26.841 -69.120  71.488  0.00  0.00    -0.340 OA
ATOM      5  O61 IDS d 402      26.034 -70.231  68.945  0.00  0.00    -0.646 OA
ATOM      6  C3  IDS d 402      26.883 -66.761  70.536  0.00  0.00     0.094 C 
ATOM      7  O62 IDS d 402      28.090 -71.147  69.095  0.00  0.00    -0.646 OA
ATOM      8  O3S IDS d 402      25.079 -65.513  74.700  0.00  0.00    -0.572 OA
ATOM      9  O2S IDS d 402      27.445 -66.209  75.208  0.00  0.00    -0.572 OA
ATOM     10  C4  IDS d 402      27.580 -67.767  69.619  0.00  0.00     0.103 C 
ATOM     11  O1S IDS d 402      25.833 -67.851  74.202  0.00  0.00    -0.572 OA
ATOM     12  O3  IDS d 402      27.059 -65.437  70.016  0.00  0.00    -0.390 OA
ATOM     13  O1  IDS d 402      28.743 -68.686  72.833  0.00  0.00    -0.368 OA
ATOM     14  C2  IDS d 402      27.461 -66.822  71.952  0.00  0.00     0.134 C 
ATOM     15  C6  IDS d 402      27.229 -70.263  69.366  0.00  0.00     0.206 C 
ATOM     16  S   IDS d 402      26.265 -66.381  74.229  0.00  0.00     0.252 S 
ATOM     17  H   IDS d 402      28.693 -69.302  70.592  0.00  0.00     0.104 H 
ATOM     18  H   IDS d 402      26.795 -68.281  73.362  0.00  0.00     0.133 H 
ATOM     19  H   IDS d 402      25.842 -67.007  70.577  0.00  0.00     0.091 H 
ATOM     20  H   IDS d 402      28.567 -67.415  69.400  0.00  0.00     0.092 H 
ATOM     21  H   IDS d 402      28.005 -65.226  69.984  0.00  0.00     0.210 HD
ATOM     22  H   IDS d 402      29.307 -68.660  72.044  0.00  0.00     0.212 HD
ATOM     23  H   IDS d 402      28.483 -66.505  71.928  0.00  0.00     0.097 H 
ATOM     24  O4S SGN d 403      33.185 -67.781  67.217  0.00  0.00    -0.572 OA
ATOM     25  O5  SGN d 403      28.614 -67.451  66.882  0.00  0.00    -0.352 OA
ATOM     26  O3  SGN d 403      27.930 -66.776  64.362  0.00  0.00    -0.394 OA
ATOM     27  O3S SGN d 403      24.297 -65.334  65.656  0.00  0.00    -0.296 OA
ATOM     28  O1  SGN d 403      26.840 -67.902  68.388  0.00  0.00    -0.348 OA
ATOM     29  O6  SGN d 403      30.900 -68.302  66.343  0.00  0.00    -0.254 OA
ATOM     30  O5S SGN d 403      31.177 -67.147  68.552  0.00  0.00    -0.572 OA
ATOM     31  C2  SGN d 403      26.345 -67.000  66.193  0.00  0.00     0.079 C 
ATOM     32  C3  SGN d 403      26.959 -67.660  64.949  0.00  0.00     0.058 C 
ATOM     33  N   SGN d 403      25.075 -67.645  66.567  0.00  0.00    -0.210 NA
ATOM     34  O6S SGN d 403      31.813 -69.553  68.314  0.00  0.00    -0.572 OA
ATOM     35  C4  SGN d 403      27.622 -68.996  65.302  0.00  0.00    -0.013 C 
ATOM     36  C6  SGN d 403      29.943 -69.358  66.178  0.00  0.00     0.064 C 
ATOM     37  S2  SGN d 403      31.766 -68.198  67.605  0.00  0.00     0.251 S 
ATOM     38  O2S SGN d 403      23.328 -66.156  67.806  0.00  0.00    -0.296 OA
ATOM     39  C1  SGN d 403      27.332 -67.017  67.357  0.00  0.00     0.150 C 
ATOM     40  O1S SGN d 403      22.674 -67.234  65.651  0.00  0.00    -0.296 OA
ATOM     41  S1  SGN d 403      23.822 -66.574  66.419  0.00  0.00     0.156 S 
ATOM     42  C5  SGN d 403      28.540 -68.835  66.509  0.00  0.00     0.066 C 
ATOM     43  H   SGN d 403      27.506 -65.933  64.140  0.00  0.00     0.210 HD
ATOM     44  H   SGN d 403      25.024 -64.915  66.141  0.00  0.00     0.231 HD
ATOM     45  H   SGN d 403      26.131 -65.979  65.953  0.00  0.00     0.076 H 
ATOM     46  H   SGN d 403      26.174 -67.852  64.249  0.00  0.00     0.085 H 
ATOM     47  H   SGN d 403      25.132 -67.965  67.534  0.00  0.00     0.140 HD
ATOM     48  H   SGN d 403      28.196 -69.335  64.466  0.00  0.00     0.040 H 
ATOM     49  H   SGN d 403      26.859 -69.708  65.539  0.00  0.00     0.040 H 
ATOM     50  H   SGN d 403      30.187 -70.166  66.836  0.00  0.00     0.080 H 
ATOM     51  H   SGN d 403      29.964 -69.702  65.165  0.00  0.00     0.080 H 
ATOM     52  H   SGN d 403      24.053 -65.737  68.296  0.00  0.00     0.231 HD
ATOM     53  H   SGN d 403      27.434 -66.035  67.771  0.00  0.00     0.131 H 
ATOM     54  H   SGN d 403      22.984 -67.500  64.771  0.00  0.00     0.231 HD
ATOM     55  H   SGN d 403      28.141 -69.401  67.325  0.00  0.00     0.086 H 
ENDROOT
TORSDOF 16
ENDMDL
MODEL 28
REMARK VINA RESULT:      -3.7      3.943      9.024
REMARK  0 active torsions:
REMARK  status: ('A' for Active; 'I' for Inactive)
REMARK       I    between atoms: O2_1  and  C2_31 
REMARK       I    between atoms: O2_1  and  S_34 
REMARK       I    between atoms: C5_3  and  C6_33 
REMARK       I    between atoms: O3_5  and  C3_13 
REMARK       I    between atoms: O3S_6  and  S1_32 
REMARK       I    between atoms: O1_7  and  C4_23 
REMARK       I    between atoms: O1_7  and  C1_27 
REMARK       I    between atoms: O6_8  and  C6_21 
REMARK       I    between atoms: O6_8  and  S2_24 
REMARK       I    between atoms: C1_9  and  O1_30 
REMARK       I    between atoms: C2_12  and  N_14 
REMARK       I    between atoms: N_14  and  S1_32 
REMARK       I    between atoms: C3_16  and  O3_29 
REMARK       I    between atoms: C6_21  and  C5_35 
REMARK       I    between atoms: O2S_26  and  S1_32 
REMARK       I    between atoms: O1S_28  and  S1_32 
ROOT
ATOM      1  O2  IDS d 402      22.746 -65.272  68.197  0.00  0.00    -0.244 OA
ATOM      2  C5  IDS d 402      25.506 -68.276  69.019  0.00  0.00     0.152 C 
ATOM      3  C1  IDS d 402      24.280 -66.387  69.719  0.00  0.00     0.158 C 
ATOM      4  O5  IDS d 402      24.398 -67.820  69.817  0.00  0.00    -0.340 OA
ATOM      5  O61 IDS d 402      24.874 -70.592  69.154  0.00  0.00    -0.646 OA
ATOM      6  C3  IDS d 402      23.912 -67.239  67.388  0.00  0.00     0.094 C 
ATOM      7  O62 IDS d 402      26.961 -70.016  69.788  0.00  0.00    -0.646 OA
ATOM      8  O3S IDS d 402      20.572 -64.446  69.174  0.00  0.00    -0.572 OA
ATOM      9  O2S IDS d 402      22.742 -63.355  69.836  0.00  0.00    -0.572 OA
ATOM     10  C4  IDS d 402      25.168 -68.100  67.536  0.00  0.00     0.103 C 
ATOM     11  O1S IDS d 402      22.210 -65.682  70.614  0.00  0.00    -0.572 OA
ATOM     12  O3  IDS d 402      23.770 -66.832  66.021  0.00  0.00    -0.390 OA
ATOM     13  O1  IDS d 402      25.501 -65.753  70.164  0.00  0.00    -0.368 OA
ATOM     14  C2  IDS d 402      23.997 -65.993  68.272  0.00  0.00     0.134 C 
ATOM     15  C6  IDS d 402      25.807 -69.756  69.343  0.00  0.00     0.206 C 
ATOM     16  S   IDS d 402      22.070 -64.690  69.454  0.00  0.00     0.252 S 
ATOM     17  H   IDS d 402      26.378 -67.698  69.243  0.00  0.00     0.104 H 
ATOM     18  H   IDS d 402      23.473 -66.063  70.342  0.00  0.00     0.133 H 
ATOM     19  H   IDS d 402      23.066 -67.821  67.691  0.00  0.00     0.091 H 
ATOM     20  H   IDS d 402      25.985 -67.614  67.044  0.00  0.00     0.092 H 
ATOM     21  H   IDS d 402      24.542 -66.306  65.758  0.00  0.00     0.210 HD
ATOM     22  H   IDS d 402      26.238 -66.041  69.604  0.00  0.00     0.212 HD
ATOM     23  H   IDS d 402      24.796 -65.371  67.927  0.00  0.00     0.097 H 
ATOM     24  O4S SGN d 403      30.877 -67.228  65.579  0.00  0.00    -0.572 OA
ATOM     25  O5  SGN d 403      26.833 -69.408  65.493  0.00  0.00    -0.352 OA
ATOM     26  O3  SGN d 403      26.788 -71.168  63.449  0.00  0.00    -0.394 OA
ATOM     27  O3S SGN d 403      22.671 -71.167  63.442  0.00  0.00    -0.296 OA
ATOM     28  O1  SGN d 403      24.949 -69.391  66.932  0.00  0.00    -0.348 OA
ATOM     29  O6  SGN d 403      29.317 -69.183  65.626  0.00  0.00    -0.254 OA
ATOM     30  O5S SGN d 403      28.462 -66.871  66.090  0.00  0.00    -0.572 OA
ATOM     31  C2  SGN d 403      24.890 -70.712  64.900  0.00  0.00     0.079 C 
ATOM     32  C3  SGN d 403      26.055 -71.663  64.583  0.00  0.00     0.058 C 
ATOM     33  N   SGN d 403      23.876 -71.373  65.740  0.00  0.00    -0.210 NA
ATOM     34  O6S SGN d 403      29.938 -68.012  67.755  0.00  0.00    -0.572 OA
ATOM     35  C4  SGN d 403      26.994 -71.808  65.785  0.00  0.00    -0.013 C 
ATOM     36  C6  SGN d 403      28.892 -70.299  66.421  0.00  0.00     0.064 C 
ATOM     37  S2  SGN d 403      29.647 -67.826  66.263  0.00  0.00     0.251 S 
ATOM     38  O2S SGN d 403      21.424 -70.514  65.505  0.00  0.00    -0.296 OA
ATOM     39  C1  SGN d 403      25.400 -69.434  65.560  0.00  0.00     0.150 C 
ATOM     40  O1S SGN d 403      21.902 -72.921  65.047  0.00  0.00    -0.296 OA
ATOM     41  S1  SGN d 403      22.444 -71.495  64.920  0.00  0.00     0.156 S 
ATOM     42  C5  SGN d 403      27.367 -70.437  66.339  0.00  0.00     0.066 C 
ATOM     43  H   SGN d 403      26.190 -71.078  62.692  0.00  0.00     0.210 HD
ATOM     44  H   SGN d 403      23.014 -70.264  63.360  0.00  0.00     0.231 HD
ATOM     45  H   SGN d 403      24.421 -70.446  63.976  0.00  0.00     0.076 H 
ATOM     46  H   SGN d 403      25.649 -72.627  64.359  0.00  0.00     0.085 H 
ATOM     47  H   SGN d 403      23.733 -70.825  66.588  0.00  0.00     0.140 HD
ATOM     48  H   SGN d 403      27.883 -72.317  65.477  0.00  0.00     0.040 H 
ATOM     49  H   SGN d 403      26.494 -72.366  66.549  0.00  0.00     0.040 H 
ATOM     50  H   SGN d 403      29.182 -70.141  67.439  0.00  0.00     0.080 H 
ATOM     51  H   SGN d 403      29.350 -71.193  66.053  0.00  0.00     0.080 H 
ATOM     52  H   SGN d 403      21.764 -69.609  65.427  0.00  0.00     0.231 HD
ATOM     53  H   SGN d 403      25.018 -68.575  65.048  0.00  0.00     0.131 H 
ATOM     54  H   SGN d 403      22.546 -73.545  64.677  0.00  0.00     0.231 HD
ATOM     55  H   SGN d 403      26.956 -70.336  67.322  0.00  0.00     0.086 H 
ENDROOT
TORSDOF 16
ENDMDL
MODEL 29
REMARK VINA RESULT:      -3.7      2.104      6.793
REMARK  0 active torsions:
REMARK  status: ('A' for Active; 'I' for Inactive)
REMARK       I    between atoms: O2_1  and  C2_31 
REMARK       I    between atoms: O2_1  and  S_34 
REMARK       I    between atoms: C5_3  and  C6_33 
REMARK       I    between atoms: O3_5  and  C3_13 
REMARK       I    between atoms: O3S_6  and  S1_32 
REMARK       I    between atoms: O1_7  and  C4_23 
REMARK       I    between atoms: O1_7  and  C1_27 
REMARK       I    between atoms: O6_8  and  C6_21 
REMARK       I    between atoms: O6_8  and  S2_24 
REMARK       I    between atoms: C1_9  and  O1_30 
REMARK       I    between atoms: C2_12  and  N_14 
REMARK       I    between atoms: N_14  and  S1_32 
REMARK       I    between atoms: C3_16  and  O3_29 
REMARK       I    between atoms: C6_21  and  C5_35 
REMARK       I    between atoms: O2S_26  and  S1_32 
REMARK       I    between atoms: O1S_28  and  S1_32 
ROOT
ATOM      1  O2  IDS d 402      31.496 -65.483  71.418  0.00  0.00    -0.244 OA
ATOM      2  C5  IDS d 402      30.950 -69.071  69.384  0.00  0.00     0.152 C 
ATOM      3  C1  IDS d 402      31.698 -67.902  71.290  0.00  0.00     0.158 C 
ATOM      4  O5  IDS d 402      30.666 -68.757  70.759  0.00  0.00    -0.340 OA
ATOM      5  O61 IDS d 402      28.766 -69.983  68.961  0.00  0.00    -0.646 OA
ATOM      6  C3  IDS d 402      30.642 -66.585  69.434  0.00  0.00     0.094 C 
ATOM      7  O62 IDS d 402      30.565 -71.265  68.502  0.00  0.00    -0.646 OA
ATOM      8  O3S IDS d 402      30.845 -64.512  73.653  0.00  0.00    -0.572 OA
ATOM      9  O2S IDS d 402      33.098 -65.597  73.363  0.00  0.00    -0.572 OA
ATOM     10  C4  IDS d 402      30.770 -67.813  68.530  0.00  0.00     0.103 C 
ATOM     11  O1S IDS d 402      31.012 -66.995  73.361  0.00  0.00    -0.572 OA
ATOM     12  O3  IDS d 402      30.773 -65.395  68.646  0.00  0.00    -0.390 OA
ATOM     13  O1  IDS d 402      32.987 -68.551  71.189  0.00  0.00    -0.368 OA
ATOM     14  C2  IDS d 402      31.725 -66.588  70.515  0.00  0.00     0.134 C 
ATOM     15  C6  IDS d 402      30.012 -70.201  68.903  0.00  0.00     0.206 C 
ATOM     16  S   IDS d 402      31.613 -65.647  72.947  0.00  0.00     0.252 S 
ATOM     17  H   IDS d 402      31.961 -69.410  69.288  0.00  0.00     0.104 H 
ATOM     18  H   IDS d 402      31.488 -67.706  72.320  0.00  0.00     0.133 H 
ATOM     19  H   IDS d 402      29.682 -66.613  69.906  0.00  0.00     0.091 H 
ATOM     20  H   IDS d 402      31.625 -67.692  67.896  0.00  0.00     0.092 H 
ATOM     21  H   IDS d 402      31.646 -65.382  68.223  0.00  0.00     0.210 HD
ATOM     22  H   IDS d 402      33.185 -68.732  70.258  0.00  0.00     0.212 HD
ATOM     23  H   IDS d 402      32.684 -66.487  70.052  0.00  0.00     0.097 H 
ATOM     24  O4S SGN d 403      34.885 -69.229  64.259  0.00  0.00    -0.572 OA
ATOM     25  O5  SGN d 403      30.653 -68.040  65.599  0.00  0.00    -0.352 OA
ATOM     26  O3  SGN d 403      29.116 -67.551  63.438  0.00  0.00    -0.394 OA
ATOM     27  O3S SGN d 403      26.537 -65.271  65.697  0.00  0.00    -0.296 OA
ATOM     28  O1  SGN d 403      29.588 -67.945  67.714  0.00  0.00    -0.348 OA
ATOM     29  O6  SGN d 403      32.393 -69.387  64.416  0.00  0.00    -0.254 OA
ATOM     30  O5S SGN d 403      33.686 -68.053  66.101  0.00  0.00    -0.572 OA
ATOM     31  C2  SGN d 403      28.383 -67.233  65.735  0.00  0.00     0.079 C 
ATOM     32  C3  SGN d 403      28.352 -68.148  64.500  0.00  0.00     0.058 C 
ATOM     33  N   SGN d 403      27.294 -67.564  66.670  0.00  0.00    -0.210 NA
ATOM     34  O6S SGN d 403      33.842 -70.548  66.102  0.00  0.00    -0.572 OA
ATOM     35  C4  SGN d 403      28.912 -69.536  64.825  0.00  0.00    -0.013 C 
ATOM     36  C6  SGN d 403      31.317 -70.243  64.823  0.00  0.00     0.064 C 
ATOM     37  S2  SGN d 403      33.699 -69.305  65.220  0.00  0.00     0.251 S 
ATOM     38  O2S SGN d 403      26.409 -65.619  68.167  0.00  0.00    -0.296 OA
ATOM     39  C1  SGN d 403      29.741 -67.306  66.427  0.00  0.00     0.150 C 
ATOM     40  O1S SGN d 403      24.807 -66.797  66.657  0.00  0.00    -0.296 OA
ATOM     41  S1  SGN d 403      26.245 -66.291  66.801  0.00  0.00     0.156 S 
ATOM     42  C5  SGN d 403      30.249 -69.417  65.549  0.00  0.00     0.066 C 
ATOM     43  H   SGN d 403      28.757 -66.673  63.236  0.00  0.00     0.210 HD
ATOM     44  H   SGN d 403      27.447 -64.949  65.787  0.00  0.00     0.231 HD
ATOM     45  H   SGN d 403      28.231 -66.227  65.404  0.00  0.00     0.076 H 
ATOM     46  H   SGN d 403      27.334 -68.263  64.194  0.00  0.00     0.085 H 
ATOM     47  H   SGN d 403      27.690 -67.770  67.588  0.00  0.00     0.140 HD
ATOM     48  H   SGN d 403      29.052 -70.081  63.916  0.00  0.00     0.040 H 
ATOM     49  H   SGN d 403      28.219 -70.048  65.460  0.00  0.00     0.040 H 
ATOM     50  H   SGN d 403      31.693 -70.999  65.482  0.00  0.00     0.080 H 
ATOM     51  H   SGN d 403      30.884 -70.705  63.960  0.00  0.00     0.080 H 
ATOM     52  H   SGN d 403      27.319 -65.297  68.262  0.00  0.00     0.231 HD
ATOM     53  H   SGN d 403      30.132 -66.322  66.579  0.00  0.00     0.131 H 
ATOM     54  H   SGN d 403      24.699 -67.223  65.792  0.00  0.00     0.231 HD
ATOM     55  H   SGN d 403      30.139 -69.790  66.546  0.00  0.00     0.086 H 
ENDROOT
TORSDOF 16
ENDMDL
MODEL 30
REMARK VINA RESULT:      -3.7      4.277      7.303
REMARK  0 active torsions:
REMARK  status: ('A' for Active; 'I' for Inactive)
REMARK       I    between atoms: O2_1  and  C2_31 
REMARK       I    between atoms: O2_1  and  S_34 
REMARK       I    between atoms: C5_3  and  C6_33 
REMARK       I    between atoms: O3_5  and  C3_13 
REMARK       I    between atoms: O3S_6  and  S1_32 
REMARK       I    between atoms: O1_7  and  C4_23 
REMARK       I    between atoms: O1_7  and  C1_27 
REMARK       I    between atoms: O6_8  and  C6_21 
REMARK       I    between atoms: O6_8  and  S2_24 
REMARK       I    between atoms: C1_9  and  O1_30 
REMARK       I    between atoms: C2_12  and  N_14 
REMARK       I    between atoms: N_14  and  S1_32 
REMARK       I    between atoms: C3_16  and  O3_29 
REMARK       I    between atoms: C6_21  and  C5_35 
REMARK       I    between atoms: O2S_26  and  S1_32 
REMARK       I    between atoms: O1S_28  and  S1_32 
ROOT
ATOM      1  O2  IDS d 402      28.178 -66.341  72.931  0.00  0.00    -0.244 OA
ATOM      2  C5  IDS d 402      25.727 -68.893  70.741  0.00  0.00     0.152 C 
ATOM      3  C1  IDS d 402      27.359 -68.571  72.412  0.00  0.00     0.158 C 
ATOM      4  O5  IDS d 402      25.972 -68.867  72.159  0.00  0.00    -0.340 OA
ATOM      5  O61 IDS d 402      23.334 -68.886  70.979  0.00  0.00    -0.646 OA
ATOM      6  C3  IDS d 402      26.458 -66.548  71.234  0.00  0.00     0.094 C 
ATOM      7  O62 IDS d 402      24.281 -70.529  69.756  0.00  0.00    -0.646 OA
ATOM      8  O3S IDS d 402      28.592 -65.819  75.364  0.00  0.00    -0.572 OA
ATOM      9  O2S IDS d 402      30.060 -67.477  74.168  0.00  0.00    -0.572 OA
ATOM     10  C4  IDS d 402      25.840 -67.472  70.183  0.00  0.00     0.103 C 
ATOM     11  O1S IDS d 402      27.673 -68.053  74.696  0.00  0.00    -0.572 OA
ATOM     12  O3  IDS d 402      26.834 -65.308  70.619  0.00  0.00    -0.390 OA
ATOM     13  O1  IDS d 402      28.205 -69.562  71.785  0.00  0.00    -0.368 OA
ATOM     14  C2  IDS d 402      27.697 -67.189  71.863  0.00  0.00     0.134 C 
ATOM     15  C6  IDS d 402      24.326 -69.483  70.465  0.00  0.00     0.206 C 
ATOM     16  S   IDS d 402      28.625 -66.923  74.288  0.00  0.00     0.252 S 
ATOM     17  H   IDS d 402      26.454 -69.512  70.257  0.00  0.00     0.104 H 
ATOM     18  H   IDS d 402      27.530 -68.588  73.468  0.00  0.00     0.133 H 
ATOM     19  H   IDS d 402      25.731 -66.376  72.001  0.00  0.00     0.091 H 
ATOM     20  H   IDS d 402      26.468 -67.483  69.316  0.00  0.00     0.092 H 
ATOM     21  H   IDS d 402      27.492 -65.478  69.927  0.00  0.00     0.210 HD
ATOM     22  H   IDS d 402      28.058 -69.553  70.826  0.00  0.00     0.212 HD
ATOM     23  H   IDS d 402      28.455 -67.296  71.115  0.00  0.00     0.097 H 
ATOM     24  O4S SGN d 403      27.742 -69.026  64.601  0.00  0.00    -0.572 OA
ATOM     25  O5  SGN d 403      24.861 -66.885  67.471  0.00  0.00    -0.352 OA
ATOM     26  O3  SGN d 403      23.126 -65.375  66.063  0.00  0.00    -0.394 OA
ATOM     27  O3S SGN d 403      22.375 -63.030  69.363  0.00  0.00    -0.296 OA
ATOM     28  O1  SGN d 403      24.532 -66.989  69.816  0.00  0.00    -0.348 OA
ATOM     29  O6  SGN d 403      25.535 -68.382  65.587  0.00  0.00    -0.254 OA
ATOM     30  O5S SGN d 403      27.652 -68.034  66.887  0.00  0.00    -0.572 OA
ATOM     31  C2  SGN d 403      23.225 -65.434  68.492  0.00  0.00     0.079 C 
ATOM     32  C3  SGN d 403      22.503 -65.936  67.232  0.00  0.00     0.058 C 
ATOM     33  N   SGN d 403      22.389 -65.613  69.692  0.00  0.00    -0.210 NA
ATOM     34  O6S SGN d 403      26.797 -70.350  66.493  0.00  0.00    -0.572 OA
ATOM     35  C4  SGN d 403      22.531 -67.465  67.150  0.00  0.00    -0.013 C 
ATOM     36  C6  SGN d 403      24.360 -68.906  66.220  0.00  0.00     0.064 C 
ATOM     37  S2  SGN d 403      26.929 -68.948  65.894  0.00  0.00     0.251 S 
ATOM     38  O2S SGN d 403      22.787 -63.939  71.653  0.00  0.00    -0.296 OA
ATOM     39  C1  SGN d 403      24.574 -66.129  68.655  0.00  0.00     0.150 C 
ATOM     40  O1S SGN d 403      20.508 -64.087  70.644  0.00  0.00    -0.296 OA
ATOM     41  S1  SGN d 403      22.009 -64.143  70.350  0.00  0.00     0.156 S 
ATOM     42  C5  SGN d 403      23.946 -67.988  67.376  0.00  0.00     0.066 C 
ATOM     43  H   SGN d 403      23.106 -64.408  66.119  0.00  0.00     0.210 HD
ATOM     44  H   SGN d 403      23.326 -63.064  69.176  0.00  0.00     0.231 HD
ATOM     45  H   SGN d 403      23.403 -64.385  68.375  0.00  0.00     0.076 H 
ATOM     46  H   SGN d 403      21.482 -65.623  67.283  0.00  0.00     0.085 H 
ATOM     47  H   SGN d 403      22.901 -66.167  70.379  0.00  0.00     0.140 HD
ATOM     48  H   SGN d 403      22.193 -67.772  66.183  0.00  0.00     0.040 H 
ATOM     49  H   SGN d 403      21.889 -67.864  67.909  0.00  0.00     0.040 H 
ATOM     50  H   SGN d 403      24.566 -69.885  66.599  0.00  0.00     0.080 H 
ATOM     51  H   SGN d 403      23.565 -68.959  65.506  0.00  0.00     0.080 H 
ATOM     52  H   SGN d 403      23.739 -63.974  71.470  0.00  0.00     0.231 HD
ATOM     53  H   SGN d 403      25.349 -65.405  68.796  0.00  0.00     0.131 H 
ATOM     54  H   SGN d 403      20.012 -64.216  69.820  0.00  0.00     0.231 HD
ATOM     55  H   SGN d 403      23.968 -68.546  68.289  0.00  0.00     0.086 H 
ENDROOT
TORSDOF 16
ENDMDL
MODEL 31
REMARK VINA RESULT:      -3.6      2.576      6.811
REMARK  0 active torsions:
REMARK  status: ('A' for Active; 'I' for Inactive)
REMARK       I    between atoms: O2_1  and  C2_31 
REMARK       I    between atoms: O2_1  and  S_34 
REMARK       I    between atoms: C5_3  and  C6_33 
REMARK       I    between atoms: O3_5  and  C3_13 
REMARK       I    between atoms: O3S_6  and  S1_32 
REMARK       I    between atoms: O1_7  and  C4_23 
REMARK       I    between atoms: O1_7  and  C1_27 
REMARK       I    between atoms: O6_8  and  C6_21 
REMARK       I    between atoms: O6_8  and  S2_24 
REMARK       I    between atoms: C1_9  and  O1_30 
REMARK       I    between atoms: C2_12  and  N_14 
REMARK       I    between atoms: N_14  and  S1_32 
REMARK       I    between atoms: C3_16  and  O3_29 
REMARK       I    between atoms: C6_21  and  C5_35 
REMARK       I    between atoms: O2S_26  and  S1_32 
REMARK       I    between atoms: O1S_28  and  S1_32 
ROOT
ATOM      1  O2  IDS d 402      27.110 -67.374  67.698  0.00  0.00    -0.244 OA
ATOM      2  C5  IDS d 402      30.349 -67.813  65.124  0.00  0.00     0.152 C 
ATOM      3  C1  IDS d 402      28.022 -67.630  65.459  0.00  0.00     0.158 C 
ATOM      4  O5  IDS d 402      29.206 -66.946  65.003  0.00  0.00    -0.340 OA
ATOM      5  O61 IDS d 402      31.942 -66.048  64.760  0.00  0.00    -0.646 OA
ATOM      6  C3  IDS d 402      29.521 -67.496  67.467  0.00  0.00     0.094 C 
ATOM      7  O62 IDS d 402      32.050 -67.874  63.438  0.00  0.00    -0.646 OA
ATOM      8  O3S IDS d 402      25.162 -65.793  67.959  0.00  0.00    -0.572 OA
ATOM      9  O2S IDS d 402      24.868 -67.949  66.693  0.00  0.00    -0.572 OA
ATOM     10  C4  IDS d 402      30.671 -68.020  66.606  0.00  0.00     0.103 C 
ATOM     11  O1S IDS d 402      26.249 -66.090  65.721  0.00  0.00    -0.572 OA
ATOM     12  O3  IDS d 402      29.685 -67.954  68.816  0.00  0.00    -0.390 OA
ATOM     13  O1  IDS d 402      27.811 -68.834  64.687  0.00  0.00    -0.368 OA
ATOM     14  C2  IDS d 402      28.173 -67.987  66.934  0.00  0.00     0.134 C 
ATOM     15  C6  IDS d 402      31.554 -67.193  64.380  0.00  0.00     0.206 C 
ATOM     16  S   IDS d 402      25.849 -66.803  67.018  0.00  0.00     0.252 S 
ATOM     17  H   IDS d 402      30.134 -68.763  64.682  0.00  0.00     0.104 H 
ATOM     18  H   IDS d 402      27.180 -66.983  65.332  0.00  0.00     0.133 H 
ATOM     19  H   IDS d 402      29.536 -66.426  67.435  0.00  0.00     0.091 H 
ATOM     20  H   IDS d 402      30.800 -69.066  66.795  0.00  0.00     0.092 H 
ATOM     21  H   IDS d 402      29.670 -68.924  68.831  0.00  0.00     0.210 HD
ATOM     22  H   IDS d 402      28.571 -69.426  64.797  0.00  0.00     0.212 HD
ATOM     23  H   IDS d 402      28.123 -69.052  67.032  0.00  0.00     0.097 H 
ATOM     24  O4S SGN d 403      33.042 -73.612  66.064  0.00  0.00    -0.572 OA
ATOM     25  O5  SGN d 403      33.244 -69.216  67.388  0.00  0.00    -0.352 OA
ATOM     26  O3  SGN d 403      35.500 -68.792  68.803  0.00  0.00    -0.394 OA
ATOM     27  O3S SGN d 403      33.850 -65.463  70.577  0.00  0.00    -0.296 OA
ATOM     28  O1  SGN d 403      31.889 -67.324  66.940  0.00  0.00    -0.348 OA
ATOM     29  O6  SGN d 403      34.002 -71.310  66.256  0.00  0.00    -0.254 OA
ATOM     30  O5S SGN d 403      31.573 -71.712  66.733  0.00  0.00    -0.572 OA
ATOM     31  C2  SGN d 403      33.775 -67.115  68.450  0.00  0.00     0.079 C 
ATOM     32  C3  SGN d 403      35.151 -67.641  68.015  0.00  0.00     0.058 C 
ATOM     33  N   SGN d 403      33.569 -65.727  68.002  0.00  0.00    -0.210 NA
ATOM     34  O6S SGN d 403      32.425 -71.869  64.388  0.00  0.00    -0.572 OA
ATOM     35  C4  SGN d 403      35.159 -68.009  66.528  0.00  0.00    -0.013 C 
ATOM     36  C6  SGN d 403      34.425 -70.171  65.493  0.00  0.00     0.064 C 
ATOM     37  S2  SGN d 403      32.762 -72.123  65.859  0.00  0.00     0.251 S 
ATOM     38  O2S SGN d 403      31.975 -64.256  69.451  0.00  0.00    -0.296 OA
ATOM     39  C1  SGN d 403      32.662 -68.027  67.938  0.00  0.00     0.150 C 
ATOM     40  O1S SGN d 403      34.329 -63.498  69.110  0.00  0.00    -0.296 OA
ATOM     41  S1  SGN d 403      33.427 -64.719  69.307  0.00  0.00     0.156 S 
ATOM     42  C5  SGN d 403      33.959 -68.886  66.188  0.00  0.00     0.066 C 
ATOM     43  H   SGN d 403      35.494 -68.554  69.743  0.00  0.00     0.210 HD
ATOM     44  H   SGN d 403      33.279 -66.237  70.703  0.00  0.00     0.231 HD
ATOM     45  H   SGN d 403      33.743 -67.118  69.519  0.00  0.00     0.076 H 
ATOM     46  H   SGN d 403      35.871 -66.865  68.170  0.00  0.00     0.085 H 
ATOM     47  H   SGN d 403      32.717 -65.676  67.443  0.00  0.00     0.140 HD
ATOM     48  H   SGN d 403      36.059 -68.541  66.302  0.00  0.00     0.040 H 
ATOM     49  H   SGN d 403      35.107 -67.111  65.949  0.00  0.00     0.040 H 
ATOM     50  H   SGN d 403      33.998 -70.222  64.513  0.00  0.00     0.080 H 
ATOM     51  H   SGN d 403      35.492 -70.169  65.420  0.00  0.00     0.080 H 
ATOM     52  H   SGN d 403      31.400 -65.027  69.576  0.00  0.00     0.231 HD
ATOM     53  H   SGN d 403      32.012 -68.303  68.742  0.00  0.00     0.131 H 
ATOM     54  H   SGN d 403      35.250 -63.788  69.018  0.00  0.00     0.231 HD
ATOM     55  H   SGN d 403      33.312 -68.348  65.527  0.00  0.00     0.086 H 
ENDROOT
TORSDOF 16
ENDMDL
MODEL 32
REMARK VINA RESULT:      -3.6      2.767      6.784
REMARK  0 active torsions:
REMARK  status: ('A' for Active; 'I' for Inactive)
REMARK       I    between atoms: O2_1  and  C2_31 
REMARK       I    between atoms: O2_1  and  S_34 
REMARK       I    between atoms: C5_3  and  C6_33 
REMARK       I    between atoms: O3_5  and  C3_13 
REMARK       I    between atoms: O3S_6  and  S1_32 
REMARK       I    between atoms: O1_7  and  C4_23 
REMARK       I    between atoms: O1_7  and  C1_27 
REMARK       I    between atoms: O6_8  and  C6_21 
REMARK       I    between atoms: O6_8  and  S2_24 
REMARK       I    between atoms: C1_9  and  O1_30 
REMARK       I    between atoms: C2_12  and  N_14 
REMARK       I    between atoms: N_14  and  S1_32 
REMARK       I    between atoms: C3_16  and  O3_29 
REMARK       I    between atoms: C6_21  and  C5_35 
REMARK       I    between atoms: O2S_26  and  S1_32 
REMARK       I    between atoms: O1S_28  and  S1_32 
ROOT
ATOM      1  O2  IDS d 402      23.977 -70.146  68.278  0.00  0.00    -0.244 OA
ATOM      2  C5  IDS d 402      26.695 -68.479  65.605  0.00  0.00     0.152 C 
ATOM      3  C1  IDS d 402      24.626 -69.533  66.017  0.00  0.00     0.158 C 
ATOM      4  O5  IDS d 402      25.271 -68.287  65.687  0.00  0.00    -0.340 OA
ATOM      5  O61 IDS d 402      27.185 -66.125  65.579  0.00  0.00    -0.646 OA
ATOM      6  C3  IDS d 402      26.101 -69.016  67.979  0.00  0.00     0.094 C 
ATOM      7  O62 IDS d 402      28.000 -67.403  63.909  0.00  0.00    -0.646 OA
ATOM      8  O3S IDS d 402      21.555 -69.809  68.898  0.00  0.00    -0.572 OA
ATOM      9  O2S IDS d 402      22.188 -71.577  67.222  0.00  0.00    -0.572 OA
ATOM     10  C4  IDS d 402      27.251 -68.747  67.006  0.00  0.00     0.103 C 
ATOM     11  O1S IDS d 402      22.376 -69.145  66.625  0.00  0.00    -0.572 OA
ATOM     12  O3  IDS d 402      26.625 -69.553  69.201  0.00  0.00    -0.390 OA
ATOM     13  O1  IDS d 402      24.930 -70.534  65.018  0.00  0.00    -0.368 OA
ATOM     14  C2  IDS d 402      25.105 -70.013  67.383  0.00  0.00     0.134 C 
ATOM     15  C6  IDS d 402      27.354 -67.229  64.981  0.00  0.00     0.206 C 
ATOM     16  S   IDS d 402      22.526 -70.169  67.755  0.00  0.00     0.252 S 
ATOM     17  H   IDS d 402      26.913 -69.321  64.981  0.00  0.00     0.104 H 
ATOM     18  H   IDS d 402      23.568 -69.379  66.042  0.00  0.00     0.133 H 
ATOM     19  H   IDS d 402      25.596 -68.092  68.167  0.00  0.00     0.091 H 
ATOM     20  H   IDS d 402      27.889 -69.606  66.973  0.00  0.00     0.092 H 
ATOM     21  H   IDS d 402      27.081 -70.389  69.017  0.00  0.00     0.210 HD
ATOM     22  H   IDS d 402      25.888 -70.680  64.989  0.00  0.00     0.212 HD
ATOM     23  H   IDS d 402      25.586 -70.961  67.261  0.00  0.00     0.097 H 
ATOM     24  O4S SGN d 403      31.938 -72.244  65.278  0.00  0.00    -0.572 OA
ATOM     25  O5  SGN d 403      30.153 -68.623  67.474  0.00  0.00    -0.352 OA
ATOM     26  O3  SGN d 403      32.077 -67.383  68.900  0.00  0.00    -0.394 OA
ATOM     27  O3S SGN d 403      29.251 -65.664  71.353  0.00  0.00    -0.296 OA
ATOM     28  O1  SGN d 403      28.012 -67.606  67.452  0.00  0.00    -0.348 OA
ATOM     29  O6  SGN d 403      31.685 -69.840  65.920  0.00  0.00    -0.254 OA
ATOM     30  O5S SGN d 403      29.827 -71.467  66.353  0.00  0.00    -0.572 OA
ATOM     31  C2  SGN d 403      29.729 -66.749  68.934  0.00  0.00     0.079 C 
ATOM     32  C3  SGN d 403      31.126 -66.441  68.373  0.00  0.00     0.058 C 
ATOM     33  N   SGN d 403      28.828 -65.593  68.785  0.00  0.00    -0.210 NA
ATOM     34  O6S SGN d 403      30.363 -70.782  64.009  0.00  0.00    -0.572 OA
ATOM     35  C4  SGN d 403      31.133 -66.500  66.842  0.00  0.00    -0.013 C 
ATOM     36  C6  SGN d 403      31.413 -68.531  65.400  0.00  0.00     0.064 C 
ATOM     37  S2  SGN d 403      30.953 -71.080  65.389  0.00  0.00     0.251 S 
ATOM     38  O2S SGN d 403      26.908 -65.375  70.538  0.00  0.00    -0.296 OA
ATOM     39  C1  SGN d 403      29.141 -67.991  68.268  0.00  0.00     0.150 C 
ATOM     40  O1S SGN d 403      28.547 -63.504  70.313  0.00  0.00    -0.296 OA
ATOM     41  S1  SGN d 403      28.375 -65.025  70.272  0.00  0.00     0.156 S 
ATOM     42  C5  SGN d 403      30.472 -67.785  66.353  0.00  0.00     0.066 C 
ATOM     43  H   SGN d 403      32.069 -67.342  69.869  0.00  0.00     0.210 HD
ATOM     44  H   SGN d 403      29.143 -66.627  71.329  0.00  0.00     0.231 HD
ATOM     45  H   SGN d 403      29.830 -66.949  69.980  0.00  0.00     0.076 H 
ATOM     46  H   SGN d 403      31.396 -65.450  68.670  0.00  0.00     0.085 H 
ATOM     47  H   SGN d 403      27.998 -65.877  68.266  0.00  0.00     0.140 HD
ATOM     48  H   SGN d 403      32.144 -66.469  66.493  0.00  0.00     0.040 H 
ATOM     49  H   SGN d 403      30.586 -65.663  66.461  0.00  0.00     0.040 H 
ATOM     50  H   SGN d 403      30.951 -68.620  64.439  0.00  0.00     0.080 H 
ATOM     51  H   SGN d 403      32.330 -67.988  65.307  0.00  0.00     0.080 H 
ATOM     52  H   SGN d 403      26.796 -66.338  70.513  0.00  0.00     0.231 HD
ATOM     53  H   SGN d 403      28.804 -68.684  69.011  0.00  0.00     0.131 H 
ATOM     54  H   SGN d 403      29.475 -63.279  70.145  0.00  0.00     0.231 HD
ATOM     55  H   SGN d 403      29.573 -67.535  65.830  0.00  0.00     0.086 H 
ENDROOT
TORSDOF 16
ENDMDL
MODEL 33
REMARK VINA RESULT:      -3.6      3.977      7.151
REMARK  0 active torsions:
REMARK  status: ('A' for Active; 'I' for Inactive)
REMARK       I    between atoms: O2_1  and  C2_31 
REMARK       I    between atoms: O2_1  and  S_34 
REMARK       I    between atoms: C5_3  and  C6_33 
REMARK       I    between atoms: O3_5  and  C3_13 
REMARK       I    between atoms: O3S_6  and  S1_32 
REMARK       I    between atoms: O1_7  and  C4_23 
REMARK       I    between atoms: O1_7  and  C1_27 
REMARK       I    between atoms: O6_8  and  C6_21 
REMARK       I    between atoms: O6_8  and  S2_24 
REMARK       I    between atoms: C1_9  and  O1_30 
REMARK       I    between atoms: C2_12  and  N_14 
REMARK       I    between atoms: N_14  and  S1_32 
REMARK       I    between atoms: C3_16  and  O3_29 
REMARK       I    between atoms: C6_21  and  C5_35 
REMARK       I    between atoms: O2S_26  and  S1_32 
REMARK       I    between atoms: O1S_28  and  S1_32 
ROOT
ATOM      1  O2  IDS d 402      27.783 -71.510  65.528  0.00  0.00    -0.244 OA
ATOM      2  C5  IDS d 402      27.022 -67.700  67.019  0.00  0.00     0.152 C 
ATOM      3  C1  IDS d 402      28.538 -69.285  66.151  0.00  0.00     0.158 C 
ATOM      4  O5  IDS d 402      27.792 -68.085  65.865  0.00  0.00    -0.340 OA
ATOM      5  O61 IDS d 402      25.697 -66.095  65.814  0.00  0.00    -0.646 OA
ATOM      6  C3  IDS d 402      26.126 -69.944  66.356  0.00  0.00     0.094 C 
ATOM      7  O62 IDS d 402      26.798 -65.402  67.657  0.00  0.00    -0.646 OA
ATOM      8  O3S IDS d 402      28.783 -72.507  63.438  0.00  0.00    -0.572 OA
ATOM      9  O2S IDS d 402      30.218 -72.165  65.477  0.00  0.00    -0.572 OA
ATOM     10  C4  IDS d 402      25.895 -68.714  67.235  0.00  0.00     0.103 C 
ATOM     11  O1S IDS d 402      29.413 -70.190  64.152  0.00  0.00    -0.572 OA
ATOM     12  O3  IDS d 402      25.251 -71.001  66.772  0.00  0.00    -0.390 OA
ATOM     13  O1  IDS d 402      29.416 -69.071  67.280  0.00  0.00    -0.368 OA
ATOM     14  C2  IDS d 402      27.574 -70.426  66.462  0.00  0.00     0.134 C 
ATOM     15  C6  IDS d 402      26.452 -66.279  66.814  0.00  0.00     0.206 C 
ATOM     16  S   IDS d 402      29.048 -71.592  64.650  0.00  0.00     0.252 S 
ATOM     17  H   IDS d 402      27.647 -67.690  67.887  0.00  0.00     0.104 H 
ATOM     18  H   IDS d 402      29.128 -69.537  65.295  0.00  0.00     0.133 H 
ATOM     19  H   IDS d 402      25.924 -69.675  65.340  0.00  0.00     0.091 H 
ATOM     20  H   IDS d 402      25.885 -69.015  68.262  0.00  0.00     0.092 H 
ATOM     21  H   IDS d 402      25.443 -71.235  67.694  0.00  0.00     0.210 HD
ATOM     22  H   IDS d 402      28.889 -68.842  68.061  0.00  0.00     0.212 HD
ATOM     23  H   IDS d 402      27.760 -70.765  67.459  0.00  0.00     0.097 H 
ATOM     24  O4S SGN d 403      25.538 -68.130  73.295  0.00  0.00    -0.572 OA
ATOM     25  O5  SGN d 403      23.696 -68.080  69.085  0.00  0.00    -0.352 OA
ATOM     26  O3  SGN d 403      21.023 -67.769  69.263  0.00  0.00    -0.394 OA
ATOM     27  O3S SGN d 403      20.512 -69.388  65.512  0.00  0.00    -0.296 OA
ATOM     28  O1  SGN d 403      24.628 -68.108  66.906  0.00  0.00    -0.348 OA
ATOM     29  O6  SGN d 403      24.240 -67.213  71.364  0.00  0.00    -0.254 OA
ATOM     30  O5S SGN d 403      25.860 -69.096  71.018  0.00  0.00    -0.572 OA
ATOM     31  C2  SGN d 403      22.219 -68.136  67.177  0.00  0.00     0.079 C 
ATOM     32  C3  SGN d 403      21.552 -67.106  68.101  0.00  0.00     0.058 C 
ATOM     33  N   SGN d 403      22.381 -67.602  65.813  0.00  0.00    -0.210 NA
ATOM     34  O6S SGN d 403      26.707 -66.801  71.536  0.00  0.00    -0.572 OA
ATOM     35  C4  SGN d 403      22.545 -66.022  68.531  0.00  0.00    -0.013 C 
ATOM     36  C6  SGN d 403      24.171 -66.120  70.437  0.00  0.00     0.064 C 
ATOM     37  S2  SGN d 403      25.585 -67.808  71.801  0.00  0.00     0.251 S 
ATOM     38  O2S SGN d 403      22.395 -69.344  63.871  0.00  0.00    -0.296 OA
ATOM     39  C1  SGN d 403      23.559 -68.589  67.751  0.00  0.00     0.150 C 
ATOM     40  O1S SGN d 403      20.677 -67.532  63.848  0.00  0.00    -0.296 OA
ATOM     41  S1  SGN d 403      21.477 -68.482  64.743  0.00  0.00     0.156 S 
ATOM     42  C5  SGN d 403      23.838 -66.653  69.038  0.00  0.00     0.066 C 
ATOM     43  H   SGN d 403      20.395 -68.454  68.986  0.00  0.00     0.210 HD
ATOM     44  H   SGN d 403      21.017 -69.991  66.079  0.00  0.00     0.231 HD
ATOM     45  H   SGN d 403      21.577 -68.990  67.116  0.00  0.00     0.076 H 
ATOM     46  H   SGN d 403      20.758 -66.635  67.561  0.00  0.00     0.085 H 
ATOM     47  H   SGN d 403      23.364 -67.654  65.546  0.00  0.00     0.140 HD
ATOM     48  H   SGN d 403      22.110 -65.436  69.313  0.00  0.00     0.040 H 
ATOM     49  H   SGN d 403      22.769 -65.403  67.687  0.00  0.00     0.040 H 
ATOM     50  H   SGN d 403      25.115 -65.616  70.411  0.00  0.00     0.080 H 
ATOM     51  H   SGN d 403      23.409 -65.437  70.748  0.00  0.00     0.080 H 
ATOM     52  H   SGN d 403      22.903 -69.947  64.435  0.00  0.00     0.231 HD
ATOM     53  H   SGN d 403      23.605 -69.657  67.785  0.00  0.00     0.131 H 
ATOM     54  H   SGN d 403      20.094 -66.984  64.397  0.00  0.00     0.231 HD
ATOM     55  H   SGN d 403      24.634 -66.397  68.370  0.00  0.00     0.086 H 
ENDROOT
TORSDOF 16
ENDMDL
MODEL 34
REMARK VINA RESULT:      -3.6      2.889      5.739
REMARK  0 active torsions:
REMARK  status: ('A' for Active; 'I' for Inactive)
REMARK       I    between atoms: O2_1  and  C2_31 
REMARK       I    between atoms: O2_1  and  S_34 
REMARK       I    between atoms: C5_3  and  C6_33 
REMARK       I    between atoms: O3_5  and  C3_13 
REMARK       I    between atoms: O3S_6  and  S1_32 
REMARK       I    between atoms: O1_7  and  C4_23 
REMARK       I    between atoms: O1_7  and  C1_27 
REMARK       I    between atoms: O6_8  and  C6_21 
REMARK       I    between atoms: O6_8  and  S2_24 
REMARK       I    between atoms: C1_9  and  O1_30 
REMARK       I    between atoms: C2_12  and  N_14 
REMARK       I    between atoms: N_14  and  S1_32 
REMARK       I    between atoms: C3_16  and  O3_29 
REMARK       I    between atoms: C6_21  and  C5_35 
REMARK       I    between atoms: O2S_26  and  S1_32 
REMARK       I    between atoms: O1S_28  and  S1_32 
ROOT
ATOM      1  O2  IDS d 402      31.749 -69.453  65.533  0.00  0.00    -0.244 OA
ATOM      2  C5  IDS d 402      28.478 -67.007  66.327  0.00  0.00     0.152 C 
ATOM      3  C1  IDS d 402      30.610 -67.311  65.368  0.00  0.00     0.158 C 
ATOM      4  O5  IDS d 402      29.201 -67.182  65.095  0.00  0.00    -0.340 OA
ATOM      5  O61 IDS d 402      26.326 -67.380  65.319  0.00  0.00    -0.646 OA
ATOM      6  C3  IDS d 402      29.536 -69.270  66.508  0.00  0.00     0.094 C 
ATOM      7  O62 IDS d 402      26.642 -65.476  66.488  0.00  0.00    -0.646 OA
ATOM      8  O3S IDS d 402      33.026 -70.223  63.499  0.00  0.00    -0.572 OA
ATOM      9  O2S IDS d 402      33.836 -68.234  64.812  0.00  0.00    -0.572 OA
ATOM     10  C4  IDS d 402      28.514 -68.313  67.124  0.00  0.00     0.103 C 
ATOM     11  O1S IDS d 402      31.741 -68.073  63.438  0.00  0.00    -0.572 OA
ATOM     12  O3  IDS d 402      29.782 -70.355  67.414  0.00  0.00    -0.390 OA
ATOM     13  O1  IDS d 402      31.096 -66.139  66.061  0.00  0.00    -0.368 OA
ATOM     14  C2  IDS d 402      30.855 -68.550  66.223  0.00  0.00     0.134 C 
ATOM     15  C6  IDS d 402      27.022 -66.588  66.022  0.00  0.00     0.206 C 
ATOM     16  S   IDS d 402      32.587 -68.995  64.322  0.00  0.00     0.252 S 
ATOM     17  H   IDS d 402      28.934 -66.235  66.911  0.00  0.00     0.104 H 
ATOM     18  H   IDS d 402      31.134 -67.408  64.440  0.00  0.00     0.133 H 
ATOM     19  H   IDS d 402      29.138 -69.641  65.586  0.00  0.00     0.091 H 
ATOM     20  H   IDS d 402      28.798 -68.102  68.135  0.00  0.00     0.092 H 
ATOM     21  H   IDS d 402      30.142 -70.006  68.245  0.00  0.00     0.210 HD
ATOM     22  H   IDS d 402      30.626 -66.044  66.904  0.00  0.00     0.212 HD
ATOM     23  H   IDS d 402      31.294 -68.241  67.149  0.00  0.00     0.097 H 
ATOM     24  O4S SGN d 403      28.217 -65.797  72.671  0.00  0.00    -0.572 OA
ATOM     25  O5  SGN d 403      26.709 -68.674  69.420  0.00  0.00    -0.352 OA
ATOM     26  O3  SGN d 403      24.732 -70.217  70.413  0.00  0.00    -0.394 OA
ATOM     27  O3S SGN d 403      25.381 -73.052  67.499  0.00  0.00    -0.296 OA
ATOM     28  O1  SGN d 403      27.206 -68.923  67.116  0.00  0.00    -0.348 OA
ATOM     29  O6  SGN d 403      26.555 -66.866  71.138  0.00  0.00    -0.254 OA
ATOM     30  O5S SGN d 403      29.012 -67.080  70.686  0.00  0.00    -0.572 OA
ATOM     31  C2  SGN d 403      25.663 -70.461  68.180  0.00  0.00     0.079 C 
ATOM     32  C3  SGN d 403      24.508 -69.905  69.027  0.00  0.00     0.058 C 
ATOM     33  N   SGN d 403      25.283 -70.558  66.760  0.00  0.00    -0.210 NA
ATOM     34  O6S SGN d 403      27.875 -64.875  70.377  0.00  0.00    -0.572 OA
ATOM     35  C4  SGN d 403      24.372 -68.390  68.852  0.00  0.00    -0.013 C 
ATOM     36  C6  SGN d 403      25.631 -66.599  70.074  0.00  0.00     0.064 C 
ATOM     37  S2  SGN d 403      27.913 -66.155  71.216  0.00  0.00     0.251 S 
ATOM     38  O2S SGN d 403      26.481 -72.400  65.353  0.00  0.00    -0.296 OA
ATOM     39  C1  SGN d 403      26.918 -69.610  68.354  0.00  0.00     0.150 C 
ATOM     40  O1S SGN d 403      23.990 -72.442  65.515  0.00  0.00    -0.296 OA
ATOM     41  S1  SGN d 403      25.285 -72.139  66.273  0.00  0.00     0.156 S 
ATOM     42  C5  SGN d 403      25.726 -67.708  69.020  0.00  0.00     0.066 C 
ATOM     43  H   SGN d 403      24.817 -71.177  70.519  0.00  0.00     0.210 HD
ATOM     44  H   SGN d 403      26.201 -72.861  67.980  0.00  0.00     0.231 HD
ATOM     45  H   SGN d 403      25.880 -71.450  68.525  0.00  0.00     0.076 H 
ATOM     46  H   SGN d 403      23.599 -70.362  68.696  0.00  0.00     0.085 H 
ATOM     47  H   SGN d 403      25.951 -70.031  66.196  0.00  0.00     0.140 HD
ATOM     48  H   SGN d 403      23.693 -68.010  69.587  0.00  0.00     0.040 H 
ATOM     49  H   SGN d 403      24.001 -68.187  67.869  0.00  0.00     0.040 H 
ATOM     50  H   SGN d 403      25.869 -65.657  69.624  0.00  0.00     0.080 H 
ATOM     51  H   SGN d 403      24.636 -66.565  70.466  0.00  0.00     0.080 H 
ATOM     52  H   SGN d 403      27.304 -72.209  65.830  0.00  0.00     0.231 HD
ATOM     53  H   SGN d 403      27.754 -70.231  68.602  0.00  0.00     0.131 H 
ATOM     54  H   SGN d 403      23.230 -72.279  66.095  0.00  0.00     0.231 HD
ATOM     55  H   SGN d 403      26.015 -67.276  68.084  0.00  0.00     0.086 H 
ENDROOT
TORSDOF 16
ENDMDL
MODEL 35
REMARK VINA RESULT:      -3.6      1.938      2.509
REMARK  0 active torsions:
REMARK  status: ('A' for Active; 'I' for Inactive)
REMARK       I    between atoms: O2_1  and  C2_31 
REMARK       I    between atoms: O2_1  and  S_34 
REMARK       I    between atoms: C5_3  and  C6_33 
REMARK       I    between atoms: O3_5  and  C3_13 
REMARK       I    between atoms: O3S_6  and  S1_32 
REMARK       I    between atoms: O1_7  and  C4_23 
REMARK       I    between atoms: O1_7  and  C1_27 
REMARK       I    between atoms: O6_8  and  C6_21 
REMARK       I    between atoms: O6_8  and  S2_24 
REMARK       I    between atoms: C1_9  and  O1_30 
REMARK       I    between atoms: C2_12  and  N_14 
REMARK       I    between atoms: N_14  and  S1_32 
REMARK       I    between atoms: C3_16  and  O3_29 
REMARK       I    between atoms: C6_21  and  C5_35 
REMARK       I    between atoms: O2S_26  and  S1_32 
REMARK       I    between atoms: O1S_28  and  S1_32 
ROOT
ATOM      1  O2  IDS d 402      32.090 -68.269  64.982  0.00  0.00    -0.244 OA
ATOM      2  C5  IDS d 402      29.559 -70.197  67.663  0.00  0.00     0.152 C 
ATOM      3  C1  IDS d 402      31.357 -70.277  66.140  0.00  0.00     0.158 C 
ATOM      4  O5  IDS d 402      30.989 -70.299  67.533  0.00  0.00    -0.340 OA
ATOM      5  O61 IDS d 402      29.631 -69.765  70.028  0.00  0.00    -0.646 OA
ATOM      6  C3  IDS d 402      30.268 -68.058  66.568  0.00  0.00     0.094 C 
ATOM      7  O62 IDS d 402      28.362 -71.480  69.294  0.00  0.00    -0.646 OA
ATOM      8  O3S IDS d 402      34.577 -67.974  64.679  0.00  0.00    -0.572 OA
ATOM      9  O2S IDS d 402      33.368 -69.801  63.439  0.00  0.00    -0.572 OA
ATOM     10  C4  IDS d 402      29.113 -68.791  67.254  0.00  0.00     0.103 C 
ATOM     11  O1S IDS d 402      33.688 -69.959  65.924  0.00  0.00    -0.572 OA
ATOM     12  O3  IDS d 402      29.771 -66.875  65.928  0.00  0.00    -0.390 OA
ATOM     13  O1  IDS d 402      30.720 -71.368  65.437  0.00  0.00    -0.368 OA
ATOM     14  C2  IDS d 402      30.933 -68.951  65.518  0.00  0.00     0.134 C 
ATOM     15  C6  IDS d 402      29.145 -70.503  69.120  0.00  0.00     0.206 C 
ATOM     16  S   IDS d 402      33.429 -69.001  64.756  0.00  0.00     0.252 S 
ATOM     17  H   IDS d 402      29.083 -70.909  67.022  0.00  0.00     0.104 H 
ATOM     18  H   IDS d 402      32.418 -70.387  66.062  0.00  0.00     0.133 H 
ATOM     19  H   IDS d 402      30.993 -67.800  67.312  0.00  0.00     0.091 H 
ATOM     20  H   IDS d 402      28.293 -68.867  66.570  0.00  0.00     0.092 H 
ATOM     21  H   IDS d 402      29.116 -67.122  65.257  0.00  0.00     0.210 HD
ATOM     22  H   IDS d 402      29.757 -71.277  65.503  0.00  0.00     0.212 HD
ATOM     23  H   IDS d 402      30.234 -69.152  64.734  0.00  0.00     0.097 H 
ATOM     24  O4S SGN d 403      23.579 -70.340  65.215  0.00  0.00    -0.572 OA
ATOM     25  O5  SGN d 403      26.389 -67.878  67.891  0.00  0.00    -0.352 OA
ATOM     26  O3  SGN d 403      24.977 -65.996  69.209  0.00  0.00    -0.394 OA
ATOM     27  O3S SGN d 403      28.378 -63.749  69.794  0.00  0.00    -0.296 OA
ATOM     28  O1  SGN d 403      28.693 -68.056  68.421  0.00  0.00    -0.348 OA
ATOM     29  O6  SGN d 403      24.454 -69.361  67.344  0.00  0.00    -0.254 OA
ATOM     30  O5S SGN d 403      25.918 -69.483  65.312  0.00  0.00    -0.572 OA
ATOM     31  C2  SGN d 403      27.397 -66.213  69.318  0.00  0.00     0.079 C 
ATOM     32  C3  SGN d 403      26.057 -66.500  70.014  0.00  0.00     0.058 C 
ATOM     33  N   SGN d 403      28.520 -66.305  70.267  0.00  0.00    -0.210 NA
ATOM     34  O6S SGN d 403      25.301 -71.576  66.531  0.00  0.00    -0.572 OA
ATOM     35  C4  SGN d 403      25.868 -68.001  70.253  0.00  0.00    -0.013 C 
ATOM     36  C6  SGN d 403      24.965 -69.696  68.642  0.00  0.00     0.064 C 
ATOM     37  S2  SGN d 403      24.814 -70.190  66.103  0.00  0.00     0.251 S 
ATOM     38  O2S SGN d 403      30.619 -64.849  69.736  0.00  0.00    -0.296 OA
ATOM     39  C1  SGN d 403      27.602 -67.152  68.133  0.00  0.00     0.150 C 
ATOM     40  O1S SGN d 403      29.448 -64.519  71.916  0.00  0.00    -0.296 OA
ATOM     41  S1  SGN d 403      29.254 -64.831  70.430  0.00  0.00     0.156 S 
ATOM     42  C5  SGN d 403      26.153 -68.786  68.977  0.00  0.00     0.066 C 
ATOM     43  H   SGN d 403      25.101 -65.046  69.061  0.00  0.00     0.210 HD
ATOM     44  H   SGN d 403      28.255 -63.946  68.852  0.00  0.00     0.231 HD
ATOM     45  H   SGN d 403      27.368 -65.210  68.947  0.00  0.00     0.076 H 
ATOM     46  H   SGN d 403      26.061 -66.009  70.964  0.00  0.00     0.085 H 
ATOM     47  H   SGN d 403      29.199 -66.983  69.919  0.00  0.00     0.140 HD
ATOM     48  H   SGN d 403      24.861 -68.184  70.562  0.00  0.00     0.040 H 
ATOM     49  H   SGN d 403      26.550 -68.319  71.015  0.00  0.00     0.040 H 
ATOM     50  H   SGN d 403      25.286 -70.717  68.645  0.00  0.00     0.080 H 
ATOM     51  H   SGN d 403      24.196 -69.561  69.373  0.00  0.00     0.080 H 
ATOM     52  H   SGN d 403      30.501 -65.047  68.794  0.00  0.00     0.231 HD
ATOM     53  H   SGN d 403      27.847 -66.592  67.255  0.00  0.00     0.131 H 
ATOM     54  H   SGN d 403      28.585 -64.506  72.359  0.00  0.00     0.231 HD
ATOM     55  H   SGN d 403      27.023 -69.391  69.129  0.00  0.00     0.086 H 
ENDROOT
TORSDOF 16
ENDMDL
MODEL 36
REMARK VINA RESULT:      -3.6      2.877      7.707
REMARK  0 active torsions:
REMARK  status: ('A' for Active; 'I' for Inactive)
REMARK       I    between atoms: O2_1  and  C2_31 
REMARK       I    between atoms: O2_1  and  S_34 
REMARK       I    between atoms: C5_3  and  C6_33 
REMARK       I    between atoms: O3_5  and  C3_13 
REMARK       I    between atoms: O3S_6  and  S1_32 
REMARK       I    between atoms: O1_7  and  C4_23 
REMARK       I    between atoms: O1_7  and  C1_27 
REMARK       I    between atoms: O6_8  and  C6_21 
REMARK       I    between atoms: O6_8  and  S2_24 
REMARK       I    between atoms: C1_9  and  O1_30 
REMARK       I    between atoms: C2_12  and  N_14 
REMARK       I    between atoms: N_14  and  S1_32 
REMARK       I    between atoms: C3_16  and  O3_29 
REMARK       I    between atoms: C6_21  and  C5_35 
REMARK       I    between atoms: O2S_26  and  S1_32 
REMARK       I    between atoms: O1S_28  and  S1_32 
ROOT
ATOM      1  O2  IDS d 402      28.353 -65.142  69.644  0.00  0.00    -0.244 OA
ATOM      2  C5  IDS d 402      32.355 -66.161  69.132  0.00  0.00     0.152 C 
ATOM      3  C1  IDS d 402      30.681 -65.015  70.334  0.00  0.00     0.158 C 
ATOM      4  O5  IDS d 402      31.570 -66.150  70.338  0.00  0.00    -0.340 OA
ATOM      5  O61 IDS d 402      33.159 -68.402  69.470  0.00  0.00    -0.646 OA
ATOM      6  C3  IDS d 402      29.982 -66.406  68.367  0.00  0.00     0.094 C 
ATOM      7  O62 IDS d 402      34.674 -66.760  69.161  0.00  0.00    -0.646 OA
ATOM      8  O3S IDS d 402      26.629 -65.301  71.478  0.00  0.00    -0.572 OA
ATOM      9  O2S IDS d 402      27.944 -63.177  71.170  0.00  0.00    -0.572 OA
ATOM     10  C4  IDS d 402      31.449 -66.489  67.942  0.00  0.00     0.103 C 
ATOM     11  O1S IDS d 402      29.069 -65.244  72.046  0.00  0.00    -0.572 OA
ATOM     12  O3  IDS d 402      29.146 -66.418  67.202  0.00  0.00    -0.390 OA
ATOM     13  O1  IDS d 402      31.437 -63.787  70.228  0.00  0.00    -0.368 OA
ATOM     14  C2  IDS d 402      29.715 -65.124  69.158  0.00  0.00     0.134 C 
ATOM     15  C6  IDS d 402      33.493 -67.198  69.261  0.00  0.00     0.206 C 
ATOM     16  S   IDS d 402      28.000 -64.716  71.083  0.00  0.00     0.252 S 
ATOM     17  H   IDS d 402      32.794 -65.198  68.974  0.00  0.00     0.104 H 
ATOM     18  H   IDS d 402      30.129 -65.005  71.250  0.00  0.00     0.133 H 
ATOM     19  H   IDS d 402      29.763 -67.249  68.989  0.00  0.00     0.091 H 
ATOM     20  H   IDS d 402      31.627 -65.781  67.159  0.00  0.00     0.092 H 
ATOM     21  H   IDS d 402      29.354 -65.651  66.647  0.00  0.00     0.210 HD
ATOM     22  H   IDS d 402      31.940 -63.788  69.399  0.00  0.00     0.212 HD
ATOM     23  H   IDS d 402      29.862 -64.279  68.519  0.00  0.00     0.097 H 
ATOM     24  O4S SGN d 403      34.588 -63.368  63.748  0.00  0.00    -0.572 OA
ATOM     25  O5  SGN d 403      32.645 -67.211  65.352  0.00  0.00    -0.352 OA
ATOM     26  O3  SGN d 403      32.782 -69.151  63.484  0.00  0.00    -0.394 OA
ATOM     27  O3S SGN d 403      29.652 -71.167  65.242  0.00  0.00    -0.296 OA
ATOM     28  O1  SGN d 403      31.744 -67.816  67.459  0.00  0.00    -0.348 OA
ATOM     29  O6  SGN d 403      34.461 -65.777  64.412  0.00  0.00    -0.254 OA
ATOM     30  O5S SGN d 403      32.756 -64.141  65.252  0.00  0.00    -0.572 OA
ATOM     31  C2  SGN d 403      31.641 -69.390  65.618  0.00  0.00     0.079 C 
ATOM     32  C3  SGN d 403      32.913 -69.691  64.810  0.00  0.00     0.058 C 
ATOM     33  N   SGN d 403      31.537 -70.269  66.796  0.00  0.00    -0.210 NA
ATOM     34  O6S SGN d 403      35.107 -64.034  66.096  0.00  0.00    -0.572 OA
ATOM     35  C4  SGN d 403      34.153 -69.101  65.490  0.00  0.00    -0.013 C 
ATOM     36  C6  SGN d 403      35.030 -66.762  65.286  0.00  0.00     0.064 C 
ATOM     37  S2  SGN d 403      34.229 -64.332  64.878  0.00  0.00     0.251 S 
ATOM     38  O2S SGN d 403      29.130 -70.791  67.655  0.00  0.00    -0.296 OA
ATOM     39  C1  SGN d 403      31.596 -67.919  66.026  0.00  0.00     0.150 C 
ATOM     40  O1S SGN d 403      30.603 -72.691  66.980  0.00  0.00    -0.296 OA
ATOM     41  S1  SGN d 403      30.208 -71.245  66.667  0.00  0.00     0.156 S 
ATOM     42  C5  SGN d 403      33.915 -67.642  65.863  0.00  0.00     0.066 C 
ATOM     43  H   SGN d 403      31.997 -69.527  63.058  0.00  0.00     0.210 HD
ATOM     44  H   SGN d 403      29.401 -70.252  65.043  0.00  0.00     0.231 HD
ATOM     45  H   SGN d 403      30.797 -69.588  64.991  0.00  0.00     0.076 H 
ATOM     46  H   SGN d 403      33.034 -70.752  64.759  0.00  0.00     0.085 H 
ATOM     47  H   SGN d 403      31.455 -69.697  67.637  0.00  0.00     0.140 HD
ATOM     48  H   SGN d 403      34.984 -69.162  64.819  0.00  0.00     0.040 H 
ATOM     49  H   SGN d 403      34.357 -69.658  66.381  0.00  0.00     0.040 H 
ATOM     50  H   SGN d 403      35.548 -66.272  66.085  0.00  0.00     0.080 H 
ATOM     51  H   SGN d 403      35.716 -67.371  64.736  0.00  0.00     0.080 H 
ATOM     52  H   SGN d 403      28.877 -69.875  67.460  0.00  0.00     0.231 HD
ATOM     53  H   SGN d 403      30.657 -67.487  65.748  0.00  0.00     0.131 H 
ATOM     54  H   SGN d 403      31.285 -72.982  66.355  0.00  0.00     0.231 HD
ATOM     55  H   SGN d 403      33.917 -67.552  66.929  0.00  0.00     0.086 H 
ENDROOT
TORSDOF 16
ENDMDL
MODEL 37
REMARK VINA RESULT:      -3.6      3.045      7.041
REMARK  0 active torsions:
REMARK  status: ('A' for Active; 'I' for Inactive)
REMARK       I    between atoms: O2_1  and  C2_31 
REMARK       I    between atoms: O2_1  and  S_34 
REMARK       I    between atoms: C5_3  and  C6_33 
REMARK       I    between atoms: O3_5  and  C3_13 
REMARK       I    between atoms: O3S_6  and  S1_32 
REMARK       I    between atoms: O1_7  and  C4_23 
REMARK       I    between atoms: O1_7  and  C1_27 
REMARK       I    between atoms: O6_8  and  C6_21 
REMARK       I    between atoms: O6_8  and  S2_24 
REMARK       I    between atoms: C1_9  and  O1_30 
REMARK       I    between atoms: C2_12  and  N_14 
REMARK       I    between atoms: N_14  and  S1_32 
REMARK       I    between atoms: C3_16  and  O3_29 
REMARK       I    between atoms: C6_21  and  C5_35 
REMARK       I    between atoms: O2S_26  and  S1_32 
REMARK       I    between atoms: O1S_28  and  S1_32 
ROOT
ATOM      1  O2  IDS d 402      28.267 -66.836  73.703  0.00  0.00    -0.244 OA
ATOM      2  C5  IDS d 402      27.960 -69.172  70.273  0.00  0.00     0.152 C 
ATOM      3  C1  IDS d 402      28.714 -68.895  72.490  0.00  0.00     0.158 C 
ATOM      4  O5  IDS d 402      27.743 -69.545  71.646  0.00  0.00    -0.340 OA
ATOM      5  O61 IDS d 402      25.859 -70.067  69.517  0.00  0.00    -0.646 OA
ATOM      6  C3  IDS d 402      27.395 -67.033  71.449  0.00  0.00     0.094 C 
ATOM      7  O62 IDS d 402      27.747 -70.768  68.500  0.00  0.00    -0.646 OA
ATOM      8  O3S IDS d 402      27.678 -67.059  76.146  0.00  0.00    -0.572 OA
ATOM      9  O2S IDS d 402      30.006 -67.605  75.360  0.00  0.00    -0.572 OA
ATOM     10  C4  IDS d 402      27.587 -67.699  70.085  0.00  0.00     0.103 C 
ATOM     11  O1S IDS d 402      28.085 -69.106  74.758  0.00  0.00    -0.572 OA
ATOM     12  O3  IDS d 402      27.342 -65.609  71.283  0.00  0.00    -0.390 OA
ATOM     13  O1  IDS d 402      30.053 -69.261  72.086  0.00  0.00    -0.368 OA
ATOM     14  C2  IDS d 402      28.546 -67.382  72.393  0.00  0.00     0.134 C 
ATOM     15  C6  IDS d 402      27.115 -70.076  69.348  0.00  0.00     0.206 C 
ATOM     16  S   IDS d 402      28.509 -67.651  74.989  0.00  0.00     0.252 S 
ATOM     17  H   IDS d 402      28.991 -69.301  70.018  0.00  0.00     0.104 H 
ATOM     18  H   IDS d 402      28.559 -69.209  73.500  0.00  0.00     0.133 H 
ATOM     19  H   IDS d 402      26.479 -67.390  71.872  0.00  0.00     0.091 H 
ATOM     20  H   IDS d 402      28.377 -67.200  69.561  0.00  0.00     0.092 H 
ATOM     21  H   IDS d 402      28.176 -65.298  70.898  0.00  0.00     0.210 HD
ATOM     22  H   IDS d 402      30.203 -68.980  71.170  0.00  0.00     0.212 HD
ATOM     23  H   IDS d 402      29.454 -66.963  72.012  0.00  0.00     0.097 H 
ATOM     24  O4S SGN d 403      31.513 -66.520  65.570  0.00  0.00    -0.572 OA
ATOM     25  O5  SGN d 403      27.286 -66.603  67.370  0.00  0.00    -0.352 OA
ATOM     26  O3  SGN d 403      25.555 -65.398  65.690  0.00  0.00    -0.394 OA
ATOM     27  O3S SGN d 403      22.917 -64.717  68.777  0.00  0.00    -0.296 OA
ATOM     28  O1  SGN d 403      26.371 -67.600  69.316  0.00  0.00    -0.348 OA
ATOM     29  O6  SGN d 403      29.070 -67.046  65.679  0.00  0.00    -0.254 OA
ATOM     30  O5S SGN d 403      30.331 -66.455  67.764  0.00  0.00    -0.572 OA
ATOM     31  C2  SGN d 403      24.958 -66.237  67.893  0.00  0.00     0.079 C 
ATOM     32  C3  SGN d 403      24.936 -66.499  66.379  0.00  0.00     0.058 C 
ATOM     33  N   SGN d 403      23.980 -67.087  68.595  0.00  0.00    -0.210 NA
ATOM     34  O6S SGN d 403      30.749 -68.645  66.633  0.00  0.00    -0.572 OA
ATOM     35  C4  SGN d 403      25.662 -67.802  66.031  0.00  0.00    -0.013 C 
ATOM     36  C6  SGN d 403      28.122 -68.122  65.670  0.00  0.00     0.064 C 
ATOM     37  S2  SGN d 403      30.413 -67.168  66.411  0.00  0.00     0.251 S 
ATOM     38  O2S SGN d 403      23.004 -66.147  70.824  0.00  0.00    -0.296 OA
ATOM     39  C1  SGN d 403      26.363 -66.439  68.456  0.00  0.00     0.150 C 
ATOM     40  O1S SGN d 403      21.431 -66.717  68.970  0.00  0.00    -0.296 OA
ATOM     41  S1  SGN d 403      22.814 -66.151  69.304  0.00  0.00     0.156 S 
ATOM     42  C5  SGN d 403      27.027 -67.851  66.709  0.00  0.00     0.066 C 
ATOM     43  H   SGN d 403      25.092 -64.576  65.913  0.00  0.00     0.210 HD
ATOM     44  H   SGN d 403      23.792 -64.358  68.989  0.00  0.00     0.231 HD
ATOM     45  H   SGN d 403      24.678 -65.218  68.056  0.00  0.00     0.076 H 
ATOM     46  H   SGN d 403      23.917 -66.592  66.070  0.00  0.00     0.085 H 
ATOM     47  H   SGN d 403      24.460 -67.629  69.313  0.00  0.00     0.140 HD
ATOM     48  H   SGN d 403      25.793 -67.859  64.971  0.00  0.00     0.040 H 
ATOM     49  H   SGN d 403      25.074 -68.627  66.376  0.00  0.00     0.040 H 
ATOM     50  H   SGN d 403      28.622 -69.038  65.910  0.00  0.00     0.080 H 
ATOM     51  H   SGN d 403      27.680 -68.199  64.700  0.00  0.00     0.080 H 
ATOM     52  H   SGN d 403      23.879 -65.789  71.040  0.00  0.00     0.231 HD
ATOM     53  H   SGN d 403      26.657 -65.586  69.031  0.00  0.00     0.131 H 
ATOM     54  H   SGN d 403      21.308 -66.721  68.007  0.00  0.00     0.231 HD
ATOM     55  H   SGN d 403      27.028 -68.641  67.431  0.00  0.00     0.086 H 
ENDROOT
TORSDOF 16
ENDMDL
MODEL 38
REMARK VINA RESULT:      -3.6      2.570      6.251
REMARK  0 active torsions:
REMARK  status: ('A' for Active; 'I' for Inactive)
REMARK       I    between atoms: O2_1  and  C2_31 
REMARK       I    between atoms: O2_1  and  S_34 
REMARK       I    between atoms: C5_3  and  C6_33 
REMARK       I    between atoms: O3_5  and  C3_13 
REMARK       I    between atoms: O3S_6  and  S1_32 
REMARK       I    between atoms: O1_7  and  C4_23 
REMARK       I    between atoms: O1_7  and  C1_27 
REMARK       I    between atoms: O6_8  and  C6_21 
REMARK       I    between atoms: O6_8  and  S2_24 
REMARK       I    between atoms: C1_9  and  O1_30 
REMARK       I    between atoms: C2_12  and  N_14 
REMARK       I    between atoms: N_14  and  S1_32 
REMARK       I    between atoms: C3_16  and  O3_29 
REMARK       I    between atoms: C6_21  and  C5_35 
REMARK       I    between atoms: O2S_26  and  S1_32 
REMARK       I    between atoms: O1S_28  and  S1_32 
ROOT
ATOM      1  O2  IDS d 402      25.129 -69.799  65.530  0.00  0.00    -0.244 OA
ATOM      2  C5  IDS d 402      27.985 -69.651  68.552  0.00  0.00     0.152 C 
ATOM      3  C1  IDS d 402      25.932 -70.466  67.726  0.00  0.00     0.158 C 
ATOM      4  O5  IDS d 402      27.308 -70.795  67.999  0.00  0.00    -0.340 OA
ATOM      5  O61 IDS d 402      30.178 -70.605  68.288  0.00  0.00    -0.646 OA
ATOM      6  C3  IDS d 402      27.280 -68.945  66.254  0.00  0.00     0.094 C 
ATOM      7  O62 IDS d 402      29.567 -69.882  70.336  0.00  0.00    -0.646 OA
ATOM      8  O3S IDS d 402      24.002 -71.579  64.142  0.00  0.00    -0.572 OA
ATOM      9  O2S IDS d 402      22.888 -70.721  66.230  0.00  0.00    -0.572 OA
ATOM     10  C4  IDS d 402      28.140 -68.583  67.466  0.00  0.00     0.103 C 
ATOM     11  O1S IDS d 402      24.947 -72.149  66.392  0.00  0.00    -0.572 OA
ATOM     12  O3  IDS d 402      27.192 -67.815  65.375  0.00  0.00    -0.390 OA
ATOM     13  O1  IDS d 402      25.269 -70.039  68.937  0.00  0.00    -0.368 OA
ATOM     14  C2  IDS d 402      25.869 -69.350  66.687  0.00  0.00     0.134 C 
ATOM     15  C6  IDS d 402      29.364 -70.079  69.104  0.00  0.00     0.206 C 
ATOM     16  S   IDS d 402      24.242 -71.060  65.575  0.00  0.00     0.252 S 
ATOM     17  H   IDS d 402      27.412 -69.242  69.357  0.00  0.00     0.104 H 
ATOM     18  H   IDS d 402      25.438 -71.335  67.347  0.00  0.00     0.133 H 
ATOM     19  H   IDS d 402      27.737 -69.771  65.750  0.00  0.00     0.091 H 
ATOM     20  H   IDS d 402      27.818 -67.638  67.853  0.00  0.00     0.092 H 
ATOM     21  H   IDS d 402      26.777 -67.074  65.843  0.00  0.00     0.210 HD
ATOM     22  H   IDS d 402      25.711 -69.250  69.287  0.00  0.00     0.212 HD
ATOM     23  H   IDS d 402      25.380 -68.505  67.126  0.00  0.00     0.097 H 
ATOM     24  O4S SGN d 403      28.003 -63.744  71.174  0.00  0.00    -0.572 OA
ATOM     25  O5  SGN d 403      29.958 -66.310  67.901  0.00  0.00    -0.352 OA
ATOM     26  O3  SGN d 403      32.136 -65.049  66.933  0.00  0.00    -0.394 OA
ATOM     27  O3S SGN d 403      31.949 -67.243  63.453  0.00  0.00    -0.296 OA
ATOM     28  O1  SGN d 403      29.524 -68.488  67.072  0.00  0.00    -0.348 OA
ATOM     29  O6  SGN d 403      29.822 -65.043  70.050  0.00  0.00    -0.254 OA
ATOM     30  O5S SGN d 403      27.429 -65.373  69.376  0.00  0.00    -0.572 OA
ATOM     31  C2  SGN d 403      31.273 -67.149  66.059  0.00  0.00     0.079 C 
ATOM     32  C3  SGN d 403      32.323 -66.475  66.956  0.00  0.00     0.058 C 
ATOM     33  N   SGN d 403      31.676 -68.520  65.705  0.00  0.00    -0.210 NA
ATOM     34  O6S SGN d 403      28.222 -66.193  71.600  0.00  0.00    -0.572 OA
ATOM     35  C4  SGN d 403      32.230 -66.986  68.397  0.00  0.00    -0.013 C 
ATOM     36  C6  SGN d 403      30.704 -66.162  70.208  0.00  0.00     0.064 C 
ATOM     37  S2  SGN d 403      28.371 -65.090  70.550  0.00  0.00     0.251 S 
ATOM     38  O2S SGN d 403      30.782 -69.451  63.437  0.00  0.00    -0.296 OA
ATOM     39  C1  SGN d 403      29.902 -67.136  66.730  0.00  0.00     0.150 C 
ATOM     40  O1S SGN d 403      33.250 -69.347  63.804  0.00  0.00    -0.296 OA
ATOM     41  S1  SGN d 403      31.917 -68.643  64.073  0.00  0.00     0.156 S 
ATOM     42  C5  SGN d 403      30.787 -66.940  68.889  0.00  0.00     0.066 C 
ATOM     43  H   SGN d 403      32.196 -64.731  66.019  0.00  0.00     0.210 HD
ATOM     44  H   SGN d 403      31.105 -66.796  63.622  0.00  0.00     0.231 HD
ATOM     45  H   SGN d 403      31.205 -66.586  65.152  0.00  0.00     0.076 H 
ATOM     46  H   SGN d 403      33.293 -66.719  66.578  0.00  0.00     0.085 H 
ATOM     47  H   SGN d 403      30.941 -69.170  65.986  0.00  0.00     0.140 HD
ATOM     48  H   SGN d 403      32.837 -66.371  69.028  0.00  0.00     0.040 H 
ATOM     49  H   SGN d 403      32.575 -67.999  68.428  0.00  0.00     0.040 H 
ATOM     50  H   SGN d 403      30.330 -66.804  70.978  0.00  0.00     0.080 H 
ATOM     51  H   SGN d 403      31.679 -65.812  70.476  0.00  0.00     0.080 H 
ATOM     52  H   SGN d 403      29.936 -69.008  63.605  0.00  0.00     0.231 HD
ATOM     53  H   SGN d 403      29.167 -66.735  66.063  0.00  0.00     0.131 H 
ATOM     54  H   SGN d 403      33.972 -68.837  64.205  0.00  0.00     0.231 HD
ATOM     55  H   SGN d 403      30.445 -67.941  69.053  0.00  0.00     0.086 H 
ENDROOT
TORSDOF 16
ENDMDL
MODEL 39
REMARK VINA RESULT:      -3.6      2.628      5.657
REMARK  0 active torsions:
REMARK  status: ('A' for Active; 'I' for Inactive)
REMARK       I    between atoms: O2_1  and  C2_31 
REMARK       I    between atoms: O2_1  and  S_34 
REMARK       I    between atoms: C5_3  and  C6_33 
REMARK       I    between atoms: O3_5  and  C3_13 
REMARK       I    between atoms: O3S_6  and  S1_32 
REMARK       I    between atoms: O1_7  and  C4_23 
REMARK       I    between atoms: O1_7  and  C1_27 
REMARK       I    between atoms: O6_8  and  C6_21 
REMARK       I    between atoms: O6_8  and  S2_24 
REMARK       I    between atoms: C1_9  and  O1_30 
REMARK       I    between atoms: C2_12  and  N_14 
REMARK       I    between atoms: N_14  and  S1_32 
REMARK       I    between atoms: C3_16  and  O3_29 
REMARK       I    between atoms: C6_21  and  C5_35 
REMARK       I    between atoms: O2S_26  and  S1_32 
REMARK       I    between atoms: O1S_28  and  S1_32 
ROOT
ATOM      1  O2  IDS d 402      26.236 -69.651  65.114  0.00  0.00    -0.244 OA
ATOM      2  C5  IDS d 402      28.644 -69.456  68.501  0.00  0.00     0.152 C 
ATOM      3  C1  IDS d 402      26.835 -70.424  67.340  0.00  0.00     0.158 C 
ATOM      4  O5  IDS d 402      28.196 -70.614  67.773  0.00  0.00    -0.340 OA
ATOM      5  O61 IDS d 402      30.957 -70.115  68.467  0.00  0.00    -0.646 OA
ATOM      6  C3  IDS d 402      28.149 -68.622  66.191  0.00  0.00     0.094 C 
ATOM      7  O62 IDS d 402      30.004 -69.668  70.462  0.00  0.00    -0.646 OA
ATOM      8  O3S IDS d 402      25.533 -71.410  63.448  0.00  0.00    -0.572 OA
ATOM      9  O2S IDS d 402      24.062 -70.893  65.425  0.00  0.00    -0.572 OA
ATOM     10  C4  IDS d 402      28.795 -68.278  67.535  0.00  0.00     0.103 C 
ATOM     11  O1S IDS d 402      26.252 -72.077  65.754  0.00  0.00    -0.572 OA
ATOM     12  O3  IDS d 402      28.027 -67.432  65.401  0.00  0.00    -0.390 OA
ATOM     13  O1  IDS d 402      25.974 -70.196  68.479  0.00  0.00    -0.368 OA
ATOM     14  C2  IDS d 402      26.759 -69.230  66.394  0.00  0.00     0.134 C 
ATOM     15  C6  IDS d 402      29.985 -69.769  69.203  0.00  0.00     0.206 C 
ATOM     16  S   IDS d 402      25.522 -71.007  64.937  0.00  0.00     0.252 S 
ATOM     17  H   IDS d 402      27.925 -69.197  69.251  0.00  0.00     0.104 H 
ATOM     18  H   IDS d 402      26.509 -71.306  66.829  0.00  0.00     0.133 H 
ATOM     19  H   IDS d 402      28.769 -69.337  65.692  0.00  0.00     0.091 H 
ATOM     20  H   IDS d 402      28.307 -67.420  67.948  0.00  0.00     0.092 H 
ATOM     21  H   IDS d 402      27.463 -66.793  65.865  0.00  0.00     0.210 HD
ATOM     22  H   IDS d 402      26.262 -69.398  68.947  0.00  0.00     0.212 HD
ATOM     23  H   IDS d 402      26.114 -68.495  66.827  0.00  0.00     0.097 H 
ATOM     24  O4S SGN d 403      27.564 -63.866  71.560  0.00  0.00    -0.572 OA
ATOM     25  O5  SGN d 403      30.233 -65.859  68.394  0.00  0.00    -0.352 OA
ATOM     26  O3  SGN d 403      32.334 -64.264  67.836  0.00  0.00    -0.394 OA
ATOM     27  O3S SGN d 403      32.875 -66.122  64.202  0.00  0.00    -0.296 OA
ATOM     28  O1  SGN d 403      30.194 -67.984  67.344  0.00  0.00    -0.348 OA
ATOM     29  O6  SGN d 403      29.663 -64.827  70.597  0.00  0.00    -0.254 OA
ATOM     30  O5S SGN d 403      27.438 -65.372  69.577  0.00  0.00    -0.572 OA
ATOM     31  C2  SGN d 403      31.868 -66.357  66.690  0.00  0.00     0.079 C 
ATOM     32  C3  SGN d 403      32.700 -65.653  67.773  0.00  0.00     0.058 C 
ATOM     33  N   SGN d 403      32.487 -67.632  66.287  0.00  0.00    -0.210 NA
ATOM     34  O6S SGN d 403      28.043 -66.301  71.817  0.00  0.00    -0.572 OA
ATOM     35  C4  SGN d 403      32.493 -66.307  69.142  0.00  0.00    -0.013 C 
ATOM     36  C6  SGN d 403      30.656 -65.845  70.785  0.00  0.00     0.064 C 
ATOM     37  S2  SGN d 403      28.180 -65.093  70.887  0.00  0.00     0.251 S 
ATOM     38  O2S SGN d 403      32.015 -68.441  63.852  0.00  0.00    -0.296 OA
ATOM     39  C1  SGN d 403      30.433 -66.570  67.165  0.00  0.00     0.150 C 
ATOM     40  O1S SGN d 403      34.382 -68.082  64.561  0.00  0.00    -0.296 OA
ATOM     41  S1  SGN d 403      32.946 -67.568  64.698  0.00  0.00     0.156 S 
ATOM     42  C5  SGN d 403      31.006 -66.479  69.433  0.00  0.00     0.066 C 
ATOM     43  H   SGN d 403      32.467 -63.854  66.968  0.00  0.00     0.210 HD
ATOM     44  H   SGN d 403      31.965 -65.795  64.288  0.00  0.00     0.231 HD
ATOM     45  H   SGN d 403      31.843 -65.722  65.828  0.00  0.00     0.076 H 
ATOM     46  H   SGN d 403      33.734 -65.743  67.513  0.00  0.00     0.085 H 
ATOM     47  H   SGN d 403      31.813 -68.387  66.412  0.00  0.00     0.140 HD
ATOM     48  H   SGN d 403      32.930 -65.688  69.897  0.00  0.00     0.040 H 
ATOM     49  H   SGN d 403      32.959 -67.270  69.140  0.00  0.00     0.040 H 
ATOM     50  H   SGN d 403      30.275 -66.597  71.444  0.00  0.00     0.080 H 
ATOM     51  H   SGN d 403      31.536 -65.409  71.212  0.00  0.00     0.080 H 
ATOM     52  H   SGN d 403      31.104 -68.118  63.936  0.00  0.00     0.231 HD
ATOM     53  H   SGN d 403      29.743 -66.197  66.437  0.00  0.00     0.131 H 
ATOM     54  H   SGN d 403      34.975 -67.531  65.096  0.00  0.00     0.231 HD
ATOM     55  H   SGN d 403      30.778 -67.524  69.470  0.00  0.00     0.086 H 
ENDROOT
TORSDOF 16
ENDMDL
MODEL 40
REMARK VINA RESULT:      -3.6      2.433      7.258
REMARK  0 active torsions:
REMARK  status: ('A' for Active; 'I' for Inactive)
REMARK       I    between atoms: O2_1  and  C2_31 
REMARK       I    between atoms: O2_1  and  S_34 
REMARK       I    between atoms: C5_3  and  C6_33 
REMARK       I    between atoms: O3_5  and  C3_13 
REMARK       I    between atoms: O3S_6  and  S1_32 
REMARK       I    between atoms: O1_7  and  C4_23 
REMARK       I    between atoms: O1_7  and  C1_27 
REMARK       I    between atoms: O6_8  and  C6_21 
REMARK       I    between atoms: O6_8  and  S2_24 
REMARK       I    between atoms: C1_9  and  O1_30 
REMARK       I    between atoms: C2_12  and  N_14 
REMARK       I    between atoms: N_14  and  S1_32 
REMARK       I    between atoms: C3_16  and  O3_29 
REMARK       I    between atoms: C6_21  and  C5_35 
REMARK       I    between atoms: O2S_26  and  S1_32 
REMARK       I    between atoms: O1S_28  and  S1_32 
ROOT
ATOM      1  O2  IDS d 402      24.167 -66.100  66.806  0.00  0.00    -0.244 OA
ATOM      2  C5  IDS d 402      27.122 -67.539  69.358  0.00  0.00     0.152 C 
ATOM      3  C1  IDS d 402      24.868 -66.967  68.966  0.00  0.00     0.158 C 
ATOM      4  O5  IDS d 402      25.800 -68.056  69.119  0.00  0.00    -0.340 OA
ATOM      5  O61 IDS d 402      28.203 -69.657  68.999  0.00  0.00    -0.646 OA
ATOM      6  C3  IDS d 402      26.499 -66.708  67.078  0.00  0.00     0.094 C 
ATOM      7  O62 IDS d 402      28.596 -68.572  70.938  0.00  0.00    -0.646 OA
ATOM      8  O3S IDS d 402      21.939 -66.895  65.928  0.00  0.00    -0.572 OA
ATOM      9  O2S IDS d 402      22.031 -65.392  67.946  0.00  0.00    -0.572 OA
ATOM     10  C4  IDS d 402      27.641 -66.872  68.082  0.00  0.00     0.103 C 
ATOM     11  O1S IDS d 402      22.819 -67.771  68.106  0.00  0.00    -0.572 OA
ATOM     12  O3  IDS d 402      26.911 -65.829  66.023  0.00  0.00    -0.390 OA
ATOM     13  O1  IDS d 402      24.865 -66.140  70.152  0.00  0.00    -0.368 OA
ATOM     14  C2  IDS d 402      25.257 -66.125  67.756  0.00  0.00     0.134 C 
ATOM     15  C6  IDS d 402      28.058 -68.686  69.800  0.00  0.00     0.206 C 
ATOM     16  S   IDS d 402      22.741 -66.539  67.197  0.00  0.00     0.252 S 
ATOM     17  H   IDS d 402      27.092 -66.809  70.140  0.00  0.00     0.104 H 
ATOM     18  H   IDS d 402      23.887 -67.370  68.822  0.00  0.00     0.133 H 
ATOM     19  H   IDS d 402      26.256 -67.673  66.683  0.00  0.00     0.091 H 
ATOM     20  H   IDS d 402      28.034 -65.906  68.325  0.00  0.00     0.092 H 
ATOM     21  H   IDS d 402      27.128 -64.959  66.394  0.00  0.00     0.210 HD
ATOM     22  H   IDS d 402      25.752 -65.770  70.290  0.00  0.00     0.212 HD
ATOM     23  H   IDS d 402      25.471 -65.131  68.088  0.00  0.00     0.097 H 
ATOM     24  O4S SGN d 403      31.198 -62.739  70.812  0.00  0.00    -0.572 OA
ATOM     25  O5  SGN d 403      30.493 -66.182  67.852  0.00  0.00    -0.352 OA
ATOM     26  O3  SGN d 403      32.723 -66.604  66.396  0.00  0.00    -0.394 OA
ATOM     27  O3S SGN d 403      30.531 -68.448  63.438  0.00  0.00    -0.296 OA
ATOM     28  O1  SGN d 403      28.688 -67.679  67.504  0.00  0.00    -0.348 OA
ATOM     29  O6  SGN d 403      31.599 -64.956  69.726  0.00  0.00    -0.254 OA
ATOM     30  O5S SGN d 403      29.401 -63.785  69.436  0.00  0.00    -0.572 OA
ATOM     31  C2  SGN d 403      30.622 -67.777  66.045  0.00  0.00     0.079 C 
ATOM     32  C3  SGN d 403      32.029 -67.836  66.660  0.00  0.00     0.058 C 
ATOM     33  N   SGN d 403      30.046 -69.126  65.903  0.00  0.00    -0.210 NA
ATOM     34  O6S SGN d 403      30.008 -64.764  71.655  0.00  0.00    -0.572 OA
ATOM     35  C4  SGN d 403      31.964 -68.080  68.170  0.00  0.00    -0.013 C 
ATOM     36  C6  SGN d 403      31.655 -66.367  69.976  0.00  0.00     0.064 C 
ATOM     37  S2  SGN d 403      30.552 -64.064  70.407  0.00  0.00     0.251 S 
ATOM     38  O2S SGN d 403      28.314 -69.460  63.982  0.00  0.00    -0.296 OA
ATOM     39  C1  SGN d 403      29.709 -66.875  66.871  0.00  0.00     0.150 C 
ATOM     40  O1S SGN d 403      30.371 -70.876  64.005  0.00  0.00    -0.296 OA
ATOM     41  S1  SGN d 403      29.810 -69.483  64.305  0.00  0.00     0.156 S 
ATOM     42  C5  SGN d 403      30.976 -67.120  68.825  0.00  0.00     0.066 C 
ATOM     43  H   SGN d 403      32.762 -66.454  65.439  0.00  0.00     0.210 HD
ATOM     44  H   SGN d 403      30.177 -67.565  63.626  0.00  0.00     0.231 HD
ATOM     45  H   SGN d 403      30.707 -67.357  65.065  0.00  0.00     0.076 H 
ATOM     46  H   SGN d 403      32.557 -68.651  66.213  0.00  0.00     0.085 H 
ATOM     47  H   SGN d 403      29.151 -69.162  66.392  0.00  0.00     0.140 HD
ATOM     48  H   SGN d 403      32.934 -67.928  68.594  0.00  0.00     0.040 H 
ATOM     49  H   SGN d 403      31.638 -69.084  68.345  0.00  0.00     0.040 H 
ATOM     50  H   SGN d 403      31.150 -66.587  70.893  0.00  0.00     0.080 H 
ATOM     51  H   SGN d 403      32.677 -66.675  70.047  0.00  0.00     0.080 H 
ATOM     52  H   SGN d 403      27.955 -68.579  64.171  0.00  0.00     0.231 HD
ATOM     53  H   SGN d 403      29.232 -66.154  66.240  0.00  0.00     0.131 H 
ATOM     54  H   SGN d 403      31.319 -70.894  64.209  0.00  0.00     0.231 HD
ATOM     55  H   SGN d 403      30.152 -67.681  69.215  0.00  0.00     0.086 H 
ENDROOT
TORSDOF 16
ENDMDL
MODEL 41
REMARK VINA RESULT:      -3.5      4.318      8.836
REMARK  0 active torsions:
REMARK  status: ('A' for Active; 'I' for Inactive)
REMARK       I    between atoms: O2_1  and  C2_31 
REMARK       I    between atoms: O2_1  and  S_34 
REMARK       I    between atoms: C5_3  and  C6_33 
REMARK       I    between atoms: O3_5  and  C3_13 
REMARK       I    between atoms: O3S_6  and  S1_32 
REMARK       I    between atoms: O1_7  and  C4_23 
REMARK       I    between atoms: O1_7  and  C1_27 
REMARK       I    between atoms: O6_8  and  C6_21 
REMARK       I    between atoms: O6_8  and  S2_24 
REMARK       I    between atoms: C1_9  and  O1_30 
REMARK       I    between atoms: C2_12  and  N_14 
REMARK       I    between atoms: N_14  and  S1_32 
REMARK       I    between atoms: C3_16  and  O3_29 
REMARK       I    between atoms: C6_21  and  C5_35 
REMARK       I    between atoms: O2S_26  and  S1_32 
REMARK       I    between atoms: O1S_28  and  S1_32 
ROOT
ATOM      1  O2  IDS d 402      22.236 -69.002  72.852  0.00  0.00    -0.244 OA
ATOM      2  C5  IDS d 402      25.842 -69.350  70.806  0.00  0.00     0.152 C 
ATOM      3  C1  IDS d 402      24.505 -69.858  72.681  0.00  0.00     0.158 C 
ATOM      4  O5  IDS d 402      25.068 -70.373  71.458  0.00  0.00    -0.340 OA
ATOM      5  O61 IDS d 402      26.029 -70.567  68.740  0.00  0.00    -0.646 OA
ATOM      6  C3  IDS d 402      23.500 -68.463  70.854  0.00  0.00     0.094 C 
ATOM      7  O62 IDS d 402      27.925 -69.857  69.736  0.00  0.00    -0.646 OA
ATOM      8  O3S IDS d 402      20.501 -70.561  73.811  0.00  0.00    -0.572 OA
ATOM      9  O2S IDS d 402      22.328 -69.655  75.287  0.00  0.00    -0.572 OA
ATOM     10  C4  IDS d 402      24.901 -68.266  70.273  0.00  0.00     0.103 C 
ATOM     11  O1S IDS d 402      22.862 -71.342  73.505  0.00  0.00    -0.572 OA
ATOM     12  O3  IDS d 402      22.708 -67.296  70.597  0.00  0.00    -0.390 OA
ATOM     13  O1  IDS d 402      25.556 -69.400  73.562  0.00  0.00    -0.368 OA
ATOM     14  C2  IDS d 402      23.563 -68.700  72.364  0.00  0.00     0.134 C 
ATOM     15  C6  IDS d 402      26.668 -69.974  69.659  0.00  0.00     0.206 C 
ATOM     16  S   IDS d 402      21.983 -70.139  73.863  0.00  0.00     0.252 S 
ATOM     17  H   IDS d 402      26.520 -68.905  71.505  0.00  0.00     0.104 H 
ATOM     18  H   IDS d 402      23.961 -70.639  73.167  0.00  0.00     0.133 H 
ATOM     19  H   IDS d 402      23.059 -69.320  70.387  0.00  0.00     0.091 H 
ATOM     20  H   IDS d 402      25.270 -67.305  70.568  0.00  0.00     0.092 H 
ATOM     21  H   IDS d 402      23.118 -66.527  71.025  0.00  0.00     0.210 HD
ATOM     22  H   IDS d 402      26.055 -68.690  73.128  0.00  0.00     0.212 HD
ATOM     23  H   IDS d 402      23.935 -67.819  72.843  0.00  0.00     0.097 H 
ATOM     24  O4S SGN d 403      28.811 -63.610  70.737  0.00  0.00    -0.572 OA
ATOM     25  O5  SGN d 403      25.909 -66.267  68.363  0.00  0.00    -0.352 OA
ATOM     26  O3  SGN d 403      25.566 -65.258  65.886  0.00  0.00    -0.394 OA
ATOM     27  O3S SGN d 403      21.992 -67.261  65.485  0.00  0.00    -0.296 OA
ATOM     28  O1  SGN d 403      24.849 -68.334  68.834  0.00  0.00    -0.348 OA
ATOM     29  O6  SGN d 403      28.051 -65.084  68.864  0.00  0.00    -0.254 OA
ATOM     30  O5S SGN d 403      26.817 -65.074  71.047  0.00  0.00    -0.572 OA
ATOM     31  C2  SGN d 403      24.369 -67.190  66.751  0.00  0.00     0.079 C 
ATOM     32  C3  SGN d 403      25.531 -66.696  65.876  0.00  0.00     0.058 C 
ATOM     33  N   SGN d 403      24.021 -68.586  66.436  0.00  0.00    -0.210 NA
ATOM     34  O6S SGN d 403      29.101 -66.082  70.910  0.00  0.00    -0.572 OA
ATOM     35  C4  SGN d 403      26.870 -67.251  66.370  0.00  0.00    -0.013 C 
ATOM     36  C6  SGN d 403      28.330 -66.313  68.180  0.00  0.00     0.064 C 
ATOM     37  S2  SGN d 403      28.195 -64.965  70.387  0.00  0.00     0.251 S 
ATOM     38  O2S SGN d 403      21.547 -69.298  66.860  0.00  0.00    -0.296 OA
ATOM     39  C1  SGN d 403      24.701 -67.029  68.232  0.00  0.00     0.150 C 
ATOM     40  O1S SGN d 403      22.485 -69.529  64.558  0.00  0.00    -0.296 OA
ATOM     41  S1  SGN d 403      22.485 -68.670  65.825  0.00  0.00     0.156 S 
ATOM     42  C5  SGN d 403      27.015 -67.040  67.873  0.00  0.00     0.066 C 
ATOM     43  H   SGN d 403      24.717 -64.912  65.573  0.00  0.00     0.210 HD
ATOM     44  H   SGN d 403      21.991 -66.717  66.287  0.00  0.00     0.231 HD
ATOM     45  H   SGN d 403      23.512 -66.586  66.534  0.00  0.00     0.076 H 
ATOM     46  H   SGN d 403      25.372 -67.047  64.878  0.00  0.00     0.085 H 
ATOM     47  H   SGN d 403      24.076 -69.147  67.286  0.00  0.00     0.140 HD
ATOM     48  H   SGN d 403      27.668 -66.746  65.866  0.00  0.00     0.040 H 
ATOM     49  H   SGN d 403      26.908 -68.300  66.162  0.00  0.00     0.040 H 
ATOM     50  H   SGN d 403      28.944 -66.933  68.799  0.00  0.00     0.080 H 
ATOM     51  H   SGN d 403      28.842 -66.103  67.264  0.00  0.00     0.080 H 
ATOM     52  H   SGN d 403      21.545 -68.757  67.665  0.00  0.00     0.231 HD
ATOM     53  H   SGN d 403      23.912 -66.509  68.734  0.00  0.00     0.131 H 
ATOM     54  H   SGN d 403      23.078 -69.133  63.900  0.00  0.00     0.231 HD
ATOM     55  H   SGN d 403      27.023 -67.994  68.358  0.00  0.00     0.086 H 
ENDROOT
TORSDOF 16
ENDMDL
MODEL 42
REMARK VINA RESULT:      -3.5      2.805      7.599
REMARK  0 active torsions:
REMARK  status: ('A' for Active; 'I' for Inactive)
REMARK       I    between atoms: O2_1  and  C2_31 
REMARK       I    between atoms: O2_1  and  S_34 
REMARK       I    between atoms: C5_3  and  C6_33 
REMARK       I    between atoms: O3_5  and  C3_13 
REMARK       I    between atoms: O3S_6  and  S1_32 
REMARK       I    between atoms: O1_7  and  C4_23 
REMARK       I    between atoms: O1_7  and  C1_27 
REMARK       I    between atoms: O6_8  and  C6_21 
REMARK       I    between atoms: O6_8  and  S2_24 
REMARK       I    between atoms: C1_9  and  O1_30 
REMARK       I    between atoms: C2_12  and  N_14 
REMARK       I    between atoms: N_14  and  S1_32 
REMARK       I    between atoms: C3_16  and  O3_29 
REMARK       I    between atoms: C6_21  and  C5_35 
REMARK       I    between atoms: O2S_26  and  S1_32 
REMARK       I    between atoms: O1S_28  and  S1_32 
ROOT
ATOM      1  O2  IDS d 402      27.404 -67.430  67.334  0.00  0.00    -0.244 OA
ATOM      2  C5  IDS d 402      31.326 -66.893  68.614  0.00  0.00     0.152 C 
ATOM      3  C1  IDS d 402      29.024 -66.442  68.853  0.00  0.00     0.158 C 
ATOM      4  O5  IDS d 402      30.148 -67.165  69.394  0.00  0.00    -0.340 OA
ATOM      5  O61 IDS d 402      32.604 -68.673  69.605  0.00  0.00    -0.646 OA
ATOM      6  C3  IDS d 402      29.739 -68.008  67.028  0.00  0.00     0.094 C 
ATOM      7  O62 IDS d 402      33.463 -66.587  69.652  0.00  0.00    -0.646 OA
ATOM      8  O3S IDS d 402      25.224 -68.204  68.340  0.00  0.00    -0.572 OA
ATOM      9  O2S IDS d 402      25.754 -65.746  68.229  0.00  0.00    -0.572 OA
ATOM     10  C4  IDS d 402      31.182 -67.543  67.235  0.00  0.00     0.103 C 
ATOM     11  O1S IDS d 402      27.014 -67.240  69.805  0.00  0.00    -0.572 OA
ATOM     12  O3  IDS d 402      29.537 -68.339  65.648  0.00  0.00    -0.390 OA
ATOM     13  O1  IDS d 402      29.296 -65.022  68.852  0.00  0.00    -0.368 OA
ATOM     14  C2  IDS d 402      28.750 -66.911  67.428  0.00  0.00     0.134 C 
ATOM     15  C6  IDS d 402      32.574 -67.432  69.349  0.00  0.00     0.206 C 
ATOM     16  S   IDS d 402      26.351 -67.154  68.426  0.00  0.00     0.252 S 
ATOM     17  H   IDS d 402      31.442 -65.837  68.485  0.00  0.00     0.104 H 
ATOM     18  H   IDS d 402      28.166 -66.630  69.463  0.00  0.00     0.133 H 
ATOM     19  H   IDS d 402      29.570 -68.867  67.644  0.00  0.00     0.091 H 
ATOM     20  H   IDS d 402      31.430 -66.826  66.480  0.00  0.00     0.092 H 
ATOM     21  H   IDS d 402      29.693 -67.553  65.101  0.00  0.00     0.210 HD
ATOM     22  H   IDS d 402      30.074 -64.842  68.301  0.00  0.00     0.212 HD
ATOM     23  H   IDS d 402      28.865 -66.077  66.768  0.00  0.00     0.097 H 
ATOM     24  O4S SGN d 403      34.572 -63.512  64.163  0.00  0.00    -0.572 OA
ATOM     25  O5  SGN d 403      33.533 -67.789  65.482  0.00  0.00    -0.352 OA
ATOM     26  O3  SGN d 403      35.091 -69.554  64.167  0.00  0.00    -0.394 OA
ATOM     27  O3S SGN d 403      32.380 -72.575  64.858  0.00  0.00    -0.296 OA
ATOM     28  O1  SGN d 403      32.078 -68.669  67.134  0.00  0.00    -0.348 OA
ATOM     29  O6  SGN d 403      34.983 -65.790  65.111  0.00  0.00    -0.254 OA
ATOM     30  O5S SGN d 403      32.646 -64.898  64.930  0.00  0.00    -0.572 OA
ATOM     31  C2  SGN d 403      33.300 -70.183  65.688  0.00  0.00     0.079 C 
ATOM     32  C3  SGN d 403      34.815 -69.996  65.507  0.00  0.00     0.058 C 
ATOM     33  N   SGN d 403      33.003 -71.028  66.857  0.00  0.00    -0.210 NA
ATOM     34  O6S SGN d 403      34.227 -63.919  66.601  0.00  0.00    -0.572 OA
ATOM     35  C4  SGN d 403      35.371 -68.983  66.512  0.00  0.00    -0.013 C 
ATOM     36  C6  SGN d 403      35.417 -66.486  66.288  0.00  0.00     0.064 C 
ATOM     37  S2  SGN d 403      34.108 -64.532  65.203  0.00  0.00     0.251 S 
ATOM     38  O2S SGN d 403      30.786 -72.401  66.773  0.00  0.00    -0.296 OA
ATOM     39  C1  SGN d 403      32.599 -68.831  65.796  0.00  0.00     0.150 C 
ATOM     40  O1S SGN d 403      32.945 -73.623  67.055  0.00  0.00    -0.296 OA
ATOM     41  S1  SGN d 403      32.265 -72.430  66.378  0.00  0.00     0.156 S 
ATOM     42  C5  SGN d 403      34.526 -67.713  66.516  0.00  0.00     0.066 C 
ATOM     43  H   SGN d 403      34.737 -70.198  63.535  0.00  0.00     0.210 HD
ATOM     44  H   SGN d 403      31.949 -71.820  64.428  0.00  0.00     0.231 HD
ATOM     45  H   SGN d 403      32.924 -70.685  64.821  0.00  0.00     0.076 H 
ATOM     46  H   SGN d 403      35.292 -70.937  65.683  0.00  0.00     0.085 H 
ATOM     47  H   SGN d 403      32.385 -70.521  67.490  0.00  0.00     0.140 HD
ATOM     48  H   SGN d 403      36.376 -68.736  66.243  0.00  0.00     0.040 H 
ATOM     49  H   SGN d 403      35.348 -69.417  67.490  0.00  0.00     0.040 H 
ATOM     50  H   SGN d 403      35.349 -65.834  67.133  0.00  0.00     0.080 H 
ATOM     51  H   SGN d 403      36.431 -66.802  66.161  0.00  0.00     0.080 H 
ATOM     52  H   SGN d 403      30.352 -71.646  66.346  0.00  0.00     0.231 HD
ATOM     53  H   SGN d 403      31.784 -68.781  65.104  0.00  0.00     0.131 H 
ATOM     54  H   SGN d 403      33.883 -73.644  66.806  0.00  0.00     0.231 HD
ATOM     55  H   SGN d 403      34.043 -67.621  67.466  0.00  0.00     0.086 H 
ENDROOT
TORSDOF 16
ENDMDL
MODEL 43
REMARK VINA RESULT:      -3.5      5.575      8.947
REMARK  0 active torsions:
REMARK  status: ('A' for Active; 'I' for Inactive)
REMARK       I    between atoms: O2_1  and  C2_31 
REMARK       I    between atoms: O2_1  and  S_34 
REMARK       I    between atoms: C5_3  and  C6_33 
REMARK       I    between atoms: O3_5  and  C3_13 
REMARK       I    between atoms: O3S_6  and  S1_32 
REMARK       I    between atoms: O1_7  and  C4_23 
REMARK       I    between atoms: O1_7  and  C1_27 
REMARK       I    between atoms: O6_8  and  C6_21 
REMARK       I    between atoms: O6_8  and  S2_24 
REMARK       I    between atoms: C1_9  and  O1_30 
REMARK       I    between atoms: C2_12  and  N_14 
REMARK       I    between atoms: N_14  and  S1_32 
REMARK       I    between atoms: C3_16  and  O3_29 
REMARK       I    between atoms: C6_21  and  C5_35 
REMARK       I    between atoms: O2S_26  and  S1_32 
REMARK       I    between atoms: O1S_28  and  S1_32 
ROOT
ATOM      1  O2  IDS d 402      28.359 -64.856  72.660  0.00  0.00    -0.244 OA
ATOM      2  C5  IDS d 402      24.262 -64.128  72.658  0.00  0.00     0.152 C 
ATOM      3  C1  IDS d 402      26.420 -63.631  73.467  0.00  0.00     0.158 C 
ATOM      4  O5  IDS d 402      25.350 -63.187  72.610  0.00  0.00    -0.340 OA
ATOM      5  O61 IDS d 402      23.131 -63.182  70.759  0.00  0.00    -0.646 OA
ATOM      6  C3  IDS d 402      26.196 -65.414  71.716  0.00  0.00     0.094 C 
ATOM      7  O62 IDS d 402      21.982 -63.396  72.688  0.00  0.00    -0.646 OA
ATOM      8  O3S IDS d 402      30.469 -63.526  72.281  0.00  0.00    -0.572 OA
ATOM      9  O2S IDS d 402      29.611 -63.881  74.620  0.00  0.00    -0.572 OA
ATOM     10  C4  IDS d 402      24.686 -65.426  71.966  0.00  0.00     0.103 C 
ATOM     11  O1S IDS d 402      28.375 -62.375  73.036  0.00  0.00    -0.572 OA
ATOM     12  O3  IDS d 402      26.630 -66.729  71.348  0.00  0.00    -0.390 OA
ATOM     13  O1  IDS d 402      25.949 -63.769  74.827  0.00  0.00    -0.368 OA
ATOM     14  C2  IDS d 402      26.952 -64.972  72.971  0.00  0.00     0.134 C 
ATOM     15  C6  IDS d 402      23.017 -63.521  71.974  0.00  0.00     0.206 C 
ATOM     16  S   IDS d 402      29.202 -63.661  73.149  0.00  0.00     0.252 S 
ATOM     17  H   IDS d 402      24.014 -64.346  73.676  0.00  0.00     0.104 H 
ATOM     18  H   IDS d 402      27.205 -62.904  73.444  0.00  0.00     0.133 H 
ATOM     19  H   IDS d 402      26.401 -64.721  70.927  0.00  0.00     0.091 H 
ATOM     20  H   IDS d 402      24.443 -66.257  72.596  0.00  0.00     0.092 H 
ATOM     21  H   IDS d 402      26.438 -67.347  72.071  0.00  0.00     0.210 HD
ATOM     22  H   IDS d 402      25.237 -64.426  74.857  0.00  0.00     0.212 HD
ATOM     23  H   IDS d 402      26.809 -65.700  73.742  0.00  0.00     0.097 H 
ATOM     24  O4S SGN d 403      21.203 -69.189  75.266  0.00  0.00    -0.572 OA
ATOM     25  O5  SGN d 403      22.658 -67.442  71.272  0.00  0.00    -0.352 OA
ATOM     26  O3  SGN d 403      21.565 -68.814  69.224  0.00  0.00    -0.394 OA
ATOM     27  O3S SGN d 403      24.563 -67.567  66.693  0.00  0.00    -0.296 OA
ATOM     28  O1  SGN d 403      23.985 -65.559  70.713  0.00  0.00    -0.348 OA
ATOM     29  O6  SGN d 403      20.998 -68.139  73.005  0.00  0.00    -0.254 OA
ATOM     30  O5S SGN d 403      23.185 -68.085  74.232  0.00  0.00    -0.572 OA
ATOM     31  C2  SGN d 403      23.202 -67.036  68.956  0.00  0.00     0.079 C 
ATOM     32  C3  SGN d 403      21.716 -67.421  68.900  0.00  0.00     0.058 C 
ATOM     33  N   SGN d 403      23.456 -65.781  68.229  0.00  0.00    -0.210 NA
ATOM     34  O6S SGN d 403      21.265 -66.704  75.044  0.00  0.00    -0.572 OA
ATOM     35  C4  SGN d 403      20.887 -66.571  69.868  0.00  0.00    -0.013 C 
ATOM     36  C6  SGN d 403      20.513 -66.980  72.313  0.00  0.00     0.064 C 
ATOM     37  S2  SGN d 403      21.662 -68.027  74.385  0.00  0.00     0.251 S 
ATOM     38  O2S SGN d 403      25.838 -65.482  67.208  0.00  0.00    -0.296 OA
ATOM     39  C1  SGN d 403      23.680 -66.938  70.403  0.00  0.00     0.150 C 
ATOM     40  O1S SGN d 403      23.860 -65.390  65.687  0.00  0.00    -0.296 OA
ATOM     41  S1  SGN d 403      24.447 -66.060  66.933  0.00  0.00     0.156 S 
ATOM     42  C5  SGN d 403      21.532 -66.552  71.250  0.00  0.00     0.066 C 
ATOM     43  H   SGN d 403      22.091 -69.348  68.609  0.00  0.00     0.210 HD
ATOM     44  H   SGN d 403      24.935 -67.992  67.481  0.00  0.00     0.231 HD
ATOM     45  H   SGN d 403      23.762 -67.810  68.473  0.00  0.00     0.076 H 
ATOM     46  H   SGN d 403      21.360 -67.240  67.908  0.00  0.00     0.085 H 
ATOM     47  H   SGN d 403      23.902 -65.112  68.856  0.00  0.00     0.140 HD
ATOM     48  H   SGN d 403      19.903 -66.984  69.944  0.00  0.00     0.040 H 
ATOM     49  H   SGN d 403      20.839 -65.570  69.494  0.00  0.00     0.040 H 
ATOM     50  H   SGN d 403      20.370 -66.182  73.012  0.00  0.00     0.080 H 
ATOM     51  H   SGN d 403      19.582 -67.212  71.840  0.00  0.00     0.080 H 
ATOM     52  H   SGN d 403      26.213 -65.904  67.997  0.00  0.00     0.231 HD
ATOM     53  H   SGN d 403      24.566 -67.522  70.540  0.00  0.00     0.131 H 
ATOM     54  H   SGN d 403      22.978 -65.754  65.510  0.00  0.00     0.231 HD
ATOM     55  H   SGN d 403      21.862 -65.557  71.465  0.00  0.00     0.086 H 
ENDROOT
TORSDOF 16
ENDMDL
MODEL 44
REMARK VINA RESULT:      -3.5      4.023      8.956
REMARK  0 active torsions:
REMARK  status: ('A' for Active; 'I' for Inactive)
REMARK       I    between atoms: O2_1  and  C2_31 
REMARK       I    between atoms: O2_1  and  S_34 
REMARK       I    between atoms: C5_3  and  C6_33 
REMARK       I    between atoms: O3_5  and  C3_13 
REMARK       I    between atoms: O3S_6  and  S1_32 
REMARK       I    between atoms: O1_7  and  C4_23 
REMARK       I    between atoms: O1_7  and  C1_27 
REMARK       I    between atoms: O6_8  and  C6_21 
REMARK       I    between atoms: O6_8  and  S2_24 
REMARK       I    between atoms: C1_9  and  O1_30 
REMARK       I    between atoms: C2_12  and  N_14 
REMARK       I    between atoms: N_14  and  S1_32 
REMARK       I    between atoms: C3_16  and  O3_29 
REMARK       I    between atoms: C6_21  and  C5_35 
REMARK       I    between atoms: O2S_26  and  S1_32 
REMARK       I    between atoms: O1S_28  and  S1_32 
ROOT
ATOM      1  O2  IDS d 402      22.599 -65.655  73.212  0.00  0.00    -0.244 OA
ATOM      2  C5  IDS d 402      25.880 -67.718  71.699  0.00  0.00     0.152 C 
ATOM      3  C1  IDS d 402      24.501 -67.138  73.521  0.00  0.00     0.158 C 
ATOM      4  O5  IDS d 402      24.851 -68.182  72.591  0.00  0.00    -0.340 OA
ATOM      5  O61 IDS d 402      25.640 -69.569  70.181  0.00  0.00    -0.646 OA
ATOM      6  C3  IDS d 402      23.915 -66.228  71.257  0.00  0.00     0.094 C 
ATOM      7  O62 IDS d 402      27.686 -69.144  71.032  0.00  0.00    -0.646 OA
ATOM      8  O3S IDS d 402      20.500 -66.213  74.495  0.00  0.00    -0.572 OA
ATOM      9  O2S IDS d 402      22.552 -65.429  75.724  0.00  0.00    -0.572 OA
ATOM     10  C4  IDS d 402      25.296 -66.660  70.759  0.00  0.00     0.103 C 
ATOM     11  O1S IDS d 402      22.509 -67.703  74.660  0.00  0.00    -0.572 OA
ATOM     12  O3  IDS d 402      23.504 -65.044  70.562  0.00  0.00    -0.390 OA
ATOM     13  O1  IDS d 402      25.663 -66.732  74.279  0.00  0.00    -0.368 OA
ATOM     14  C2  IDS d 402      23.943 -65.940  72.760  0.00  0.00     0.134 C 
ATOM     15  C6  IDS d 402      26.451 -68.910  70.898  0.00  0.00     0.206 C 
ATOM     16  S   IDS d 402      22.042 -66.250  74.522  0.00  0.00     0.252 S 
ATOM     17  H   IDS d 402      26.678 -67.277  72.260  0.00  0.00     0.104 H 
ATOM     18  H   IDS d 402      23.759 -67.511  74.196  0.00  0.00     0.133 H 
ATOM     19  H   IDS d 402      23.225 -67.025  71.071  0.00  0.00     0.091 H 
ATOM     20  H   IDS d 402      25.943 -65.807  70.744  0.00  0.00     0.092 H 
ATOM     21  H   IDS d 402      24.137 -64.330  70.739  0.00  0.00     0.210 HD
ATOM     22  H   IDS d 402      26.341 -66.393  73.675  0.00  0.00     0.212 HD
ATOM     23  H   IDS d 402      24.574 -65.096  72.944  0.00  0.00     0.097 H 
ATOM     24  O4S SGN d 403      30.435 -63.480  69.949  0.00  0.00    -0.572 OA
ATOM     25  O5  SGN d 403      26.808 -65.824  68.378  0.00  0.00    -0.352 OA
ATOM     26  O3  SGN d 403      26.722 -65.675  65.687  0.00  0.00    -0.394 OA
ATOM     27  O3S SGN d 403      22.701 -66.562  65.693  0.00  0.00    -0.296 OA
ATOM     28  O1  SGN d 403      25.188 -67.200  69.427  0.00  0.00    -0.348 OA
ATOM     29  O6  SGN d 403      29.219 -65.218  68.623  0.00  0.00    -0.254 OA
ATOM     30  O5S SGN d 403      28.102 -64.101  70.571  0.00  0.00    -0.572 OA
ATOM     31  C2  SGN d 403      25.021 -66.754  67.049  0.00  0.00     0.079 C 
ATOM     32  C3  SGN d 403      26.256 -66.952  66.156  0.00  0.00     0.058 C 
ATOM     33  N   SGN d 403      24.261 -68.008  67.193  0.00  0.00    -0.210 NA
ATOM     34  O6S SGN d 403      29.972 -65.712  70.964  0.00  0.00    -0.572 OA
ATOM     35  C4  SGN d 403      27.379 -67.667  66.913  0.00  0.00    -0.013 C 
ATOM     36  C6  SGN d 403      29.098 -66.632  68.416  0.00  0.00     0.064 C 
ATOM     37  S2  SGN d 403      29.431 -64.630  70.026  0.00  0.00     0.251 S 
ATOM     38  O2S SGN d 403      21.700 -67.778  67.631  0.00  0.00    -0.296 OA
ATOM     39  C1  SGN d 403      25.424 -66.198  68.412  0.00  0.00     0.150 C 
ATOM     40  O1S SGN d 403      22.466 -69.048  65.622  0.00  0.00    -0.296 OA
ATOM     41  S1  SGN d 403      22.757 -67.846  66.525  0.00  0.00     0.156 S 
ATOM     42  C5  SGN d 403      27.618 -67.004  68.266  0.00  0.00     0.066 C 
ATOM     43  H   SGN d 403      26.008 -65.226  65.208  0.00  0.00     0.210 HD
ATOM     44  H   SGN d 403      22.885 -65.799  66.264  0.00  0.00     0.231 HD
ATOM     45  H   SGN d 403      24.381 -66.040  66.574  0.00  0.00     0.076 H 
ATOM     46  H   SGN d 403      25.974 -67.562  65.324  0.00  0.00     0.085 H 
ATOM     47  H   SGN d 403      24.168 -68.233  68.184  0.00  0.00     0.140 HD
ATOM     48  H   SGN d 403      28.277 -67.621  66.335  0.00  0.00     0.040 H 
ATOM     49  H   SGN d 403      27.094 -68.686  67.073  0.00  0.00     0.040 H 
ATOM     50  H   SGN d 403      29.513 -67.152  69.255  0.00  0.00     0.080 H 
ATOM     51  H   SGN d 403      29.626 -66.908  67.527  0.00  0.00     0.080 H 
ATOM     52  H   SGN d 403      21.881 -67.018  68.205  0.00  0.00     0.231 HD
ATOM     53  H   SGN d 403      24.841 -65.332  68.646  0.00  0.00     0.131 H 
ATOM     54  H   SGN d 403      23.133 -69.094  64.920  0.00  0.00     0.231 HD
ATOM     55  H   SGN d 403      27.351 -67.692  69.041  0.00  0.00     0.086 H 
ENDROOT
TORSDOF 16
ENDMDL
MODEL 45
REMARK VINA RESULT:      -3.5      1.470      1.568
REMARK  0 active torsions:
REMARK  status: ('A' for Active; 'I' for Inactive)
REMARK       I    between atoms: O2_1  and  C2_31 
REMARK       I    between atoms: O2_1  and  S_34 
REMARK       I    between atoms: C5_3  and  C6_33 
REMARK       I    between atoms: O3_5  and  C3_13 
REMARK       I    between atoms: O3S_6  and  S1_32 
REMARK       I    between atoms: O1_7  and  C4_23 
REMARK       I    between atoms: O1_7  and  C1_27 
REMARK       I    between atoms: O6_8  and  C6_21 
REMARK       I    between atoms: O6_8  and  S2_24 
REMARK       I    between atoms: C1_9  and  O1_30 
REMARK       I    between atoms: C2_12  and  N_14 
REMARK       I    between atoms: N_14  and  S1_32 
REMARK       I    between atoms: C3_16  and  O3_29 
REMARK       I    between atoms: C6_21  and  C5_35 
REMARK       I    between atoms: O2S_26  and  S1_32 
REMARK       I    between atoms: O1S_28  and  S1_32 
ROOT
ATOM      1  O2  IDS d 402      31.269 -68.023  65.637  0.00  0.00    -0.244 OA
ATOM      2  C5  IDS d 402      27.993 -69.202  67.914  0.00  0.00     0.152 C 
ATOM      3  C1  IDS d 402      29.492 -69.604  66.139  0.00  0.00     0.158 C 
ATOM      4  O5  IDS d 402      29.123 -69.981  67.481  0.00  0.00    -0.340 OA
ATOM      5  O61 IDS d 402      28.205 -69.858  70.218  0.00  0.00    -0.646 OA
ATOM      6  C3  IDS d 402      29.821 -67.535  67.520  0.00  0.00     0.094 C 
ATOM      7  O62 IDS d 402      26.221 -70.183  69.194  0.00  0.00    -0.646 OA
ATOM      8  O3S IDS d 402      33.503 -68.991  64.978  0.00  0.00    -0.572 OA
ATOM      9  O2S IDS d 402      31.526 -69.231  63.438  0.00  0.00    -0.572 OA
ATOM     10  C4  IDS d 402      28.429 -67.749  68.117  0.00  0.00     0.103 C 
ATOM     11  O1S IDS d 402      31.607 -70.509  65.598  0.00  0.00    -0.572 OA
ATOM     12  O3  IDS d 402      30.098 -66.130  67.443  0.00  0.00    -0.390 OA
ATOM     13  O1  IDS d 402      28.380 -69.806  65.238  0.00  0.00    -0.368 OA
ATOM     14  C2  IDS d 402      29.910 -68.137  66.116  0.00  0.00     0.134 C 
ATOM     15  C6  IDS d 402      27.424 -69.794  69.223  0.00  0.00     0.206 C 
ATOM     16  S   IDS d 402      31.974 -69.188  64.913  0.00  0.00     0.252 S 
ATOM     17  H   IDS d 402      27.224 -69.230  67.170  0.00  0.00     0.104 H 
ATOM     18  H   IDS d 402      30.312 -70.214  65.822  0.00  0.00     0.133 H 
ATOM     19  H   IDS d 402      30.536 -68.020  68.150  0.00  0.00     0.091 H 
ATOM     20  H   IDS d 402      27.733 -67.101  67.624  0.00  0.00     0.092 H 
ATOM     21  H   IDS d 402      29.443 -65.702  66.870  0.00  0.00     0.210 HD
ATOM     22  H   IDS d 402      27.633 -69.256  65.518  0.00  0.00     0.212 HD
ATOM     23  H   IDS d 402      29.249 -67.606  65.463  0.00  0.00     0.097 H 
ATOM     24  O4S SGN d 403      23.060 -65.181  66.787  0.00  0.00    -0.572 OA
ATOM     25  O5  SGN d 403      26.664 -65.881  69.551  0.00  0.00    -0.352 OA
ATOM     26  O3  SGN d 403      26.502 -64.249  71.692  0.00  0.00    -0.394 OA
ATOM     27  O3S SGN d 403      30.552 -64.589  72.350  0.00  0.00    -0.296 OA
ATOM     28  O1  SGN d 403      28.449 -67.440  69.526  0.00  0.00    -0.348 OA
ATOM     29  O6  SGN d 403      24.253 -65.755  68.909  0.00  0.00    -0.254 OA
ATOM     30  O5S SGN d 403      25.472 -65.809  66.718  0.00  0.00    -0.572 OA
ATOM     31  C2  SGN d 403      28.377 -65.732  71.244  0.00  0.00     0.079 C 
ATOM     32  C3  SGN d 403      27.082 -65.518  72.043  0.00  0.00     0.058 C 
ATOM     33  N   SGN d 403      29.218 -66.771  71.862  0.00  0.00    -0.210 NA
ATOM     34  O6S SGN d 403      23.741 -67.541  67.225  0.00  0.00    -0.572 OA
ATOM     35  C4  SGN d 403      26.074 -66.640  71.774  0.00  0.00    -0.013 C 
ATOM     36  C6  SGN d 403      24.438 -66.793  69.881  0.00  0.00     0.064 C 
ATOM     37  S2  SGN d 403      24.132 -66.073  67.412  0.00  0.00     0.251 S 
ATOM     38  O2S SGN d 403      31.791 -66.574  71.476  0.00  0.00    -0.296 OA
ATOM     39  C1  SGN d 403      28.065 -66.072  69.789  0.00  0.00     0.150 C 
ATOM     40  O1S SGN d 403      30.925 -66.577  73.818  0.00  0.00    -0.296 OA
ATOM     41  S1  SGN d 403      30.646 -66.117  72.384  0.00  0.00     0.156 S 
ATOM     42  C5  SGN d 403      25.918 -66.871  70.275  0.00  0.00     0.066 C 
ATOM     43  H   SGN d 403      27.143 -63.542  71.864  0.00  0.00     0.210 HD
ATOM     44  H   SGN d 403      30.376 -64.297  71.442  0.00  0.00     0.231 HD
ATOM     45  H   SGN d 403      28.930 -64.815  71.261  0.00  0.00     0.076 H 
ATOM     46  H   SGN d 403      27.324 -65.529  73.084  0.00  0.00     0.085 H 
ATOM     47  H   SGN d 403      29.413 -67.499  71.175  0.00  0.00     0.140 HD
ATOM     48  H   SGN d 403      25.126 -66.369  72.189  0.00  0.00     0.040 H 
ATOM     49  H   SGN d 403      26.431 -67.541  72.228  0.00  0.00     0.040 H 
ATOM     50  H   SGN d 403      24.130 -67.730  69.465  0.00  0.00     0.080 H 
ATOM     51  H   SGN d 403      23.850 -66.578  70.749  0.00  0.00     0.080 H 
ATOM     52  H   SGN d 403      31.618 -66.285  70.566  0.00  0.00     0.231 HD
ATOM     53  H   SGN d 403      28.615 -65.431  69.133  0.00  0.00     0.131 H 
ATOM     54  H   SGN d 403      30.201 -66.288  74.396  0.00  0.00     0.231 HD
ATOM     55  H   SGN d 403      26.292 -67.844  70.033  0.00  0.00     0.086 H 
ENDROOT
TORSDOF 16
ENDMDL
MODEL 46
REMARK VINA RESULT:      -3.5      3.364      4.729
REMARK  0 active torsions:
REMARK  status: ('A' for Active; 'I' for Inactive)
REMARK       I    between atoms: O2_1  and  C2_31 
REMARK       I    between atoms: O2_1  and  S_34 
REMARK       I    between atoms: C5_3  and  C6_33 
REMARK       I    between atoms: O3_5  and  C3_13 
REMARK       I    between atoms: O3S_6  and  S1_32 
REMARK       I    between atoms: O1_7  and  C4_23 
REMARK       I    between atoms: O1_7  and  C1_27 
REMARK       I    between atoms: O6_8  and  C6_21 
REMARK       I    between atoms: O6_8  and  S2_24 
REMARK       I    between atoms: C1_9  and  O1_30 
REMARK       I    between atoms: C2_12  and  N_14 
REMARK       I    between atoms: N_14  and  S1_32 
REMARK       I    between atoms: C3_16  and  O3_29 
REMARK       I    between atoms: C6_21  and  C5_35 
REMARK       I    between atoms: O2S_26  and  S1_32 
REMARK       I    between atoms: O1S_28  and  S1_32 
ROOT
ATOM      1  O2  IDS d 402      28.113 -66.744  66.285  0.00  0.00    -0.244 OA
ATOM      2  C5  IDS d 402      24.962 -68.259  68.540  0.00  0.00     0.152 C 
ATOM      3  C1  IDS d 402      26.209 -68.233  66.538  0.00  0.00     0.158 C 
ATOM      4  O5  IDS d 402      25.933 -68.968  67.747  0.00  0.00    -0.340 OA
ATOM      5  O61 IDS d 402      25.323 -69.608  70.498  0.00  0.00    -0.646 OA
ATOM      6  C3  IDS d 402      26.940 -66.727  68.407  0.00  0.00     0.094 C 
ATOM      7  O62 IDS d 402      23.220 -69.419  69.704  0.00  0.00    -0.646 OA
ATOM      8  O3S IDS d 402      30.125 -67.664  65.072  0.00  0.00    -0.572 OA
ATOM      9  O2S IDS d 402      27.986 -67.236  63.814  0.00  0.00    -0.572 OA
ATOM     10  C4  IDS d 402      25.600 -66.985  69.099  0.00  0.00     0.103 C 
ATOM     11  O1S IDS d 402      28.123 -69.117  65.472  0.00  0.00    -0.572 OA
ATOM     12  O3  IDS d 402      27.387 -65.399  68.709  0.00  0.00    -0.390 OA
ATOM     13  O1  IDS d 402      24.993 -68.045  65.777  0.00  0.00    -0.368 OA
ATOM     14  C2  IDS d 402      26.807 -66.874  66.890  0.00  0.00     0.134 C 
ATOM     15  C6  IDS d 402      24.459 -69.170  69.682  0.00  0.00     0.206 C 
ATOM     16  S   IDS d 402      28.585 -67.690  65.162  0.00  0.00     0.252 S 
ATOM     17  H   IDS d 402      24.124 -67.987  67.933  0.00  0.00     0.104 H 
ATOM     18  H   IDS d 402      26.905 -68.789  65.947  0.00  0.00     0.133 H 
ATOM     19  H   IDS d 402      27.648 -67.446  68.763  0.00  0.00     0.091 H 
ATOM     20  H   IDS d 402      24.948 -66.156  68.918  0.00  0.00     0.092 H 
ATOM     21  H   IDS d 402      26.737 -64.757  68.382  0.00  0.00     0.210 HD
ATOM     22  H   IDS d 402      24.355 -67.541  66.306  0.00  0.00     0.212 HD
ATOM     23  H   IDS d 402      26.156 -66.110  66.518  0.00  0.00     0.097 H 
ATOM     24  O4S SGN d 403      20.500 -63.650  69.327  0.00  0.00    -0.572 OA
ATOM     25  O5  SGN d 403      24.247 -65.494  71.245  0.00  0.00    -0.352 OA
ATOM     26  O3  SGN d 403      24.516 -64.592  73.772  0.00  0.00    -0.394 OA
ATOM     27  O3S SGN d 403      28.535 -65.488  73.742  0.00  0.00    -0.296 OA
ATOM     28  O1  SGN d 403      25.804 -67.128  70.520  0.00  0.00    -0.348 OA
ATOM     29  O6  SGN d 403      21.819 -64.957  71.004  0.00  0.00    -0.254 OA
ATOM     30  O5S SGN d 403      22.791 -64.447  68.749  0.00  0.00    -0.572 OA
ATOM     31  C2  SGN d 403      26.129 -66.031  72.657  0.00  0.00     0.079 C 
ATOM     32  C3  SGN d 403      24.961 -65.954  73.652  0.00  0.00     0.058 C 
ATOM     33  N   SGN d 403      26.888 -67.282  72.822  0.00  0.00    -0.210 NA
ATOM     34  O6S SGN d 403      20.912 -66.083  68.955  0.00  0.00    -0.572 OA
ATOM     35  C4  SGN d 403      23.795 -66.842  73.206  0.00  0.00    -0.013 C 
ATOM     36  C6  SGN d 403      21.967 -66.256  71.593  0.00  0.00     0.064 C 
ATOM     37  S2  SGN d 403      21.507 -64.787  69.510  0.00  0.00     0.251 S 
ATOM     38  O2S SGN d 403      29.412 -67.213  72.163  0.00  0.00    -0.296 OA
ATOM     39  C1  SGN d 403      25.629 -65.878  71.223  0.00  0.00     0.150 C 
ATOM     40  O1S SGN d 403      28.797 -67.856  74.496  0.00  0.00    -0.296 OA
ATOM     41  S1  SGN d 403      28.434 -66.954  73.313  0.00  0.00     0.156 S 
ATOM     42  C5  SGN d 403      23.458 -66.586  71.741  0.00  0.00     0.066 C 
ATOM     43  H   SGN d 403      25.257 -64.034  74.055  0.00  0.00     0.210 HD
ATOM     44  H   SGN d 403      28.306 -64.916  72.993  0.00  0.00     0.231 HD
ATOM     45  H   SGN d 403      26.794 -65.218  72.866  0.00  0.00     0.076 H 
ATOM     46  H   SGN d 403      25.305 -66.307  74.601  0.00  0.00     0.085 H 
ATOM     47  H   SGN d 403      26.916 -67.779  71.931  0.00  0.00     0.140 HD
ATOM     48  H   SGN d 403      22.938 -66.625  73.808  0.00  0.00     0.040 H 
ATOM     49  H   SGN d 403      24.077 -67.868  73.322  0.00  0.00     0.040 H 
ATOM     50  H   SGN d 403      21.501 -66.986  70.966  0.00  0.00     0.080 H 
ATOM     51  H   SGN d 403      21.504 -66.263  72.558  0.00  0.00     0.080 H 
ATOM     52  H   SGN d 403      29.185 -66.644  71.411  0.00  0.00     0.231 HD
ATOM     53  H   SGN d 403      26.187 -65.119  70.715  0.00  0.00     0.131 H 
ATOM     54  H   SGN d 403      28.179 -67.693  75.227  0.00  0.00     0.231 HD
ATOM     55  H   SGN d 403      23.676 -67.467  71.175  0.00  0.00     0.086 H 
ENDROOT
TORSDOF 16
ENDMDL
MODEL 47
REMARK VINA RESULT:      -3.5      2.976      6.945
REMARK  0 active torsions:
REMARK  status: ('A' for Active; 'I' for Inactive)
REMARK       I    between atoms: O2_1  and  C2_31 
REMARK       I    between atoms: O2_1  and  S_34 
REMARK       I    between atoms: C5_3  and  C6_33 
REMARK       I    between atoms: O3_5  and  C3_13 
REMARK       I    between atoms: O3S_6  and  S1_32 
REMARK       I    between atoms: O1_7  and  C4_23 
REMARK       I    between atoms: O1_7  and  C1_27 
REMARK       I    between atoms: O6_8  and  C6_21 
REMARK       I    between atoms: O6_8  and  S2_24 
REMARK       I    between atoms: C1_9  and  O1_30 
REMARK       I    between atoms: C2_12  and  N_14 
REMARK       I    between atoms: N_14  and  S1_32 
REMARK       I    between atoms: C3_16  and  O3_29 
REMARK       I    between atoms: C6_21  and  C5_35 
REMARK       I    between atoms: O2S_26  and  S1_32 
REMARK       I    between atoms: O1S_28  and  S1_32 
ROOT
ATOM      1  O2  IDS d 402      23.603 -65.768  69.252  0.00  0.00    -0.244 OA
ATOM      2  C5  IDS d 402      26.152 -67.571  66.501  0.00  0.00     0.152 C 
ATOM      3  C1  IDS d 402      24.037 -66.677  67.039  0.00  0.00     0.158 C 
ATOM      4  O5  IDS d 402      25.264 -66.453  66.317  0.00  0.00    -0.340 OA
ATOM      5  O61 IDS d 402      28.059 -66.428  65.584  0.00  0.00    -0.646 OA
ATOM      6  C3  IDS d 402      25.830 -66.609  68.792  0.00  0.00     0.094 C 
ATOM      7  O62 IDS d 402      27.478 -68.418  64.695  0.00  0.00    -0.646 OA
ATOM      8  O3S IDS d 402      22.193 -63.680  69.368  0.00  0.00    -0.572 OA
ATOM      9  O2S IDS d 402      21.155 -65.858  68.649  0.00  0.00    -0.572 OA
ATOM     10  C4  IDS d 402      26.651 -67.586  67.948  0.00  0.00     0.103 C 
ATOM     11  O1S IDS d 402      22.783 -64.677  67.146  0.00  0.00    -0.572 OA
ATOM     12  O3  IDS d 402      26.093 -66.840  70.182  0.00  0.00    -0.390 OA
ATOM     13  O1  IDS d 402      23.401 -67.892  66.580  0.00  0.00    -0.368 OA
ATOM     14  C2  IDS d 402      24.333 -66.787  68.531  0.00  0.00     0.134 C 
ATOM     15  C6  IDS d 402      27.334 -67.465  65.512  0.00  0.00     0.206 C 
ATOM     16  S   IDS d 402      22.435 -64.998  68.603  0.00  0.00     0.252 S 
ATOM     17  H   IDS d 402      25.632 -68.485  66.306  0.00  0.00     0.104 H 
ATOM     18  H   IDS d 402      23.378 -65.853  66.865  0.00  0.00     0.133 H 
ATOM     19  H   IDS d 402      26.112 -65.612  68.523  0.00  0.00     0.091 H 
ATOM     20  H   IDS d 402      26.538 -68.573  68.348  0.00  0.00     0.092 H 
ATOM     21  H   IDS d 402      25.834 -67.746  70.414  0.00  0.00     0.210 HD
ATOM     22  H   IDS d 402      23.992 -68.645  66.735  0.00  0.00     0.212 HD
ATOM     23  H   IDS d 402      24.031 -67.757  68.867  0.00  0.00     0.097 H 
ATOM     24  O4S SGN d 403      27.395 -73.622  68.401  0.00  0.00    -0.572 OA
ATOM     25  O5  SGN d 403      28.926 -69.299  68.690  0.00  0.00    -0.352 OA
ATOM     26  O3  SGN d 403      31.418 -69.280  69.722  0.00  0.00    -0.394 OA
ATOM     27  O3S SGN d 403      30.987 -65.354  70.884  0.00  0.00    -0.296 OA
ATOM     28  O1  SGN d 403      28.044 -67.215  67.985  0.00  0.00    -0.348 OA
ATOM     29  O6  SGN d 403      28.928 -71.692  67.973  0.00  0.00    -0.254 OA
ATOM     30  O5S SGN d 403      26.590 -71.294  68.789  0.00  0.00    -0.572 OA
ATOM     31  C2  SGN d 403      30.143 -67.277  69.196  0.00  0.00     0.079 C 
ATOM     32  C3  SGN d 403      31.249 -68.242  68.741  0.00  0.00     0.058 C 
ATOM     33  N   SGN d 403      30.227 -65.993  68.478  0.00  0.00    -0.210 NA
ATOM     34  O6S SGN d 403      26.975 -72.113  66.458  0.00  0.00    -0.572 OA
ATOM     35  C4  SGN d 403      30.917 -68.862  67.381  0.00  0.00    -0.013 C 
ATOM     36  C6  SGN d 403      29.495 -70.879  66.936  0.00  0.00     0.064 C 
ATOM     37  S2  SGN d 403      27.474 -72.178  67.904  0.00  0.00     0.251 S 
ATOM     38  O2S SGN d 403      29.322 -63.892  69.731  0.00  0.00    -0.296 OA
ATOM     39  C1  SGN d 403      28.766 -67.913  69.024  0.00  0.00     0.150 C 
ATOM     40  O1S SGN d 403      31.702 -63.908  68.976  0.00  0.00    -0.296 OA
ATOM     41  S1  SGN d 403      30.564 -64.766  69.535  0.00  0.00     0.156 S 
ATOM     42  C5  SGN d 403      29.493 -69.410  67.376  0.00  0.00     0.066 C 
ATOM     43  H   SGN d 403      31.628 -68.883  70.580  0.00  0.00     0.210 HD
ATOM     44  H   SGN d 403      30.267 -65.897  71.240  0.00  0.00     0.231 HD
ATOM     45  H   SGN d 403      30.289 -67.076  70.237  0.00  0.00     0.076 H 
ATOM     46  H   SGN d 403      32.158 -67.687  68.641  0.00  0.00     0.085 H 
ATOM     47  H   SGN d 403      29.335 -65.806  68.018  0.00  0.00     0.140 HD
ATOM     48  H   SGN d 403      31.601 -69.660  67.181  0.00  0.00     0.040 H 
ATOM     49  H   SGN d 403      31.000 -68.108  66.627  0.00  0.00     0.040 H 
ATOM     50  H   SGN d 403      28.914 -70.985  66.044  0.00  0.00     0.080 H 
ATOM     51  H   SGN d 403      30.500 -71.192  66.748  0.00  0.00     0.080 H 
ATOM     52  H   SGN d 403      28.599 -64.432  70.085  0.00  0.00     0.231 HD
ATOM     53  H   SGN d 403      28.209 -67.841  69.934  0.00  0.00     0.131 H 
ATOM     54  H   SGN d 403      32.491 -64.459  68.851  0.00  0.00     0.231 HD
ATOM     55  H   SGN d 403      28.905 -68.841  66.687  0.00  0.00     0.086 H 
ENDROOT
TORSDOF 16
ENDMDL
MODEL 48
REMARK VINA RESULT:      -3.5      2.828      5.932
REMARK  0 active torsions:
REMARK  status: ('A' for Active; 'I' for Inactive)
REMARK       I    between atoms: O2_1  and  C2_31 
REMARK       I    between atoms: O2_1  and  S_34 
REMARK       I    between atoms: C5_3  and  C6_33 
REMARK       I    between atoms: O3_5  and  C3_13 
REMARK       I    between atoms: O3S_6  and  S1_32 
REMARK       I    between atoms: O1_7  and  C4_23 
REMARK       I    between atoms: O1_7  and  C1_27 
REMARK       I    between atoms: O6_8  and  C6_21 
REMARK       I    between atoms: O6_8  and  S2_24 
REMARK       I    between atoms: C1_9  and  O1_30 
REMARK       I    between atoms: C2_12  and  N_14 
REMARK       I    between atoms: N_14  and  S1_32 
REMARK       I    between atoms: C3_16  and  O3_29 
REMARK       I    between atoms: C6_21  and  C5_35 
REMARK       I    between atoms: O2S_26  and  S1_32 
REMARK       I    between atoms: O1S_28  and  S1_32 
ROOT
ATOM      1  O2  IDS d 402      29.796 -71.063  71.244  0.00  0.00    -0.244 OA
ATOM      2  C5  IDS d 402      27.514 -67.831  69.956  0.00  0.00     0.152 C 
ATOM      3  C1  IDS d 402      28.259 -69.235  71.698  0.00  0.00     0.158 C 
ATOM      4  O5  IDS d 402      28.382 -67.929  71.100  0.00  0.00    -0.340 OA
ATOM      5  O61 IDS d 402      28.516 -65.796  69.155  0.00  0.00    -0.646 OA
ATOM      6  C3  IDS d 402      29.141 -69.649  69.386  0.00  0.00     0.094 C 
ATOM      7  O62 IDS d 402      26.285 -65.827  69.494  0.00  0.00    -0.646 OA
ATOM      8  O3S IDS d 402      31.604 -71.482  72.953  0.00  0.00    -0.572 OA
ATOM      9  O2S IDS d 402      29.197 -71.942  73.531  0.00  0.00    -0.572 OA
ATOM     10  C4  IDS d 402      28.050 -68.728  68.837  0.00  0.00     0.103 C 
ATOM     11  O1S IDS d 402      30.001 -69.579  73.257  0.00  0.00    -0.572 OA
ATOM     12  O3  IDS d 402      29.427 -70.677  68.428  0.00  0.00    -0.390 OA
ATOM     13  O1  IDS d 402      26.890 -69.477  72.096  0.00  0.00    -0.368 OA
ATOM     14  C2  IDS d 402      28.696 -70.300  70.697  0.00  0.00     0.134 C 
ATOM     15  C6  IDS d 402      27.432 -66.360  69.490  0.00  0.00     0.206 C 
ATOM     16  S   IDS d 402      30.148 -71.016  72.745  0.00  0.00     0.252 S 
ATOM     17  H   IDS d 402      26.529 -68.157  70.216  0.00  0.00     0.104 H 
ATOM     18  H   IDS d 402      28.885 -69.279  72.564  0.00  0.00     0.133 H 
ATOM     19  H   IDS d 402      30.017 -69.062  69.571  0.00  0.00     0.091 H 
ATOM     20  H   IDS d 402      27.250 -69.325  68.451  0.00  0.00     0.092 H 
ATOM     21  H   IDS d 402      28.626 -71.201  68.268  0.00  0.00     0.210 HD
ATOM     22  H   IDS d 402      26.315 -69.439  71.316  0.00  0.00     0.212 HD
ATOM     23  H   IDS d 402      27.865 -70.947  70.504  0.00  0.00     0.097 H 
ATOM     24  O4S SGN d 403      22.666 -69.985  66.265  0.00  0.00    -0.572 OA
ATOM     25  O5  SGN d 403      26.993 -68.445  66.105  0.00  0.00    -0.352 OA
ATOM     26  O3  SGN d 403      27.675 -67.904  63.553  0.00  0.00    -0.394 OA
ATOM     27  O3S SGN d 403      31.674 -68.232  64.475  0.00  0.00    -0.296 OA
ATOM     28  O1  SGN d 403      28.588 -67.912  67.776  0.00  0.00    -0.348 OA
ATOM     29  O6  SGN d 403      24.519 -68.381  65.763  0.00  0.00    -0.254 OA
ATOM     30  O5S SGN d 403      24.866 -70.239  67.411  0.00  0.00    -0.572 OA
ATOM     31  C2  SGN d 403      29.205 -67.748  65.437  0.00  0.00     0.079 C 
ATOM     32  C3  SGN d 403      28.293 -66.981  64.467  0.00  0.00     0.058 C 
ATOM     33  N   SGN d 403      30.171 -66.846  66.086  0.00  0.00    -0.210 NA
ATOM     34  O6S SGN d 403      23.367 -68.324  67.989  0.00  0.00    -0.572 OA
ATOM     35  C4  SGN d 403      27.214 -66.200  65.223  0.00  0.00    -0.013 C 
ATOM     36  C6  SGN d 403      25.001 -67.058  66.032  0.00  0.00     0.064 C 
ATOM     37  S2  SGN d 403      23.856 -69.230  66.857  0.00  0.00     0.251 S 
ATOM     38  O2S SGN d 403      32.438 -67.901  66.830  0.00  0.00    -0.296 OA
ATOM     39  C1  SGN d 403      28.377 -68.503  66.474  0.00  0.00     0.150 C 
ATOM     40  O1S SGN d 403      32.473 -65.987  65.227  0.00  0.00    -0.296 OA
ATOM     41  S1  SGN d 403      31.715 -67.249  65.648  0.00  0.00     0.156 S 
ATOM     42  C5  SGN d 403      26.519 -67.097  66.243  0.00  0.00     0.066 C 
ATOM     43  H   SGN d 403      28.362 -68.395  63.077  0.00  0.00     0.210 HD
ATOM     44  H   SGN d 403      31.195 -69.032  64.740  0.00  0.00     0.231 HD
ATOM     45  H   SGN d 403      29.761 -68.465  64.869  0.00  0.00     0.076 H 
ATOM     46  H   SGN d 403      28.893 -66.281  63.925  0.00  0.00     0.085 H 
ATOM     47  H   SGN d 403      30.077 -66.924  67.099  0.00  0.00     0.140 HD
ATOM     48  H   SGN d 403      26.490 -65.835  64.525  0.00  0.00     0.040 H 
ATOM     49  H   SGN d 403      27.675 -65.383  65.738  0.00  0.00     0.040 H 
ATOM     50  H   SGN d 403      24.528 -66.680  66.915  0.00  0.00     0.080 H 
ATOM     51  H   SGN d 403      24.773 -66.421  65.204  0.00  0.00     0.080 H 
ATOM     52  H   SGN d 403      31.961 -68.701  67.100  0.00  0.00     0.231 HD
ATOM     53  H   SGN d 403      28.679 -69.529  66.513  0.00  0.00     0.131 H 
ATOM     54  H   SGN d 403      32.018 -65.571  64.478  0.00  0.00     0.231 HD
ATOM     55  H   SGN d 403      26.743 -66.741  67.227  0.00  0.00     0.086 H 
ENDROOT
TORSDOF 16
ENDMDL
MODEL 49
REMARK VINA RESULT:      -3.4      2.654      3.739
REMARK  0 active torsions:
REMARK  status: ('A' for Active; 'I' for Inactive)
REMARK       I    between atoms: O2_1  and  C2_31 
REMARK       I    between atoms: O2_1  and  S_34 
REMARK       I    between atoms: C5_3  and  C6_33 
REMARK       I    between atoms: O3_5  and  C3_13 
REMARK       I    between atoms: O3S_6  and  S1_32 
REMARK       I    between atoms: O1_7  and  C4_23 
REMARK       I    between atoms: O1_7  and  C1_27 
REMARK       I    between atoms: O6_8  and  C6_21 
REMARK       I    between atoms: O6_8  and  S2_24 
REMARK       I    between atoms: C1_9  and  O1_30 
REMARK       I    between atoms: C2_12  and  N_14 
REMARK       I    between atoms: N_14  and  S1_32 
REMARK       I    between atoms: C3_16  and  O3_29 
REMARK       I    between atoms: C6_21  and  C5_35 
REMARK       I    between atoms: O2S_26  and  S1_32 
REMARK       I    between atoms: O1S_28  and  S1_32 
ROOT
ATOM      1  O2  IDS d 402      33.229 -64.811  66.147  0.00  0.00    -0.244 OA
ATOM      2  C5  IDS d 402      31.586 -68.620  65.820  0.00  0.00     0.152 C 
ATOM      3  C1  IDS d 402      32.793 -66.832  64.868  0.00  0.00     0.158 C 
ATOM      4  O5  IDS d 402      32.890 -68.158  65.423  0.00  0.00    -0.340 OA
ATOM      5  O61 IDS d 402      32.439 -70.493  67.065  0.00  0.00    -0.646 OA
ATOM      6  C3  IDS d 402      32.028 -66.609  67.247  0.00  0.00     0.094 C 
ATOM      7  O62 IDS d 402      30.905 -70.888  65.458  0.00  0.00    -0.646 OA
ATOM      8  O3S IDS d 402      35.500 -63.751  65.860  0.00  0.00    -0.572 OA
ATOM      9  O2S IDS d 402      33.854 -63.732  63.955  0.00  0.00    -0.572 OA
ATOM     10  C4  IDS d 402      31.114 -67.817  67.035  0.00  0.00     0.103 C 
ATOM     11  O1S IDS d 402      34.946 -65.880  64.661  0.00  0.00    -0.572 OA
ATOM     12  O3  IDS d 402      31.421 -65.708  68.183  0.00  0.00    -0.390 OA
ATOM     13  O1  IDS d 402      31.902 -66.830  63.728  0.00  0.00    -0.368 OA
ATOM     14  C2  IDS d 402      32.268 -65.869  65.928  0.00  0.00     0.134 C 
ATOM     15  C6  IDS d 402      31.645 -70.129  66.146  0.00  0.00     0.206 C 
ATOM     16  S   IDS d 402      34.380 -64.544  65.156  0.00  0.00     0.252 S 
ATOM     17  H   IDS d 402      30.889 -68.476  65.021  0.00  0.00     0.104 H 
ATOM     18  H   IDS d 402      33.764 -66.518  64.549  0.00  0.00     0.133 H 
ATOM     19  H   IDS d 402      32.967 -66.957  67.623  0.00  0.00     0.091 H 
ATOM     20  H   IDS d 402      30.115 -67.474  66.863  0.00  0.00     0.092 H 
ATOM     21  H   IDS d 402      30.572 -65.400  67.830  0.00  0.00     0.210 HD
ATOM     22  H   IDS d 402      31.018 -67.113  64.009  0.00  0.00     0.212 HD
ATOM     23  H   IDS d 402      31.344 -65.455  65.584  0.00  0.00     0.097 H 
ATOM     24  O4S SGN d 403      25.139 -68.166  65.869  0.00  0.00    -0.572 OA
ATOM     25  O5  SGN d 403      28.796 -68.748  68.590  0.00  0.00    -0.352 OA
ATOM     26  O3  SGN d 403      27.992 -69.526  71.044  0.00  0.00    -0.394 OA
ATOM     27  O3S SGN d 403      31.524 -68.206  72.700  0.00  0.00    -0.296 OA
ATOM     28  O1  SGN d 403      31.134 -68.656  68.208  0.00  0.00    -0.348 OA
ATOM     29  O6  SGN d 403      26.706 -69.394  67.383  0.00  0.00    -0.254 OA
ATOM     30  O5S SGN d 403      27.431 -67.269  66.267  0.00  0.00    -0.572 OA
ATOM     31  C2  SGN d 403      30.303 -69.050  70.451  0.00  0.00     0.079 C 
ATOM     32  C3  SGN d 403      29.243 -70.139  70.683  0.00  0.00     0.058 C 
ATOM     33  N   SGN d 403      31.664 -69.610  70.512  0.00  0.00    -0.210 NA
ATOM     34  O6S SGN d 403      27.119 -69.345  64.910  0.00  0.00    -0.572 OA
ATOM     35  C4  SGN d 403      29.055 -71.004  69.433  0.00  0.00    -0.013 C 
ATOM     36  C6  SGN d 403      27.586 -70.524  67.459  0.00  0.00     0.064 C 
ATOM     37  S2  SGN d 403      26.601 -68.546  66.108  0.00  0.00     0.251 S 
ATOM     38  O2S SGN d 403      33.561 -67.989  71.271  0.00  0.00    -0.296 OA
ATOM     39  C1  SGN d 403      30.062 -68.336  69.123  0.00  0.00     0.150 C 
ATOM     40  O1S SGN d 403      33.173 -70.080  72.580  0.00  0.00    -0.296 OA
ATOM     41  S1  SGN d 403      32.495 -68.960  71.786  0.00  0.00     0.156 S 
ATOM     42  C5  SGN d 403      28.869 -70.127  68.199  0.00  0.00     0.066 C 
ATOM     43  H   SGN d 403      28.116 -68.980  71.835  0.00  0.00     0.210 HD
ATOM     44  H   SGN d 403      31.094 -67.496  72.198  0.00  0.00     0.231 HD
ATOM     45  H   SGN d 403      30.213 -68.330  71.238  0.00  0.00     0.076 H 
ATOM     46  H   SGN d 403      29.579 -70.770  71.478  0.00  0.00     0.085 H 
ATOM     47  H   SGN d 403      32.155 -69.395  69.644  0.00  0.00     0.140 HD
ATOM     48  H   SGN d 403      28.191 -71.621  69.560  0.00  0.00     0.040 H 
ATOM     49  H   SGN d 403      29.926 -71.611  69.299  0.00  0.00     0.040 H 
ATOM     50  H   SGN d 403      27.832 -70.851  66.470  0.00  0.00     0.080 H 
ATOM     51  H   SGN d 403      27.102 -71.318  67.988  0.00  0.00     0.080 H 
ATOM     52  H   SGN d 403      33.135 -67.278  70.768  0.00  0.00     0.231 HD
ATOM     53  H   SGN d 403      30.044 -67.277  69.271  0.00  0.00     0.131 H 
ATOM     54  H   SGN d 403      32.499 -70.697  72.908  0.00  0.00     0.231 HD
ATOM     55  H   SGN d 403      29.705 -70.266  67.546  0.00  0.00     0.086 H 
ENDROOT
TORSDOF 16
ENDMDL
MODEL 50
REMARK VINA RESULT:      -3.4      2.384      7.310
REMARK  0 active torsions:
REMARK  status: ('A' for Active; 'I' for Inactive)
REMARK       I    between atoms: O2_1  and  C2_31 
REMARK       I    between atoms: O2_1  and  S_34 
REMARK       I    between atoms: C5_3  and  C6_33 
REMARK       I    between atoms: O3_5  and  C3_13 
REMARK       I    between atoms: O3S_6  and  S1_32 
REMARK       I    between atoms: O1_7  and  C4_23 
REMARK       I    between atoms: O1_7  and  C1_27 
REMARK       I    between atoms: O6_8  and  C6_21 
REMARK       I    between atoms: O6_8  and  S2_24 
REMARK       I    between atoms: C1_9  and  O1_30 
REMARK       I    between atoms: C2_12  and  N_14 
REMARK       I    between atoms: N_14  and  S1_32 
REMARK       I    between atoms: C3_16  and  O3_29 
REMARK       I    between atoms: C6_21  and  C5_35 
REMARK       I    between atoms: O2S_26  and  S1_32 
REMARK       I    between atoms: O1S_28  and  S1_32 
ROOT
ATOM      1  O2  IDS d 402      27.945 -64.174  70.458  0.00  0.00    -0.244 OA
ATOM      2  C5  IDS d 402      29.721 -67.835  69.590  0.00  0.00     0.152 C 
ATOM      3  C1  IDS d 402      29.543 -65.932  70.971  0.00  0.00     0.158 C 
ATOM      4  O5  IDS d 402      29.242 -67.337  70.852  0.00  0.00    -0.340 OA
ATOM      5  O61 IDS d 402      28.521 -69.912  69.757  0.00  0.00    -0.646 OA
ATOM      6  C3  IDS d 402      28.001 -66.111  69.000  0.00  0.00     0.094 C 
ATOM      7  O62 IDS d 402      30.749 -69.991  69.411  0.00  0.00    -0.646 OA
ATOM      8  O3S IDS d 402      26.741 -63.124  72.411  0.00  0.00    -0.572 OA
ATOM      9  O2S IDS d 402      29.211 -62.742  72.104  0.00  0.00    -0.572 OA
ATOM     10  C4  IDS d 402      28.873 -67.246  68.459  0.00  0.00     0.103 C 
ATOM     11  O1S IDS d 402      28.357 -65.002  72.791  0.00  0.00    -0.572 OA
ATOM     12  O3  IDS d 402      27.440 -65.375  67.905  0.00  0.00    -0.390 OA
ATOM     13  O1  IDS d 402      30.969 -65.715  70.866  0.00  0.00    -0.368 OA
ATOM     14  C2  IDS d 402      28.825 -65.159  69.870  0.00  0.00     0.134 C 
ATOM     15  C6  IDS d 402      29.656 -69.379  69.580  0.00  0.00     0.206 C 
ATOM     16  S   IDS d 402      28.064 -63.761  71.940  0.00  0.00     0.252 S 
ATOM     17  H   IDS d 402      30.740 -67.540  69.444  0.00  0.00     0.104 H 
ATOM     18  H   IDS d 402      29.210 -65.587  71.927  0.00  0.00     0.133 H 
ATOM     19  H   IDS d 402      27.223 -66.538  69.597  0.00  0.00     0.091 H 
ATOM     20  H   IDS d 402      29.519 -66.859  67.699  0.00  0.00     0.092 H 
ATOM     21  H   IDS d 402      28.156 -64.993  67.372  0.00  0.00     0.210 HD
ATOM     22  H   IDS d 402      31.280 -66.025  70.001  0.00  0.00     0.212 HD
ATOM     23  H   IDS d 402      29.559 -64.673  69.262  0.00  0.00     0.097 H 
ATOM     24  O4S SGN d 403      33.224 -67.270  64.187  0.00  0.00    -0.572 OA
ATOM     25  O5  SGN d 403      29.051 -68.387  65.753  0.00  0.00    -0.352 OA
ATOM     26  O3  SGN d 403      27.625 -69.564  63.790  0.00  0.00    -0.394 OA
ATOM     27  O3S SGN d 403      24.095 -68.622  65.687  0.00  0.00    -0.296 OA
ATOM     28  O1  SGN d 403      28.037 -68.276  67.893  0.00  0.00    -0.348 OA
ATOM     29  O6  SGN d 403      31.303 -68.773  64.745  0.00  0.00    -0.254 OA
ATOM     30  O5S SGN d 403      31.477 -66.500  65.791  0.00  0.00    -0.572 OA
ATOM     31  C2  SGN d 403      26.739 -69.038  65.992  0.00  0.00     0.079 C 
ATOM     32  C3  SGN d 403      27.312 -70.129  65.075  0.00  0.00     0.058 C 
ATOM     33  N   SGN d 403      26.013 -69.627  67.131  0.00  0.00    -0.210 NA
ATOM     34  O6S SGN d 403      33.077 -68.303  66.454  0.00  0.00    -0.572 OA
ATOM     35  C4  SGN d 403      28.569 -70.760  65.683  0.00  0.00    -0.013 C 
ATOM     36  C6  SGN d 403      30.924 -69.916  65.524  0.00  0.00     0.064 C 
ATOM     37  S2  SGN d 403      32.269 -67.714  65.296  0.00  0.00     0.251 S 
ATOM     38  O2S SGN d 403      24.081 -68.200  68.149  0.00  0.00    -0.296 OA
ATOM     39  C1  SGN d 403      27.844 -68.100  66.472  0.00  0.00     0.150 C 
ATOM     40  O1S SGN d 403      23.558 -70.478  67.272  0.00  0.00    -0.296 OA
ATOM     41  S1  SGN d 403      24.410 -69.224  67.060  0.00  0.00     0.156 S 
ATOM     42  C5  SGN d 403      29.541 -69.679  66.143  0.00  0.00     0.066 C 
ATOM     43  H   SGN d 403      26.827 -69.167  63.409  0.00  0.00     0.210 HD
ATOM     44  H   SGN d 403      24.633 -67.827  65.552  0.00  0.00     0.231 HD
ATOM     45  H   SGN d 403      26.038 -68.464  65.424  0.00  0.00     0.076 H 
ATOM     46  H   SGN d 403      26.575 -70.895  64.964  0.00  0.00     0.085 H 
ATOM     47  H   SGN d 403      26.411 -69.273  68.002  0.00  0.00     0.140 HD
ATOM     48  H   SGN d 403      29.046 -71.373  64.948  0.00  0.00     0.040 H 
ATOM     49  H   SGN d 403      28.284 -71.352  66.528  0.00  0.00     0.040 H 
ATOM     50  H   SGN d 403      31.642 -70.070  66.302  0.00  0.00     0.080 H 
ATOM     51  H   SGN d 403      30.888 -70.779  64.894  0.00  0.00     0.080 H 
ATOM     52  H   SGN d 403      24.619 -67.404  68.018  0.00  0.00     0.231 HD
ATOM     53  H   SGN d 403      27.570 -67.082  66.289  0.00  0.00     0.131 H 
ATOM     54  H   SGN d 403      23.764 -71.129  66.582  0.00  0.00     0.231 HD
ATOM     55  H   SGN d 403      29.626 -69.719  67.209  0.00  0.00     0.086 H 
ENDROOT
TORSDOF 16
ENDMDL
MODEL 51
REMARK VINA RESULT:      -3.4      2.796      6.438
REMARK  0 active torsions:
REMARK  status: ('A' for Active; 'I' for Inactive)
REMARK       I    between atoms: O2_1  and  C2_31 
REMARK       I    between atoms: O2_1  and  S_34 
REMARK       I    between atoms: C5_3  and  C6_33 
REMARK       I    between atoms: O3_5  and  C3_13 
REMARK       I    between atoms: O3S_6  and  S1_32 
REMARK       I    between atoms: O1_7  and  C4_23 
REMARK       I    between atoms: O1_7  and  C1_27 
REMARK       I    between atoms: O6_8  and  C6_21 
REMARK       I    between atoms: O6_8  and  S2_24 
REMARK       I    between atoms: C1_9  and  O1_30 
REMARK       I    between atoms: C2_12  and  N_14 
REMARK       I    between atoms: N_14  and  S1_32 
REMARK       I    between atoms: C3_16  and  O3_29 
REMARK       I    between atoms: C6_21  and  C5_35 
REMARK       I    between atoms: O2S_26  and  S1_32 
REMARK       I    between atoms: O1S_28  and  S1_32 
ROOT
ATOM      1  O2  IDS d 402      26.209 -71.904  66.741  0.00  0.00    -0.244 OA
ATOM      2  C5  IDS d 402      28.432 -69.000  64.757  0.00  0.00     0.152 C 
ATOM      3  C1  IDS d 402      26.822 -70.722  64.707  0.00  0.00     0.158 C 
ATOM      4  O5  IDS d 402      27.027 -69.297  64.649  0.00  0.00    -0.340 OA
ATOM      5  O61 IDS d 402      28.082 -66.648  65.123  0.00  0.00    -0.646 OA
ATOM      6  C3  IDS d 402      27.833 -70.112  66.921  0.00  0.00     0.094 C 
ATOM      7  O62 IDS d 402      29.444 -67.276  63.438  0.00  0.00    -0.646 OA
ATOM      8  O3S IDS d 402      23.771 -72.484  67.029  0.00  0.00    -0.572 OA
ATOM      9  O2S IDS d 402      25.132 -73.625  65.245  0.00  0.00    -0.572 OA
ATOM     10  C4  IDS d 402      28.908 -69.317  66.177  0.00  0.00     0.103 C 
ATOM     11  O1S IDS d 402      24.529 -71.198  65.016  0.00  0.00    -0.572 OA
ATOM     12  O3  IDS d 402      28.389 -70.658  68.124  0.00  0.00    -0.390 OA
ATOM     13  O1  IDS d 402      27.547 -71.376  63.640  0.00  0.00    -0.368 OA
ATOM     14  C2  IDS d 402      27.302 -71.255  66.053  0.00  0.00     0.134 C 
ATOM     15  C6  IDS d 402      28.677 -67.513  64.413  0.00  0.00     0.206 C 
ATOM     16  S   IDS d 402      24.912 -72.302  66.008  0.00  0.00     0.252 S 
ATOM     17  H   IDS d 402      28.986 -69.600  64.066  0.00  0.00     0.104 H 
ATOM     18  H   IDS d 402      25.779 -70.926  64.593  0.00  0.00     0.133 H 
ATOM     19  H   IDS d 402      27.024 -69.450  67.153  0.00  0.00     0.091 H 
ATOM     20  H   IDS d 402      29.803 -69.903  66.125  0.00  0.00     0.092 H 
ATOM     21  H   IDS d 402      29.120 -71.255  67.900  0.00  0.00     0.210 HD
ATOM     22  H   IDS d 402      28.495 -71.197  63.736  0.00  0.00     0.212 HD
ATOM     23  H   IDS d 402      28.090 -71.959  65.879  0.00  0.00     0.097 H 
ATOM     24  O4S SGN d 403      34.656 -70.742  64.721  0.00  0.00    -0.572 OA
ATOM     25  O5  SGN d 403      31.531 -68.345  67.090  0.00  0.00    -0.352 OA
ATOM     26  O3  SGN d 403      32.763 -66.822  68.943  0.00  0.00    -0.394 OA
ATOM     27  O3S SGN d 403      29.296 -66.576  71.151  0.00  0.00    -0.296 OA
ATOM     28  O1  SGN d 403      29.184 -68.089  66.882  0.00  0.00    -0.348 OA
ATOM     29  O6  SGN d 403      33.531 -68.703  65.635  0.00  0.00    -0.254 OA
ATOM     30  O5S SGN d 403      32.312 -70.894  65.560  0.00  0.00    -0.572 OA
ATOM     31  C2  SGN d 403      30.349 -67.000  68.708  0.00  0.00     0.079 C 
ATOM     32  C3  SGN d 403      31.602 -66.162  68.410  0.00  0.00     0.058 C 
ATOM     33  N   SGN d 403      29.125 -66.191  68.582  0.00  0.00    -0.210 NA
ATOM     34  O6S SGN d 403      32.805 -69.668  63.438  0.00  0.00    -0.572 OA
ATOM     35  C4  SGN d 403      31.777 -65.942  66.904  0.00  0.00    -0.013 C 
ATOM     36  C6  SGN d 403      32.877 -67.483  65.261  0.00  0.00     0.064 C 
ATOM     37  S2  SGN d 403      33.324 -69.999  64.838  0.00  0.00     0.251 S 
ATOM     38  O2S SGN d 403      27.087 -66.921  70.038  0.00  0.00    -0.296 OA
ATOM     39  C1  SGN d 403      30.291 -68.226  67.800  0.00  0.00     0.150 C 
ATOM     40  O1S SGN d 403      27.996 -64.612  70.316  0.00  0.00    -0.296 OA
ATOM     41  S1  SGN d 403      28.362 -66.074  70.046  0.00  0.00     0.156 S 
ATOM     42  C5  SGN d 403      31.649 -67.263  66.153  0.00  0.00     0.066 C 
ATOM     43  H   SGN d 403      32.648 -66.959  69.896  0.00  0.00     0.210 HD
ATOM     44  H   SGN d 403      29.529 -67.501  70.981  0.00  0.00     0.231 HD
ATOM     45  H   SGN d 403      30.411 -67.338  69.721  0.00  0.00     0.076 H 
ATOM     46  H   SGN d 403      31.484 -65.206  68.875  0.00  0.00     0.085 H 
ATOM     47  H   SGN d 403      28.497 -66.632  67.910  0.00  0.00     0.140 HD
ATOM     48  H   SGN d 403      32.744 -65.524  66.719  0.00  0.00     0.040 H 
ATOM     49  H   SGN d 403      31.014 -65.274  66.562  0.00  0.00     0.040 H 
ATOM     50  H   SGN d 403      32.568 -67.545  64.238  0.00  0.00     0.080 H 
ATOM     51  H   SGN d 403      33.555 -66.664  65.381  0.00  0.00     0.080 H 
ATOM     52  H   SGN d 403      27.315 -67.848  69.867  0.00  0.00     0.231 HD
ATOM     53  H   SGN d 403      30.144 -69.111  68.383  0.00  0.00     0.131 H 
ATOM     54  H   SGN d 403      28.802 -64.072  70.323  0.00  0.00     0.231 HD
ATOM     55  H   SGN d 403      30.773 -67.230  65.538  0.00  0.00     0.086 H 
ENDROOT
TORSDOF 16
ENDMDL
MODEL 52
REMARK VINA RESULT:      -3.4      2.878      6.625
REMARK  0 active torsions:
REMARK  status: ('A' for Active; 'I' for Inactive)
REMARK       I    between atoms: O2_1  and  C2_31 
REMARK       I    between atoms: O2_1  and  S_34 
REMARK       I    between atoms: C5_3  and  C6_33 
REMARK       I    between atoms: O3_5  and  C3_13 
REMARK       I    between atoms: O3S_6  and  S1_32 
REMARK       I    between atoms: O1_7  and  C4_23 
REMARK       I    between atoms: O1_7  and  C1_27 
REMARK       I    between atoms: O6_8  and  C6_21 
REMARK       I    between atoms: O6_8  and  S2_24 
REMARK       I    between atoms: C1_9  and  O1_30 
REMARK       I    between atoms: C2_12  and  N_14 
REMARK       I    between atoms: N_14  and  S1_32 
REMARK       I    between atoms: C3_16  and  O3_29 
REMARK       I    between atoms: C6_21  and  C5_35 
REMARK       I    between atoms: O2S_26  and  S1_32 
REMARK       I    between atoms: O1S_28  and  S1_32 
ROOT
ATOM      1  O2  IDS d 402      27.717 -70.365  72.706  0.00  0.00    -0.244 OA
ATOM      2  C5  IDS d 402      27.778 -66.962  70.314  0.00  0.00     0.152 C 
ATOM      3  C1  IDS d 402      27.592 -67.952  72.446  0.00  0.00     0.158 C 
ATOM      4  O5  IDS d 402      28.451 -67.204  71.562  0.00  0.00    -0.340 OA
ATOM      5  O61 IDS d 402      29.769 -66.227  69.183  0.00  0.00    -0.646 OA
ATOM      6  C3  IDS d 402      27.977 -69.454  70.474  0.00  0.00     0.094 C 
ATOM      7  O62 IDS d 402      27.974 -64.861  69.180  0.00  0.00    -0.646 OA
ATOM      8  O3S IDS d 402      28.972 -71.230  74.716  0.00  0.00    -0.572 OA
ATOM      9  O2S IDS d 402      26.788 -70.019  75.025  0.00  0.00    -0.572 OA
ATOM     10  C4  IDS d 402      27.635 -68.282  69.552  0.00  0.00     0.103 C 
ATOM     11  O1S IDS d 402      28.834 -68.766  74.284  0.00  0.00    -0.572 OA
ATOM     12  O3  IDS d 402      27.561 -70.682  69.861  0.00  0.00    -0.390 OA
ATOM     13  O1  IDS d 402      26.364 -67.226  72.682  0.00  0.00    -0.368 OA
ATOM     14  C2  IDS d 402      27.274 -69.308  71.825  0.00  0.00     0.134 C 
ATOM     15  C6  IDS d 402      28.575 -65.931  69.483  0.00  0.00     0.206 C 
ATOM     16  S   IDS d 402      28.077 -70.094  74.181  0.00  0.00     0.252 S 
ATOM     17  H   IDS d 402      26.802 -66.563  70.497  0.00  0.00     0.104 H 
ATOM     18  H   IDS d 402      28.096 -68.094  73.378  0.00  0.00     0.133 H 
ATOM     19  H   IDS d 402      29.035 -69.460  70.633  0.00  0.00     0.091 H 
ATOM     20  H   IDS d 402      26.624 -68.386  69.215  0.00  0.00     0.092 H 
ATOM     21  H   IDS d 402      26.601 -70.664  69.722  0.00  0.00     0.210 HD
ATOM     22  H   IDS d 402      25.900 -67.093  71.841  0.00  0.00     0.212 HD
ATOM     23  H   IDS d 402      26.216 -69.375  71.680  0.00  0.00     0.097 H 
ATOM     24  O4S SGN d 403      22.485 -66.875  66.605  0.00  0.00    -0.572 OA
ATOM     25  O5  SGN d 403      26.867 -68.254  66.711  0.00  0.00    -0.352 OA
ATOM     26  O3  SGN d 403      27.654 -68.984  64.237  0.00  0.00    -0.394 OA
ATOM     27  O3S SGN d 403      30.693 -71.279  65.801  0.00  0.00    -0.296 OA
ATOM     28  O1  SGN d 403      28.518 -68.283  68.412  0.00  0.00    -0.348 OA
ATOM     29  O6  SGN d 403      24.911 -66.874  65.997  0.00  0.00    -0.254 OA
ATOM     30  O5S SGN d 403      24.133 -68.006  68.095  0.00  0.00    -0.572 OA
ATOM     31  C2  SGN d 403      29.034 -69.200  66.228  0.00  0.00     0.079 C 
ATOM     32  C3  SGN d 403      28.729 -68.372  64.970  0.00  0.00     0.058 C 
ATOM     33  N   SGN d 403      30.369 -68.883  66.764  0.00  0.00    -0.210 NA
ATOM     34  O6S SGN d 403      24.095 -65.511  67.938  0.00  0.00    -0.572 OA
ATOM     35  C4  SGN d 403      28.356 -66.932  65.332  0.00  0.00    -0.013 C 
ATOM     36  C6  SGN d 403      26.097 -66.067  65.991  0.00  0.00     0.064 C 
ATOM     37  S2  SGN d 403      23.909 -66.815  67.158  0.00  0.00     0.251 S 
ATOM     38  O2S SGN d 403      31.579 -70.781  68.083  0.00  0.00    -0.296 OA
ATOM     39  C1  SGN d 403      27.954 -68.992  67.286  0.00  0.00     0.150 C 
ATOM     40  O1S SGN d 403      32.698 -69.813  66.071  0.00  0.00    -0.296 OA
ATOM     41  S1  SGN d 403      31.351 -70.211  66.679  0.00  0.00     0.156 S 
ATOM     42  C5  SGN d 403      27.297 -66.914  66.430  0.00  0.00     0.066 C 
ATOM     43  H   SGN d 403      27.895 -69.895  64.010  0.00  0.00     0.210 HD
ATOM     44  H   SGN d 403      29.840 -71.533  66.186  0.00  0.00     0.231 HD
ATOM     45  H   SGN d 403      29.034 -70.234  65.950  0.00  0.00     0.076 H 
ATOM     46  H   SGN d 403      29.610 -68.345  64.364  0.00  0.00     0.085 H 
ATOM     47  H   SGN d 403      30.280 -68.592  67.738  0.00  0.00     0.140 HD
ATOM     48  H   SGN d 403      27.971 -66.439  64.465  0.00  0.00     0.040 H 
ATOM     49  H   SGN d 403      29.230 -66.426  65.686  0.00  0.00     0.040 H 
ATOM     50  H   SGN d 403      25.972 -65.247  66.668  0.00  0.00     0.080 H 
ATOM     51  H   SGN d 403      26.268 -65.692  65.004  0.00  0.00     0.080 H 
ATOM     52  H   SGN d 403      30.728 -71.034  68.471  0.00  0.00     0.231 HD
ATOM     53  H   SGN d 403      27.584 -69.936  67.629  0.00  0.00     0.131 H 
ATOM     54  H   SGN d 403      32.557 -69.452  65.181  0.00  0.00     0.231 HD
ATOM     55  H   SGN d 403      27.721 -66.485  67.314  0.00  0.00     0.086 H 
ENDROOT
TORSDOF 16
ENDMDL
MODEL 53
REMARK VINA RESULT:      -3.4      3.603      6.786
REMARK  0 active torsions:
REMARK  status: ('A' for Active; 'I' for Inactive)
REMARK       I    between atoms: O2_1  and  C2_31 
REMARK       I    between atoms: O2_1  and  S_34 
REMARK       I    between atoms: C5_3  and  C6_33 
REMARK       I    between atoms: O3_5  and  C3_13 
REMARK       I    between atoms: O3S_6  and  S1_32 
REMARK       I    between atoms: O1_7  and  C4_23 
REMARK       I    between atoms: O1_7  and  C1_27 
REMARK       I    between atoms: O6_8  and  C6_21 
REMARK       I    between atoms: O6_8  and  S2_24 
REMARK       I    between atoms: C1_9  and  O1_30 
REMARK       I    between atoms: C2_12  and  N_14 
REMARK       I    between atoms: N_14  and  S1_32 
REMARK       I    between atoms: C3_16  and  O3_29 
REMARK       I    between atoms: C6_21  and  C5_35 
REMARK       I    between atoms: O2S_26  and  S1_32 
REMARK       I    between atoms: O1S_28  and  S1_32 
ROOT
ATOM      1  O2  IDS d 402      22.969 -69.191  65.208  0.00  0.00    -0.244 OA
ATOM      2  C5  IDS d 402      23.489 -69.021  69.333  0.00  0.00     0.152 C 
ATOM      3  C1  IDS d 402      22.298 -69.816  67.459  0.00  0.00     0.158 C 
ATOM      4  O5  IDS d 402      23.235 -70.166  68.497  0.00  0.00    -0.340 OA
ATOM      5  O61 IDS d 402      25.382 -70.023  70.426  0.00  0.00    -0.646 OA
ATOM      6  C3  IDS d 402      24.301 -68.360  67.057  0.00  0.00     0.094 C 
ATOM      7  O62 IDS d 402      23.701 -69.237  71.709  0.00  0.00    -0.646 OA
ATOM      8  O3S IDS d 402      22.827 -70.982  63.438  0.00  0.00    -0.572 OA
ATOM      9  O2S IDS d 402      20.721 -70.051  64.455  0.00  0.00    -0.572 OA
ATOM     10  C4  IDS d 402      24.288 -67.984  68.540  0.00  0.00     0.103 C 
ATOM     11  O1S IDS d 402      22.241 -71.514  65.816  0.00  0.00    -0.572 OA
ATOM     12  O3  IDS d 402      24.784 -67.251  66.286  0.00  0.00    -0.390 OA
ATOM     13  O1  IDS d 402      21.060 -69.346  68.040  0.00  0.00    -0.368 OA
ATOM     14  C2  IDS d 402      22.895 -68.726  66.575  0.00  0.00     0.134 C 
ATOM     15  C6  IDS d 402      24.260 -69.461  70.598  0.00  0.00     0.206 C 
ATOM     16  S   IDS d 402      22.190 -70.433  64.731  0.00  0.00     0.252 S 
ATOM     17  H   IDS d 402      22.563 -68.581  69.639  0.00  0.00     0.104 H 
ATOM     18  H   IDS d 402      22.097 -70.685  66.869  0.00  0.00     0.133 H 
ATOM     19  H   IDS d 402      24.942 -69.207  66.929  0.00  0.00     0.091 H 
ATOM     20  H   IDS d 402      23.828 -67.024  68.653  0.00  0.00     0.092 H 
ATOM     21  H   IDS d 402      24.195 -66.490  66.411  0.00  0.00     0.210 HD
ATOM     22  H   IDS d 402      21.233 -68.558  68.577  0.00  0.00     0.212 HD
ATOM     23  H   IDS d 402      22.267 -67.862  66.632  0.00  0.00     0.097 H 
ATOM     24  O4S SGN d 403      22.133 -63.051  71.404  0.00  0.00    -0.572 OA
ATOM     25  O5  SGN d 403      25.565 -65.736  69.946  0.00  0.00    -0.352 OA
ATOM     26  O3  SGN d 403      27.931 -64.543  70.443  0.00  0.00    -0.394 OA
ATOM     27  O3S SGN d 403      29.771 -66.819  67.547  0.00  0.00    -0.296 OA
ATOM     28  O1  SGN d 403      25.639 -67.926  69.041  0.00  0.00    -0.348 OA
ATOM     29  O6  SGN d 403      24.224 -64.412  71.586  0.00  0.00    -0.254 OA
ATOM     30  O5S SGN d 403      22.683 -64.714  69.629  0.00  0.00    -0.572 OA
ATOM     31  C2  SGN d 403      27.688 -66.646  69.247  0.00  0.00     0.079 C 
ATOM     32  C3  SGN d 403      28.025 -65.971  70.585  0.00  0.00     0.058 C 
ATOM     33  N   SGN d 403      28.181 -68.034  69.212  0.00  0.00    -0.210 NA
ATOM     34  O6S SGN d 403      21.982 -65.492  71.899  0.00  0.00    -0.572 OA
ATOM     35  C4  SGN d 403      27.082 -66.443  71.696  0.00  0.00    -0.013 C 
ATOM     36  C6  SGN d 403      24.807 -65.544  72.245  0.00  0.00     0.064 C 
ATOM     37  S2  SGN d 403      22.757 -64.420  71.131  0.00  0.00     0.251 S 
ATOM     38  O2S SGN d 403      28.773 -69.005  66.864  0.00  0.00    -0.296 OA
ATOM     39  C1  SGN d 403      26.187 -66.590  68.976  0.00  0.00     0.150 C 
ATOM     40  O1S SGN d 403      30.548 -68.939  68.619  0.00  0.00    -0.296 OA
ATOM     41  S1  SGN d 403      29.337 -68.203  68.040  0.00  0.00     0.156 S 
ATOM     42  C5  SGN d 403      25.630 -66.357  71.239  0.00  0.00     0.066 C 
ATOM     43  H   SGN d 403      28.529 -64.248  69.739  0.00  0.00     0.210 HD
ATOM     44  H   SGN d 403      29.005 -66.352  67.180  0.00  0.00     0.231 HD
ATOM     45  H   SGN d 403      28.187 -66.106  68.470  0.00  0.00     0.076 H 
ATOM     46  H   SGN d 403      29.023 -66.243  70.857  0.00  0.00     0.085 H 
ATOM     47  H   SGN d 403      27.403 -68.662  69.010  0.00  0.00     0.140 HD
ATOM     48  H   SGN d 403      27.217 -65.824  72.558  0.00  0.00     0.040 H 
ATOM     49  H   SGN d 403      27.311 -67.461  71.934  0.00  0.00     0.040 H 
ATOM     50  H   SGN d 403      24.031 -66.159  72.651  0.00  0.00     0.080 H 
ATOM     51  H   SGN d 403      25.445 -65.206  73.035  0.00  0.00     0.080 H 
ATOM     52  H   SGN d 403      28.005 -68.541  66.494  0.00  0.00     0.231 HD
ATOM     53  H   SGN d 403      26.002 -66.192  68.000  0.00  0.00     0.131 H 
ATOM     54  H   SGN d 403      30.908 -68.433  69.364  0.00  0.00     0.231 HD
ATOM     55  H   SGN d 403      25.226 -67.347  71.177  0.00  0.00     0.086 H 
ENDROOT
TORSDOF 16
ENDMDL
MODEL 54
REMARK VINA RESULT:      -3.4      3.224      4.271
REMARK  0 active torsions:
REMARK  status: ('A' for Active; 'I' for Inactive)
REMARK       I    between atoms: O2_1  and  C2_31 
REMARK       I    between atoms: O2_1  and  S_34 
REMARK       I    between atoms: C5_3  and  C6_33 
REMARK       I    between atoms: O3_5  and  C3_13 
REMARK       I    between atoms: O3S_6  and  S1_32 
REMARK       I    between atoms: O1_7  and  C4_23 
REMARK       I    between atoms: O1_7  and  C1_27 
REMARK       I    between atoms: O6_8  and  C6_21 
REMARK       I    between atoms: O6_8  and  S2_24 
REMARK       I    between atoms: C1_9  and  O1_30 
REMARK       I    between atoms: C2_12  and  N_14 
REMARK       I    between atoms: N_14  and  S1_32 
REMARK       I    between atoms: C3_16  and  O3_29 
REMARK       I    between atoms: C6_21  and  C5_35 
REMARK       I    between atoms: O2S_26  and  S1_32 
REMARK       I    between atoms: O1S_28  and  S1_32 
ROOT
ATOM      1  O2  IDS d 402      30.961 -67.766  65.965  0.00  0.00    -0.244 OA
ATOM      2  C5  IDS d 402      27.159 -69.422  65.627  0.00  0.00     0.152 C 
ATOM      3  C1  IDS d 402      29.152 -68.670  64.616  0.00  0.00     0.158 C 
ATOM      4  O5  IDS d 402      28.385 -69.830  64.994  0.00  0.00    -0.340 OA
ATOM      5  O61 IDS d 402      26.645 -71.624  66.445  0.00  0.00    -0.646 OA
ATOM      6  C3  IDS d 402      28.980 -68.561  67.117  0.00  0.00     0.094 C 
ATOM      7  O62 IDS d 402      25.096 -70.560  65.197  0.00  0.00    -0.646 OA
ATOM      8  O3S IDS d 402      33.310 -68.382  65.281  0.00  0.00    -0.572 OA
ATOM      9  O2S IDS d 402      31.928 -66.875  63.812  0.00  0.00    -0.572 OA
ATOM     10  C4  IDS d 402      27.476 -68.810  66.994  0.00  0.00     0.103 C 
ATOM     11  O1S IDS d 402      31.349 -69.309  64.025  0.00  0.00    -0.572 OA
ATOM     12  O3  IDS d 402      29.236 -67.727  68.254  0.00  0.00    -0.390 OA
ATOM     13  O1  IDS d 402      28.388 -67.836  63.716  0.00  0.00    -0.368 OA
ATOM     14  C2  IDS d 402      29.523 -67.872  65.862  0.00  0.00     0.134 C 
ATOM     15  C6  IDS d 402      26.218 -70.638  65.774  0.00  0.00     0.206 C 
ATOM     16  S   IDS d 402      31.885 -68.083  64.772  0.00  0.00     0.252 S 
ATOM     17  H   IDS d 402      26.666 -68.686  65.027  0.00  0.00     0.104 H 
ATOM     18  H   IDS d 402      30.043 -68.992  64.119  0.00  0.00     0.133 H 
ATOM     19  H   IDS d 402      29.470 -69.505  67.232  0.00  0.00     0.091 H 
ATOM     20  H   IDS d 402      26.958 -67.877  67.091  0.00  0.00     0.092 H 
ATOM     21  H   IDS d 402      28.787 -66.875  68.138  0.00  0.00     0.210 HD
ATOM     22  H   IDS d 402      27.578 -67.539  64.159  0.00  0.00     0.212 HD
ATOM     23  H   IDS d 402      29.091 -66.897  65.782  0.00  0.00     0.097 H 
ATOM     24  O4S SGN d 403      22.750 -64.961  67.188  0.00  0.00    -0.572 OA
ATOM     25  O5  SGN d 403      25.307 -68.358  68.931  0.00  0.00    -0.352 OA
ATOM     26  O3  SGN d 403      24.439 -68.973  71.409  0.00  0.00    -0.394 OA
ATOM     27  O3S SGN d 403      28.079 -70.655  72.346  0.00  0.00    -0.296 OA
ATOM     28  O1  SGN d 403      27.042 -69.704  68.039  0.00  0.00    -0.348 OA
ATOM     29  O6  SGN d 403      23.221 -67.212  68.171  0.00  0.00    -0.254 OA
ATOM     30  O5S SGN d 403      25.073 -65.867  67.145  0.00  0.00    -0.572 OA
ATOM     31  C2  SGN d 403      26.392 -69.973  70.359  0.00  0.00     0.079 C 
ATOM     32  C3  SGN d 403      24.906 -70.142  70.712  0.00  0.00     0.058 C 
ATOM     33  N   SGN d 403      27.017 -71.271  70.050  0.00  0.00    -0.210 NA
ATOM     34  O6S SGN d 403      23.309 -66.875  65.687  0.00  0.00    -0.572 OA
ATOM     35  C4  SGN d 403      24.060 -70.368  69.455  0.00  0.00    -0.013 C 
ATOM     36  C6  SGN d 403      23.111 -68.621  67.927  0.00  0.00     0.064 C 
ATOM     37  S2  SGN d 403      23.588 -66.232  67.048  0.00  0.00     0.251 S 
ATOM     38  O2S SGN d 403      29.574 -71.477  70.522  0.00  0.00    -0.296 OA
ATOM     39  C1  SGN d 403      26.564 -68.992  69.202  0.00  0.00     0.150 C 
ATOM     40  O1S SGN d 403      28.011 -73.057  71.661  0.00  0.00    -0.296 OA
ATOM     41  S1  SGN d 403      28.191 -71.620  71.163  0.00  0.00     0.156 S 
ATOM     42  C5  SGN d 403      24.392 -69.324  68.393  0.00  0.00     0.066 C 
ATOM     43  H   SGN d 403      24.977 -68.835  72.204  0.00  0.00     0.210 HD
ATOM     44  H   SGN d 403      28.193 -69.744  72.032  0.00  0.00     0.231 HD
ATOM     45  H   SGN d 403      26.890 -69.569  71.215  0.00  0.00     0.076 H 
ATOM     46  H   SGN d 403      24.806 -71.002  71.340  0.00  0.00     0.085 H 
ATOM     47  H   SGN d 403      27.435 -71.230  69.121  0.00  0.00     0.140 HD
ATOM     48  H   SGN d 403      23.024 -70.293  69.710  0.00  0.00     0.040 H 
ATOM     49  H   SGN d 403      24.275 -71.340  69.064  0.00  0.00     0.040 H 
ATOM     50  H   SGN d 403      22.972 -68.791  66.879  0.00  0.00     0.080 H 
ATOM     51  H   SGN d 403      22.275 -69.012  68.466  0.00  0.00     0.080 H 
ATOM     52  H   SGN d 403      29.692 -70.568  70.205  0.00  0.00     0.231 HD
ATOM     53  H   SGN d 403      27.280 -68.239  69.459  0.00  0.00     0.131 H 
ATOM     54  H   SGN d 403      27.136 -73.151  72.068  0.00  0.00     0.231 HD
ATOM     55  H   SGN d 403      24.845 -69.813  67.556  0.00  0.00     0.086 H 
ENDROOT
TORSDOF 16
ENDMDL
MODEL 55
REMARK VINA RESULT:      -3.4      4.059      6.952
REMARK  0 active torsions:
REMARK  status: ('A' for Active; 'I' for Inactive)
REMARK       I    between atoms: O2_1  and  C2_31 
REMARK       I    between atoms: O2_1  and  S_34 
REMARK       I    between atoms: C5_3  and  C6_33 
REMARK       I    between atoms: O3_5  and  C3_13 
REMARK       I    between atoms: O3S_6  and  S1_32 
REMARK       I    between atoms: O1_7  and  C4_23 
REMARK       I    between atoms: O1_7  and  C1_27 
REMARK       I    between atoms: O6_8  and  C6_21 
REMARK       I    between atoms: O6_8  and  S2_24 
REMARK       I    between atoms: C1_9  and  O1_30 
REMARK       I    between atoms: C2_12  and  N_14 
REMARK       I    between atoms: N_14  and  S1_32 
REMARK       I    between atoms: C3_16  and  O3_29 
REMARK       I    between atoms: C6_21  and  C5_35 
REMARK       I    between atoms: O2S_26  and  S1_32 
REMARK       I    between atoms: O1S_28  and  S1_32 
ROOT
ATOM      1  O2  IDS d 402      28.786 -66.019  70.496  0.00  0.00    -0.244 OA
ATOM      2  C5  IDS d 402      26.073 -69.132  69.984  0.00  0.00     0.152 C 
ATOM      3  C1  IDS d 402      28.083 -68.310  70.903  0.00  0.00     0.158 C 
ATOM      4  O5  IDS d 402      26.720 -68.682  71.189  0.00  0.00    -0.340 OA
ATOM      5  O61 IDS d 402      23.868 -69.078  70.943  0.00  0.00    -0.646 OA
ATOM      6  C3  IDS d 402      26.673 -66.739  69.547  0.00  0.00     0.094 C 
ATOM      7  O62 IDS d 402      24.575 -71.001  69.998  0.00  0.00    -0.646 OA
ATOM      8  O3S IDS d 402      29.842 -64.791  72.430  0.00  0.00    -0.572 OA
ATOM      9  O2S IDS d 402      31.054 -66.715  71.351  0.00  0.00    -0.572 OA
ATOM     10  C4  IDS d 402      25.871 -67.940  69.044  0.00  0.00     0.103 C 
ATOM     11  O1S IDS d 402      29.000 -67.131  72.734  0.00  0.00    -0.572 OA
ATOM     12  O3  IDS d 402      26.724 -65.735  68.525  0.00  0.00    -0.390 OA
ATOM     13  O1  IDS d 402      28.803 -69.434  70.348  0.00  0.00    -0.368 OA
ATOM     14  C2  IDS d 402      28.101 -67.151  69.912  0.00  0.00     0.134 C 
ATOM     15  C6  IDS d 402      24.720 -69.792  70.335  0.00  0.00     0.206 C 
ATOM     16  S   IDS d 402      29.669 -66.165  71.751  0.00  0.00     0.252 S 
ATOM     17  H   IDS d 402      26.684 -69.859  69.492  0.00  0.00     0.104 H 
ATOM     18  H   IDS d 402      28.557 -68.010  71.814  0.00  0.00     0.133 H 
ATOM     19  H   IDS d 402      26.190 -66.353  70.421  0.00  0.00     0.091 H 
ATOM     20  H   IDS d 402      26.214 -68.203  68.064  0.00  0.00     0.092 H 
ATOM     21  H   IDS d 402      27.163 -66.096  67.739  0.00  0.00     0.210 HD
ATOM     22  H   IDS d 402      28.380 -69.713  69.521  0.00  0.00     0.212 HD
ATOM     23  H   IDS d 402      28.612 -67.468  69.028  0.00  0.00     0.097 H 
ATOM     24  O4S SGN d 403      26.195 -71.067  63.819  0.00  0.00    -0.572 OA
ATOM     25  O5  SGN d 403      24.082 -68.199  66.722  0.00  0.00    -0.352 OA
ATOM     26  O3  SGN d 403      21.866 -67.195  65.560  0.00  0.00    -0.394 OA
ATOM     27  O3S SGN d 403      21.884 -63.981  68.134  0.00  0.00    -0.296 OA
ATOM     28  O1  SGN d 403      24.470 -67.602  68.983  0.00  0.00    -0.348 OA
ATOM     29  O6  SGN d 403      24.322 -70.181  65.221  0.00  0.00    -0.254 OA
ATOM     30  O5S SGN d 403      26.680 -69.441  65.645  0.00  0.00    -0.572 OA
ATOM     31  C2  SGN d 403      22.681 -66.526  67.751  0.00  0.00     0.079 C 
ATOM     32  C3  SGN d 403      21.675 -67.388  66.972  0.00  0.00     0.058 C 
ATOM     33  N   SGN d 403      22.258 -66.347  69.151  0.00  0.00    -0.210 NA
ATOM     34  O6S SGN d 403      25.989 -71.777  66.202  0.00  0.00    -0.572 OA
ATOM     35  C4  SGN d 403      21.833 -68.871  67.318  0.00  0.00    -0.013 C 
ATOM     36  C6  SGN d 403      23.444 -70.505  66.308  0.00  0.00     0.064 C 
ATOM     37  S2  SGN d 403      25.794 -70.617  65.224  0.00  0.00     0.251 S 
ATOM     38  O2S SGN d 403      23.042 -64.161  70.339  0.00  0.00    -0.296 OA
ATOM     39  C1  SGN d 403      24.082 -67.127  67.674  0.00  0.00     0.150 C 
ATOM     40  O1S SGN d 403      20.594 -64.627  70.174  0.00  0.00    -0.296 OA
ATOM     41  S1  SGN d 403      21.940 -64.752  69.455  0.00  0.00     0.156 S 
ATOM     42  C5  SGN d 403      23.298 -69.288  67.229  0.00  0.00     0.066 C 
ATOM     43  H   SGN d 403      21.765 -66.254  65.346  0.00  0.00     0.210 HD
ATOM     44  H   SGN d 403      22.736 -64.059  67.677  0.00  0.00     0.231 HD
ATOM     45  H   SGN d 403      22.708 -65.558  67.296  0.00  0.00     0.076 H 
ATOM     46  H   SGN d 403      20.688 -67.084  67.249  0.00  0.00     0.085 H 
ATOM     47  H   SGN d 403      23.003 -66.666  69.771  0.00  0.00     0.140 HD
ATOM     48  H   SGN d 403      21.259 -69.456  66.631  0.00  0.00     0.040 H 
ATOM     49  H   SGN d 403      21.488 -69.032  68.318  0.00  0.00     0.040 H 
ATOM     50  H   SGN d 403      23.852 -71.325  66.862  0.00  0.00     0.080 H 
ATOM     51  H   SGN d 403      22.485 -70.776  65.922  0.00  0.00     0.080 H 
ATOM     52  H   SGN d 403      23.896 -64.239  69.887  0.00  0.00     0.231 HD
ATOM     53  H   SGN d 403      24.786 -66.386  67.358  0.00  0.00     0.131 H 
ATOM     54  H   SGN d 403      19.894 -65.000  69.616  0.00  0.00     0.231 HD
ATOM     55  H   SGN d 403      23.644 -69.549  68.208  0.00  0.00     0.086 H 
ENDROOT
TORSDOF 16
ENDMDL
MODEL 56
REMARK VINA RESULT:      -3.4      2.559      7.107
REMARK  0 active torsions:
REMARK  status: ('A' for Active; 'I' for Inactive)
REMARK       I    between atoms: O2_1  and  C2_31 
REMARK       I    between atoms: O2_1  and  S_34 
REMARK       I    between atoms: C5_3  and  C6_33 
REMARK       I    between atoms: O3_5  and  C3_13 
REMARK       I    between atoms: O3S_6  and  S1_32 
REMARK       I    between atoms: O1_7  and  C4_23 
REMARK       I    between atoms: O1_7  and  C1_27 
REMARK       I    between atoms: O6_8  and  C6_21 
REMARK       I    between atoms: O6_8  and  S2_24 
REMARK       I    between atoms: C1_9  and  O1_30 
REMARK       I    between atoms: C2_12  and  N_14 
REMARK       I    between atoms: N_14  and  S1_32 
REMARK       I    between atoms: C3_16  and  O3_29 
REMARK       I    between atoms: C6_21  and  C5_35 
REMARK       I    between atoms: O2S_26  and  S1_32 
REMARK       I    between atoms: O1S_28  and  S1_32 
ROOT
ATOM      1  O2  IDS d 402      27.131 -66.228  67.341  0.00  0.00    -0.244 OA
ATOM      2  C5  IDS d 402      28.620 -69.909  68.584  0.00  0.00     0.152 C 
ATOM      3  C1  IDS d 402      26.792 -68.459  68.245  0.00  0.00     0.158 C 
ATOM      4  O5  IDS d 402      27.479 -69.627  67.753  0.00  0.00    -0.340 OA
ATOM      5  O61 IDS d 402      29.568 -71.493  67.042  0.00  0.00    -0.646 OA
ATOM      6  C3  IDS d 402      29.076 -67.653  67.594  0.00  0.00     0.094 C 
ATOM      7  O62 IDS d 402      29.209 -72.156  69.168  0.00  0.00    -0.646 OA
ATOM      8  O3S IDS d 402      25.412 -65.394  65.693  0.00  0.00    -0.572 OA
ATOM      9  O2S IDS d 402      24.783 -65.717  68.109  0.00  0.00    -0.572 OA
ATOM     10  C4  IDS d 402      29.679 -68.823  68.374  0.00  0.00     0.103 C 
ATOM     11  O1S IDS d 402      25.227 -67.706  66.642  0.00  0.00    -0.572 OA
ATOM     12  O3  IDS d 402      29.964 -66.529  67.658  0.00  0.00    -0.390 OA
ATOM     13  O1  IDS d 402      26.366 -68.667  69.611  0.00  0.00    -0.368 OA
ATOM     14  C2  IDS d 402      27.720 -67.251  68.176  0.00  0.00     0.134 C 
ATOM     15  C6  IDS d 402      29.186 -71.304  68.235  0.00  0.00     0.206 C 
ATOM     16  S   IDS d 402      25.640 -66.262  66.947  0.00  0.00     0.252 S 
ATOM     17  H   IDS d 402      28.329 -69.912  69.614  0.00  0.00     0.104 H 
ATOM     18  H   IDS d 402      25.930 -68.284  67.636  0.00  0.00     0.133 H 
ATOM     19  H   IDS d 402      28.940 -67.960  66.578  0.00  0.00     0.091 H 
ATOM     20  H   IDS d 402      30.015 -68.471  69.328  0.00  0.00     0.092 H 
ATOM     21  H   IDS d 402      30.080 -66.261  68.583  0.00  0.00     0.210 HD
ATOM     22  H   IDS d 402      27.142 -68.827  70.170  0.00  0.00     0.212 HD
ATOM     23  H   IDS d 402      27.860 -66.874  69.167  0.00  0.00     0.097 H 
ATOM     24  O4S SGN d 403      32.112 -69.084  73.959  0.00  0.00    -0.572 OA
ATOM     25  O5  SGN d 403      32.414 -69.237  69.376  0.00  0.00    -0.352 OA
ATOM     26  O3  SGN d 403      35.004 -69.385  68.637  0.00  0.00    -0.394 OA
ATOM     27  O3S SGN d 403      34.095 -67.927  64.895  0.00  0.00    -0.296 OA
ATOM     28  O1  SGN d 403      30.798 -69.370  67.648  0.00  0.00    -0.348 OA
ATOM     29  O6  SGN d 403      32.740 -70.021  71.726  0.00  0.00    -0.254 OA
ATOM     30  O5S SGN d 403      30.970 -68.253  71.905  0.00  0.00    -0.572 OA
ATOM     31  C2  SGN d 403      33.148 -69.192  67.077  0.00  0.00     0.079 C 
ATOM     32  C3  SGN d 403      34.160 -70.135  67.745  0.00  0.00     0.058 C 
ATOM     33  N   SGN d 403      32.571 -69.800  65.867  0.00  0.00    -0.210 NA
ATOM     34  O6S SGN d 403      30.513 -70.564  72.743  0.00  0.00    -0.572 OA
ATOM     35  C4  SGN d 403      33.452 -71.251  68.518  0.00  0.00    -0.013 C 
ATOM     36  C6  SGN d 403      32.567 -71.152  70.862  0.00  0.00     0.064 C 
ATOM     37  S2  SGN d 403      31.584 -69.482  72.581  0.00  0.00     0.251 S 
ATOM     38  O2S SGN d 403      31.775 -68.161  64.000  0.00  0.00    -0.296 OA
ATOM     39  C1  SGN d 403      32.054 -68.788  68.063  0.00  0.00     0.150 C 
ATOM     40  O1S SGN d 403      33.506 -69.870  63.439  0.00  0.00    -0.296 OA
ATOM     41  S1  SGN d 403      32.993 -68.924  64.528  0.00  0.00     0.156 S 
ATOM     42  C5  SGN d 403      32.366 -70.671  69.420  0.00  0.00     0.066 C 
ATOM     43  H   SGN d 403      35.450 -68.680  68.144  0.00  0.00     0.210 HD
ATOM     44  H   SGN d 403      33.771 -67.327  65.585  0.00  0.00     0.231 HD
ATOM     45  H   SGN d 403      33.669 -68.306  66.778  0.00  0.00     0.076 H 
ATOM     46  H   SGN d 403      34.755 -70.585  66.979  0.00  0.00     0.085 H 
ATOM     47  H   SGN d 403      31.554 -69.818  65.951  0.00  0.00     0.140 HD
ATOM     48  H   SGN d 403      34.167 -71.772  69.119  0.00  0.00     0.040 H 
ATOM     49  H   SGN d 403      32.999 -71.922  67.819  0.00  0.00     0.040 H 
ATOM     50  H   SGN d 403      31.708 -71.710  71.174  0.00  0.00     0.080 H 
ATOM     51  H   SGN d 403      33.435 -71.774  70.912  0.00  0.00     0.080 H 
ATOM     52  H   SGN d 403      31.447 -67.560  64.687  0.00  0.00     0.231 HD
ATOM     53  H   SGN d 403      31.947 -67.724  68.082  0.00  0.00     0.131 H 
ATOM     54  H   SGN d 403      34.279 -70.355  63.770  0.00  0.00     0.231 HD
ATOM     55  H   SGN d 403      31.411 -71.004  69.071  0.00  0.00     0.086 H 
ENDROOT
TORSDOF 16
ENDMDL
MODEL 57
REMARK VINA RESULT:      -3.4      2.932      3.935
REMARK  0 active torsions:
REMARK  status: ('A' for Active; 'I' for Inactive)
REMARK       I    between atoms: O2_1  and  C2_31 
REMARK       I    between atoms: O2_1  and  S_34 
REMARK       I    between atoms: C5_3  and  C6_33 
REMARK       I    between atoms: O3_5  and  C3_13 
REMARK       I    between atoms: O3S_6  and  S1_32 
REMARK       I    between atoms: O1_7  and  C4_23 
REMARK       I    between atoms: O1_7  and  C1_27 
REMARK       I    between atoms: O6_8  and  C6_21 
REMARK       I    between atoms: O6_8  and  S2_24 
REMARK       I    between atoms: C1_9  and  O1_30 
REMARK       I    between atoms: C2_12  and  N_14 
REMARK       I    between atoms: N_14  and  S1_32 
REMARK       I    between atoms: C3_16  and  O3_29 
REMARK       I    between atoms: C6_21  and  C5_35 
REMARK       I    between atoms: O2S_26  and  S1_32 
REMARK       I    between atoms: O1S_28  and  S1_32 
ROOT
ATOM      1  O2  IDS d 402      32.317 -67.167  66.170  0.00  0.00    -0.244 OA
ATOM      2  C5  IDS d 402      28.677 -69.095  65.581  0.00  0.00     0.152 C 
ATOM      3  C1  IDS d 402      30.574 -68.008  64.698  0.00  0.00     0.158 C 
ATOM      4  O5  IDS d 402      29.924 -69.280  64.886  0.00  0.00    -0.340 OA
ATOM      5  O61 IDS d 402      28.382 -71.439  66.033  0.00  0.00    -0.646 OA
ATOM      6  C3  IDS d 402      30.438 -68.318  67.184  0.00  0.00     0.094 C 
ATOM      7  O62 IDS d 402      26.719 -70.337  64.979  0.00  0.00    -0.646 OA
ATOM      8  O3S IDS d 402      34.699 -67.444  65.389  0.00  0.00    -0.572 OA
ATOM      9  O2S IDS d 402      33.159 -65.856  64.187  0.00  0.00    -0.572 OA
ATOM     10  C4  IDS d 402      28.961 -68.684  67.028  0.00  0.00     0.103 C 
ATOM     11  O1S IDS d 402      32.809 -68.336  64.005  0.00  0.00    -0.572 OA
ATOM     12  O3  IDS d 402      30.637 -67.657  68.441  0.00  0.00    -0.390 OA
ATOM     13  O1  IDS d 402      29.720 -67.115  63.947  0.00  0.00    -0.368 OA
ATOM     14  C2  IDS d 402      30.893 -67.390  66.056  0.00  0.00     0.134 C 
ATOM     15  C6  IDS d 402      27.854 -70.402  65.531  0.00  0.00     0.206 C 
ATOM     16  S   IDS d 402      33.244 -67.201  64.938  0.00  0.00     0.252 S 
ATOM     17  H   IDS d 402      28.108 -68.321  65.108  0.00  0.00     0.104 H 
ATOM     18  H   IDS d 402      31.482 -68.161  64.153  0.00  0.00     0.133 H 
ATOM     19  H   IDS d 402      31.015 -69.219  67.144  0.00  0.00     0.091 H 
ATOM     20  H   IDS d 402      28.362 -67.831  67.275  0.00  0.00     0.092 H 
ATOM     21  H   IDS d 402      30.110 -66.844  68.465  0.00  0.00     0.210 HD
ATOM     22  H   IDS d 402      28.895 -66.971  64.435  0.00  0.00     0.212 HD
ATOM     23  H   IDS d 402      30.372 -66.458  66.135  0.00  0.00     0.097 H 
ATOM     24  O4S SGN d 403      23.906 -65.374  67.854  0.00  0.00    -0.572 OA
ATOM     25  O5  SGN d 403      26.795 -68.753  69.018  0.00  0.00    -0.352 OA
ATOM     26  O3  SGN d 403      26.032 -69.837  71.367  0.00  0.00    -0.394 OA
ATOM     27  O3S SGN d 403      29.827 -71.299  72.009  0.00  0.00    -0.296 OA
ATOM     28  O1  SGN d 403      28.630 -69.771  67.915  0.00  0.00    -0.348 OA
ATOM     29  O6  SGN d 403      24.600 -67.700  68.459  0.00  0.00    -0.254 OA
ATOM     30  O5S SGN d 403      26.301 -66.041  67.659  0.00  0.00    -0.572 OA
ATOM     31  C2  SGN d 403      28.049 -70.468  70.164  0.00  0.00     0.079 C 
ATOM     32  C3  SGN d 403      26.591 -70.829  70.489  0.00  0.00     0.058 C 
ATOM     33  N   SGN d 403      28.785 -71.635  69.647  0.00  0.00    -0.210 NA
ATOM     34  O6S SGN d 403      24.612 -66.962  66.063  0.00  0.00    -0.572 OA
ATOM     35  C4  SGN d 403      25.748 -70.928  69.215  0.00  0.00    -0.013 C 
ATOM     36  C6  SGN d 403      24.615 -69.056  67.991  0.00  0.00     0.064 C 
ATOM     37  S2  SGN d 403      24.855 -66.522  67.509  0.00  0.00     0.251 S 
ATOM     38  O2S SGN d 403      31.358 -71.675  70.072  0.00  0.00    -0.296 OA
ATOM     39  C1  SGN d 403      28.110 -69.303  69.180  0.00  0.00     0.150 C 
ATOM     40  O1S SGN d 403      29.968 -73.556  70.945  0.00  0.00    -0.296 OA
ATOM     41  S1  SGN d 403      30.006 -72.048  70.685  0.00  0.00     0.156 S 
ATOM     42  C5  SGN d 403      25.963 -69.702  68.334  0.00  0.00     0.066 C 
ATOM     43  H   SGN d 403      26.569 -69.778  72.172  0.00  0.00     0.210 HD
ATOM     44  H   SGN d 403      29.851 -70.344  71.846  0.00  0.00     0.231 HD
ATOM     45  H   SGN d 403      28.524 -70.162  71.072  0.00  0.00     0.076 H 
ATOM     46  H   SGN d 403      26.582 -71.784  70.970  0.00  0.00     0.085 H 
ATOM     47  H   SGN d 403      29.181 -71.407  68.735  0.00  0.00     0.140 HD
ATOM     48  H   SGN d 403      24.714 -70.993  69.481  0.00  0.00     0.040 H 
ATOM     49  H   SGN d 403      26.043 -71.801  68.671  0.00  0.00     0.040 H 
ATOM     50  H   SGN d 403      24.473 -69.067  66.931  0.00  0.00     0.080 H 
ATOM     51  H   SGN d 403      23.828 -69.604  68.463  0.00  0.00     0.080 H 
ATOM     52  H   SGN d 403      31.386 -70.720  69.906  0.00  0.00     0.231 HD
ATOM     53  H   SGN d 403      28.758 -68.537  69.552  0.00  0.00     0.131 H 
ATOM     54  H   SGN d 403      29.112 -73.795  71.334  0.00  0.00     0.231 HD
ATOM     55  H   SGN d 403      26.444 -70.006  67.427  0.00  0.00     0.086 H 
ENDROOT
TORSDOF 16
ENDMDL
MODEL 58
REMARK VINA RESULT:      -3.4      2.128      2.485
REMARK  0 active torsions:
REMARK  status: ('A' for Active; 'I' for Inactive)
REMARK       I    between atoms: O2_1  and  C2_31 
REMARK       I    between atoms: O2_1  and  S_34 
REMARK       I    between atoms: C5_3  and  C6_33 
REMARK       I    between atoms: O3_5  and  C3_13 
REMARK       I    between atoms: O3S_6  and  S1_32 
REMARK       I    between atoms: O1_7  and  C4_23 
REMARK       I    between atoms: O1_7  and  C1_27 
REMARK       I    between atoms: O6_8  and  C6_21 
REMARK       I    between atoms: O6_8  and  S2_24 
REMARK       I    between atoms: C1_9  and  O1_30 
REMARK       I    between atoms: C2_12  and  N_14 
REMARK       I    between atoms: N_14  and  S1_32 
REMARK       I    between atoms: C3_16  and  O3_29 
REMARK       I    between atoms: C6_21  and  C5_35 
REMARK       I    between atoms: O2S_26  and  S1_32 
REMARK       I    between atoms: O1S_28  and  S1_32 
ROOT
ATOM      1  O2  IDS d 402      31.270 -67.105  65.878  0.00  0.00    -0.244 OA
ATOM      2  C5  IDS d 402      27.854 -69.221  66.957  0.00  0.00     0.152 C 
ATOM      3  C1  IDS d 402      29.584 -68.793  65.413  0.00  0.00     0.158 C 
ATOM      4  O5  IDS d 402      29.089 -69.714  66.405  0.00  0.00    -0.340 OA
ATOM      5  O61 IDS d 402      27.842 -70.789  68.780  0.00  0.00    -0.646 OA
ATOM      6  C3  IDS d 402      29.570 -67.500  67.562  0.00  0.00     0.094 C 
ATOM      7  O62 IDS d 402      26.029 -70.696  67.440  0.00  0.00    -0.646 OA
ATOM      8  O3S IDS d 402      33.640 -67.646  65.204  0.00  0.00    -0.572 OA
ATOM      9  O2S IDS d 402      31.888 -67.257  63.438  0.00  0.00    -0.572 OA
ATOM     10  C4  IDS d 402      28.139 -67.981  67.809  0.00  0.00     0.103 C 
ATOM     11  O1S IDS d 402      31.816 -69.329  64.854  0.00  0.00    -0.572 OA
ATOM     12  O3  IDS d 402      29.737 -66.190  68.121  0.00  0.00    -0.390 OA
ATOM     13  O1  IDS d 402      28.609 -68.620  64.359  0.00  0.00    -0.368 OA
ATOM     14  C2  IDS d 402      29.877 -67.446  66.064  0.00  0.00     0.134 C 
ATOM     15  C6  IDS d 402      27.183 -70.327  67.802  0.00  0.00     0.206 C 
ATOM     16  S   IDS d 402      32.151 -67.834  64.844  0.00  0.00     0.252 S 
ATOM     17  H   IDS d 402      27.185 -68.949  66.167  0.00  0.00     0.104 H 
ATOM     18  H   IDS d 402      30.483 -69.190  64.991  0.00  0.00     0.133 H 
ATOM     19  H   IDS d 402      30.243 -68.189  68.028  0.00  0.00     0.091 H 
ATOM     20  H   IDS d 402      27.457 -67.203  67.537  0.00  0.00     0.092 H 
ATOM     21  H   IDS d 402      29.122 -65.575  67.691  0.00  0.00     0.210 HD
ATOM     22  H   IDS d 402      27.789 -68.260  64.733  0.00  0.00     0.212 HD
ATOM     23  H   IDS d 402      29.257 -66.704  65.605  0.00  0.00     0.097 H 
ATOM     24  O4S SGN d 403      22.775 -65.224  66.915  0.00  0.00    -0.572 OA
ATOM     25  O5  SGN d 403      26.066 -66.944  69.621  0.00  0.00    -0.352 OA
ATOM     26  O3  SGN d 403      25.513 -66.382  72.200  0.00  0.00    -0.394 OA
ATOM     27  O3S SGN d 403      29.469 -66.870  73.231  0.00  0.00    -0.296 OA
ATOM     28  O1  SGN d 403      27.965 -68.301  69.204  0.00  0.00    -0.348 OA
ATOM     29  O6  SGN d 403      23.747 -66.617  68.750  0.00  0.00    -0.254 OA
ATOM     30  O5S SGN d 403      25.221 -65.705  66.938  0.00  0.00    -0.572 OA
ATOM     31  C2  SGN d 403      27.545 -67.487  71.449  0.00  0.00     0.079 C 
ATOM     32  C3  SGN d 403      26.150 -67.665  72.068  0.00  0.00     0.058 C 
ATOM     33  N   SGN d 403      28.390 -68.669  71.691  0.00  0.00    -0.210 NA
ATOM     34  O6S SGN d 403      23.592 -67.529  66.420  0.00  0.00    -0.572 OA
ATOM     35  C4  SGN d 403      25.279 -68.591  71.214  0.00  0.00    -0.013 C 
ATOM     36  C6  SGN d 403      23.900 -67.965  69.216  0.00  0.00     0.064 C 
ATOM     37  S2  SGN d 403      23.834 -66.271  67.257  0.00  0.00     0.251 S 
ATOM     38  O2S SGN d 403      30.965 -68.264  71.796  0.00  0.00    -0.296 OA
ATOM     39  C1  SGN d 403      27.439 -67.185  69.957  0.00  0.00     0.150 C 
ATOM     40  O1S SGN d 403      29.827 -69.283  73.772  0.00  0.00    -0.296 OA
ATOM     41  S1  SGN d 403      29.685 -68.265  72.638  0.00  0.00     0.156 S 
ATOM     42  C5  SGN d 403      25.323 -68.166  69.750  0.00  0.00     0.066 C 
ATOM     43  H   SGN d 403      26.067 -65.800  72.741  0.00  0.00     0.210 HD
ATOM     44  H   SGN d 403      29.379 -66.224  72.514  0.00  0.00     0.231 HD
ATOM     45  H   SGN d 403      28.014 -66.651  71.926  0.00  0.00     0.076 H 
ATOM     46  H   SGN d 403      26.266 -68.112  73.033  0.00  0.00     0.085 H 
ATOM     47  H   SGN d 403      28.726 -69.031  70.798  0.00  0.00     0.140 HD
ATOM     48  H   SGN d 403      24.269 -68.545  71.563  0.00  0.00     0.040 H 
ATOM     49  H   SGN d 403      25.653 -69.590  71.296  0.00  0.00     0.040 H 
ATOM     50  H   SGN d 403      23.724 -68.643  68.407  0.00  0.00     0.080 H 
ATOM     51  H   SGN d 403      23.197 -68.153  69.999  0.00  0.00     0.080 H 
ATOM     52  H   SGN d 403      30.878 -67.620  71.077  0.00  0.00     0.231 HD
ATOM     53  H   SGN d 403      28.009 -66.312  69.715  0.00  0.00     0.131 H 
ATOM     54  H   SGN d 403      29.018 -69.286  74.307  0.00  0.00     0.231 HD
ATOM     55  H   SGN d 403      25.804 -68.934  69.180  0.00  0.00     0.086 H 
ENDROOT
TORSDOF 16
ENDMDL
MODEL 59
REMARK VINA RESULT:      -3.3      2.836      7.633
REMARK  0 active torsions:
REMARK  status: ('A' for Active; 'I' for Inactive)
REMARK       I    between atoms: O2_1  and  C2_31 
REMARK       I    between atoms: O2_1  and  S_34 
REMARK       I    between atoms: C5_3  and  C6_33 
REMARK       I    between atoms: O3_5  and  C3_13 
REMARK       I    between atoms: O3S_6  and  S1_32 
REMARK       I    between atoms: O1_7  and  C4_23 
REMARK       I    between atoms: O1_7  and  C1_27 
REMARK       I    between atoms: O6_8  and  C6_21 
REMARK       I    between atoms: O6_8  and  S2_24 
REMARK       I    between atoms: C1_9  and  O1_30 
REMARK       I    between atoms: C2_12  and  N_14 
REMARK       I    between atoms: N_14  and  S1_32 
REMARK       I    between atoms: C3_16  and  O3_29 
REMARK       I    between atoms: C6_21  and  C5_35 
REMARK       I    between atoms: O2S_26  and  S1_32 
REMARK       I    between atoms: O1S_28  and  S1_32 
ROOT
ATOM      1  O2  IDS d 402      26.463 -65.770  70.350  0.00  0.00    -0.244 OA
ATOM      2  C5  IDS d 402      30.207 -67.543  69.961  0.00  0.00     0.152 C 
ATOM      3  C1  IDS d 402      28.438 -66.796  71.329  0.00  0.00     0.158 C 
ATOM      4  O5  IDS d 402      29.089 -67.954  70.770  0.00  0.00    -0.340 OA
ATOM      5  O61 IDS d 402      30.499 -69.709  68.958  0.00  0.00    -0.646 OA
ATOM      6  C3  IDS d 402      28.195 -66.552  68.844  0.00  0.00     0.094 C 
ATOM      7  O62 IDS d 402      32.271 -68.758  69.980  0.00  0.00    -0.646 OA
ATOM      8  O3S IDS d 402      24.241 -66.361  71.387  0.00  0.00    -0.572 OA
ATOM      9  O2S IDS d 402      25.900 -64.976  72.677  0.00  0.00    -0.572 OA
ATOM     10  C4  IDS d 402      29.689 -66.847  68.699  0.00  0.00     0.103 C 
ATOM     11  O1S IDS d 402      26.349 -67.409  72.247  0.00  0.00    -0.572 OA
ATOM     12  O3  IDS d 402      27.783 -65.649  67.809  0.00  0.00    -0.390 OA
ATOM     13  O1  IDS d 402      29.371 -66.034  72.129  0.00  0.00    -0.368 OA
ATOM     14  C2  IDS d 402      27.894 -65.921  70.205  0.00  0.00     0.134 C 
ATOM     15  C6  IDS d 402      31.067 -68.774  69.597  0.00  0.00     0.206 C 
ATOM     16  S   IDS d 402      25.740 -66.128  71.665  0.00  0.00     0.252 S 
ATOM     17  H   IDS d 402      30.819 -66.855  70.506  0.00  0.00     0.104 H 
ATOM     18  H   IDS d 402      27.631 -67.121  71.952  0.00  0.00     0.133 H 
ATOM     19  H   IDS d 402      27.660 -67.475  68.765  0.00  0.00     0.091 H 
ATOM     20  H   IDS d 402      30.216 -65.925  68.564  0.00  0.00     0.092 H 
ATOM     21  H   IDS d 402      28.276 -64.818  67.891  0.00  0.00     0.210 HD
ATOM     22  H   IDS d 402      30.106 -65.735  71.571  0.00  0.00     0.212 HD
ATOM     23  H   IDS d 402      28.367 -64.963  70.261  0.00  0.00     0.097 H 
ATOM     24  O4S SGN d 403      34.451 -63.121  67.909  0.00  0.00    -0.572 OA
ATOM     25  O5  SGN d 403      31.521 -66.346  66.451  0.00  0.00    -0.352 OA
ATOM     26  O3  SGN d 403      31.942 -66.845  63.834  0.00  0.00    -0.394 OA
ATOM     27  O3S SGN d 403      28.139 -68.374  63.438  0.00  0.00    -0.296 OA
ATOM     28  O1  SGN d 403      29.911 -67.694  67.552  0.00  0.00    -0.348 OA
ATOM     29  O6  SGN d 403      33.743 -65.301  66.907  0.00  0.00    -0.254 OA
ATOM     30  O5S SGN d 403      32.137 -63.966  68.296  0.00  0.00    -0.572 OA
ATOM     31  C2  SGN d 403      30.157 -67.850  65.145  0.00  0.00     0.079 C 
ATOM     32  C3  SGN d 403      31.556 -68.038  64.540  0.00  0.00     0.058 C 
ATOM     33  N   SGN d 403      29.546 -69.145  65.489  0.00  0.00    -0.210 NA
ATOM     34  O6S SGN d 403      34.081 -65.100  69.383  0.00  0.00    -0.572 OA
ATOM     35  C4  SGN d 403      32.590 -68.356  65.624  0.00  0.00    -0.013 C 
ATOM     36  C6  SGN d 403      33.842 -66.723  67.057  0.00  0.00     0.064 C 
ATOM     37  S2  SGN d 403      33.603 -64.375  68.123  0.00  0.00     0.251 S 
ATOM     38  O2S SGN d 403      26.940 -69.257  65.444  0.00  0.00    -0.296 OA
ATOM     39  C1  SGN d 403      30.214 -66.931  66.363  0.00  0.00     0.150 C 
ATOM     40  O1S SGN d 403      28.234 -70.812  63.980  0.00  0.00    -0.296 OA
ATOM     41  S1  SGN d 403      28.191 -69.401  64.573  0.00  0.00     0.156 S 
ATOM     42  C5  SGN d 403      32.477 -67.365  66.778  0.00  0.00     0.066 C 
ATOM     43  H   SGN d 403      31.285 -66.648  63.149  0.00  0.00     0.210 HD
ATOM     44  H   SGN d 403      28.112 -67.480  63.813  0.00  0.00     0.231 HD
ATOM     45  H   SGN d 403      29.537 -67.385  64.407  0.00  0.00     0.076 H 
ATOM     46  H   SGN d 403      31.520 -68.864  63.861  0.00  0.00     0.085 H 
ATOM     47  H   SGN d 403      29.289 -69.145  66.476  0.00  0.00     0.140 HD
ATOM     48  H   SGN d 403      33.572 -68.295  65.203  0.00  0.00     0.040 H 
ATOM     49  H   SGN d 403      32.409 -69.343  65.996  0.00  0.00     0.040 H 
ATOM     50  H   SGN d 403      34.147 -66.955  68.057  0.00  0.00     0.080 H 
ATOM     51  H   SGN d 403      34.563 -67.105  66.366  0.00  0.00     0.080 H 
ATOM     52  H   SGN d 403      26.909 -68.364  65.821  0.00  0.00     0.231 HD
ATOM     53  H   SGN d 403      29.493 -66.146  66.269  0.00  0.00     0.131 H 
ATOM     54  H   SGN d 403      29.026 -70.906  63.427  0.00  0.00     0.231 HD
ATOM     55  H   SGN d 403      32.153 -67.888  67.654  0.00  0.00     0.086 H 
ENDROOT
TORSDOF 16
ENDMDL
MODEL 60
REMARK VINA RESULT:      -3.3      2.422      3.074
REMARK  0 active torsions:
REMARK  status: ('A' for Active; 'I' for Inactive)
REMARK       I    between atoms: O2_1  and  C2_31 
REMARK       I    between atoms: O2_1  and  S_34 
REMARK       I    between atoms: C5_3  and  C6_33 
REMARK       I    between atoms: O3_5  and  C3_13 
REMARK       I    between atoms: O3S_6  and  S1_32 
REMARK       I    between atoms: O1_7  and  C4_23 
REMARK       I    between atoms: O1_7  and  C1_27 
REMARK       I    between atoms: O6_8  and  C6_21 
REMARK       I    between atoms: O6_8  and  S2_24 
REMARK       I    between atoms: C1_9  and  O1_30 
REMARK       I    between atoms: C2_12  and  N_14 
REMARK       I    between atoms: N_14  and  S1_32 
REMARK       I    between atoms: C3_16  and  O3_29 
REMARK       I    between atoms: C6_21  and  C5_35 
REMARK       I    between atoms: O2S_26  and  S1_32 
REMARK       I    between atoms: O1S_28  and  S1_32 
ROOT
ATOM      1  O2  IDS d 402      33.022 -65.989  66.359  0.00  0.00    -0.244 OA
ATOM      2  C5  IDS d 402      29.856 -68.663  65.988  0.00  0.00     0.152 C 
ATOM      3  C1  IDS d 402      31.622 -67.447  65.008  0.00  0.00     0.158 C 
ATOM      4  O5  IDS d 402      31.185 -68.750  65.441  0.00  0.00    -0.340 OA
ATOM      5  O61 IDS d 402      29.922 -70.866  66.951  0.00  0.00    -0.646 OA
ATOM      6  C3  IDS d 402      31.271 -67.235  67.483  0.00  0.00     0.094 C 
ATOM      7  O62 IDS d 402      28.220 -70.360  65.560  0.00  0.00    -0.646 OA
ATOM      8  O3S IDS d 402      35.487 -65.963  65.826  0.00  0.00    -0.572 OA
ATOM      9  O2S IDS d 402      33.837 -64.998  64.188  0.00  0.00    -0.572 OA
ATOM     10  C4  IDS d 402      29.905 -67.903  67.316  0.00  0.00     0.103 C 
ATOM     11  O1S IDS d 402      33.943 -67.479  64.563  0.00  0.00    -0.572 OA
ATOM     12  O3  IDS d 402      31.214 -66.293  68.563  0.00  0.00    -0.390 OA
ATOM     13  O1  IDS d 402      30.715 -66.918  64.015  0.00  0.00    -0.368 OA
ATOM     14  C2  IDS d 402      31.679 -66.501  66.204  0.00  0.00     0.134 C 
ATOM     15  C6  IDS d 402      29.282 -70.084  66.188  0.00  0.00     0.206 C 
ATOM     16  S   IDS d 402      34.070 -66.107  65.234  0.00  0.00     0.252 S 
ATOM     17  H   IDS d 402      29.217 -68.134  65.312  0.00  0.00     0.104 H 
ATOM     18  H   IDS d 402      32.596 -67.536  64.576  0.00  0.00     0.133 H 
ATOM     19  H   IDS d 402      31.995 -67.995  67.692  0.00  0.00     0.091 H 
ATOM     20  H   IDS d 402      29.145 -67.149  67.319  0.00  0.00     0.092 H 
ATOM     21  H   IDS d 402      30.555 -65.611  68.362  0.00  0.00     0.210 HD
ATOM     22  H   IDS d 402      29.828 -66.834  64.399  0.00  0.00     0.212 HD
ATOM     23  H   IDS d 402      31.000 -65.693  66.030  0.00  0.00     0.097 H 
ATOM     24  O4S SGN d 403      24.295 -65.531  67.010  0.00  0.00    -0.572 OA
ATOM     25  O5  SGN d 403      27.579 -67.959  69.118  0.00  0.00    -0.352 OA
ATOM     26  O3  SGN d 403      26.762 -68.638  71.597  0.00  0.00    -0.394 OA
ATOM     27  O3S SGN d 403      30.659 -69.168  72.815  0.00  0.00    -0.296 OA
ATOM     28  O1  SGN d 403      29.671 -68.817  68.407  0.00  0.00    -0.348 OA
ATOM     29  O6  SGN d 403      25.309 -67.494  68.183  0.00  0.00    -0.254 OA
ATOM     30  O5S SGN d 403      26.776 -65.750  67.137  0.00  0.00    -0.572 OA
ATOM     31  C2  SGN d 403      28.977 -69.112  70.712  0.00  0.00     0.079 C 
ATOM     32  C3  SGN d 403      27.577 -69.669  71.013  0.00  0.00     0.058 C 
ATOM     33  N   SGN d 403      29.955 -70.199  70.531  0.00  0.00    -0.210 NA
ATOM     34  O6S SGN d 403      25.456 -67.301  65.687  0.00  0.00    -0.572 OA
ATOM     35  C4  SGN d 403      26.908 -70.201  69.742  0.00  0.00    -0.013 C 
ATOM     36  C6  SGN d 403      25.610 -68.890  68.044  0.00  0.00     0.064 C 
ATOM     37  S2  SGN d 403      25.460 -66.522  67.005  0.00  0.00     0.251 S 
ATOM     38  O2S SGN d 403      32.435 -69.650  71.126  0.00  0.00    -0.296 OA
ATOM     39  C1  SGN d 403      28.943 -68.197  69.491  0.00  0.00     0.150 C 
ATOM     40  O1S SGN d 403      31.303 -71.530  72.315  0.00  0.00    -0.296 OA
ATOM     41  S1  SGN d 403      31.108 -70.135  71.716  0.00  0.00     0.156 S 
ATOM     42  C5  SGN d 403      27.003 -69.175  68.618  0.00  0.00     0.066 C 
ATOM     43  H   SGN d 403      27.190 -68.305  72.401  0.00  0.00     0.210 HD
ATOM     44  H   SGN d 403      30.536 -68.284  72.437  0.00  0.00     0.231 HD
ATOM     45  H   SGN d 403      29.290 -68.532  71.555  0.00  0.00     0.076 H 
ATOM     46  H   SGN d 403      27.680 -70.482  71.700  0.00  0.00     0.085 H 
ATOM     47  H   SGN d 403      30.403 -70.100  69.620  0.00  0.00     0.140 HD
ATOM     48  H   SGN d 403      25.878 -70.405  69.946  0.00  0.00     0.040 H 
ATOM     49  H   SGN d 403      27.407 -71.097  69.437  0.00  0.00     0.040 H 
ATOM     50  H   SGN d 403      25.589 -69.157  67.008  0.00  0.00     0.080 H 
ATOM     51  H   SGN d 403      24.882 -69.465  68.576  0.00  0.00     0.080 H 
ATOM     52  H   SGN d 403      32.316 -68.766  70.745  0.00  0.00     0.231 HD
ATOM     53  H   SGN d 403      29.405 -67.259  69.719  0.00  0.00     0.131 H 
ATOM     54  H   SGN d 403      30.464 -71.841  72.691  0.00  0.00     0.231 HD
ATOM     55  H   SGN d 403      27.625 -69.568  67.841  0.00  0.00     0.086 H 
ENDROOT
TORSDOF 16
ENDMDL
MODEL 61
REMARK VINA RESULT:      -3.3      2.271      6.902
REMARK  0 active torsions:
REMARK  status: ('A' for Active; 'I' for Inactive)
REMARK       I    between atoms: O2_1  and  C2_31 
REMARK       I    between atoms: O2_1  and  S_34 
REMARK       I    between atoms: C5_3  and  C6_33 
REMARK       I    between atoms: O3_5  and  C3_13 
REMARK       I    between atoms: O3S_6  and  S1_32 
REMARK       I    between atoms: O1_7  and  C4_23 
REMARK       I    between atoms: O1_7  and  C1_27 
REMARK       I    between atoms: O6_8  and  C6_21 
REMARK       I    between atoms: O6_8  and  S2_24 
REMARK       I    between atoms: C1_9  and  O1_30 
REMARK       I    between atoms: C2_12  and  N_14 
REMARK       I    between atoms: N_14  and  S1_32 
REMARK       I    between atoms: C3_16  and  O3_29 
REMARK       I    between atoms: C6_21  and  C5_35 
REMARK       I    between atoms: O2S_26  and  S1_32 
REMARK       I    between atoms: O1S_28  and  S1_32 
ROOT
ATOM      1  O2  IDS d 402      29.675 -63.932  72.457  0.00  0.00    -0.244 OA
ATOM      2  C5  IDS d 402      29.958 -67.601  70.515  0.00  0.00     0.152 C 
ATOM      3  C1  IDS d 402      30.589 -66.178  72.287  0.00  0.00     0.158 C 
ATOM      4  O5  IDS d 402      29.802 -67.329  71.920  0.00  0.00    -0.340 OA
ATOM      5  O61 IDS d 402      28.122 -69.152  70.435  0.00  0.00    -0.646 OA
ATOM      6  C3  IDS d 402      28.913 -65.327  70.626  0.00  0.00     0.094 C 
ATOM      7  O62 IDS d 402      30.137 -69.844  69.694  0.00  0.00    -0.646 OA
ATOM      8  O3S IDS d 402      29.101 -63.109  74.772  0.00  0.00    -0.572 OA
ATOM      9  O2S IDS d 402      31.508 -63.469  74.127  0.00  0.00    -0.572 OA
ATOM     10  C4  IDS d 402      29.274 -66.495  69.707  0.00  0.00     0.103 C 
ATOM     11  O1S IDS d 402      29.977 -65.434  74.444  0.00  0.00    -0.572 OA
ATOM     12  O3  IDS d 402      28.552 -64.189  69.832  0.00  0.00    -0.390 OA
ATOM     13  O1  IDS d 402      31.984 -66.408  71.983  0.00  0.00    -0.368 OA
ATOM     14  C2  IDS d 402      30.094 -64.954  71.524  0.00  0.00     0.134 C 
ATOM     15  C6  IDS d 402      29.351 -68.983  70.182  0.00  0.00     0.206 C 
ATOM     16  S   IDS d 402      30.066 -63.987  73.948  0.00  0.00     0.252 S 
ATOM     17  H   IDS d 402      30.998 -67.620  70.261  0.00  0.00     0.104 H 
ATOM     18  H   IDS d 402      30.486 -66.011  73.338  0.00  0.00     0.133 H 
ATOM     19  H   IDS d 402      28.090 -65.625  71.242  0.00  0.00     0.091 H 
ATOM     20  H   IDS d 402      29.945 -66.148  68.948  0.00  0.00     0.092 H 
ATOM     21  H   IDS d 402      29.304 -63.929  69.279  0.00  0.00     0.210 HD
ATOM     22  H   IDS d 402      32.086 -66.561  71.031  0.00  0.00     0.212 HD
ATOM     23  H   IDS d 402      30.894 -64.585  70.917  0.00  0.00     0.097 H 
ATOM     24  O4S SGN d 403      32.934 -66.778  64.837  0.00  0.00    -0.572 OA
ATOM     25  O5  SGN d 403      28.793 -66.875  66.829  0.00  0.00    -0.352 OA
ATOM     26  O3  SGN d 403      26.873 -66.971  64.938  0.00  0.00    -0.394 OA
ATOM     27  O3S SGN d 403      24.090 -65.487  67.584  0.00  0.00    -0.296 OA
ATOM     28  O1  SGN d 403      28.081 -67.016  69.085  0.00  0.00    -0.348 OA
ATOM     29  O6  SGN d 403      30.664 -67.679  65.382  0.00  0.00    -0.254 OA
ATOM     30  O5S SGN d 403      31.723 -65.943  66.850  0.00  0.00    -0.572 OA
ATOM     31  C2  SGN d 403      26.432 -66.792  67.322  0.00  0.00     0.079 C 
ATOM     32  C3  SGN d 403      26.498 -67.725  66.104  0.00  0.00     0.058 C 
ATOM     33  N   SGN d 403      25.651 -67.397  68.415  0.00  0.00    -0.210 NA
ATOM     34  O6S SGN d 403      32.635 -68.270  66.815  0.00  0.00    -0.572 OA
ATOM     35  C4  SGN d 403      27.500 -68.861  66.330  0.00  0.00    -0.013 C 
ATOM     36  C6  SGN d 403      29.977 -68.804  65.948  0.00  0.00     0.064 C 
ATOM     37  S2  SGN d 403      31.987 -67.169  65.972  0.00  0.00     0.251 S 
ATOM     38  O2S SGN d 403      24.448 -65.750  70.042  0.00  0.00    -0.296 OA
ATOM     39  C1  SGN d 403      27.835 -66.418  67.793  0.00  0.00     0.150 C 
ATOM     40  O1S SGN d 403      23.077 -67.424  68.795  0.00  0.00    -0.296 OA
ATOM     41  S1  SGN d 403      24.294 -66.499  68.715  0.00  0.00     0.156 S 
ATOM     42  C5  SGN d 403      28.829 -68.310  66.836  0.00  0.00     0.066 C 
ATOM     43  H   SGN d 403      26.236 -66.254  64.798  0.00  0.00     0.210 HD
ATOM     44  H   SGN d 403      24.860 -64.900  67.532  0.00  0.00     0.231 HD
ATOM     45  H   SGN d 403      25.931 -65.894  67.024  0.00  0.00     0.076 H 
ATOM     46  H   SGN d 403      25.531 -68.157  65.959  0.00  0.00     0.085 H 
ATOM     47  H   SGN d 403      26.224 -67.432  69.259  0.00  0.00     0.140 HD
ATOM     48  H   SGN d 403      27.662 -69.377  65.407  0.00  0.00     0.040 H 
ATOM     49  H   SGN d 403      27.102 -69.532  67.063  0.00  0.00     0.040 H 
ATOM     50  H   SGN d 403      30.661 -69.379  66.536  0.00  0.00     0.080 H 
ATOM     51  H   SGN d 403      29.582 -69.412  65.161  0.00  0.00     0.080 H 
ATOM     52  H   SGN d 403      25.218 -65.163  69.994  0.00  0.00     0.231 HD
ATOM     53  H   SGN d 403      27.923 -65.355  67.887  0.00  0.00     0.131 H 
ATOM     54  H   SGN d 403      22.976 -67.900  67.956  0.00  0.00     0.231 HD
ATOM     55  H   SGN d 403      28.990 -68.655  67.836  0.00  0.00     0.086 H 
ENDROOT
TORSDOF 16
ENDMDL
MODEL 62
REMARK VINA RESULT:      -3.3      4.583      6.320
REMARK  0 active torsions:
REMARK  status: ('A' for Active; 'I' for Inactive)
REMARK       I    between atoms: O2_1  and  C2_31 
REMARK       I    between atoms: O2_1  and  S_34 
REMARK       I    between atoms: C5_3  and  C6_33 
REMARK       I    between atoms: O3_5  and  C3_13 
REMARK       I    between atoms: O3S_6  and  S1_32 
REMARK       I    between atoms: O1_7  and  C4_23 
REMARK       I    between atoms: O1_7  and  C1_27 
REMARK       I    between atoms: O6_8  and  C6_21 
REMARK       I    between atoms: O6_8  and  S2_24 
REMARK       I    between atoms: C1_9  and  O1_30 
REMARK       I    between atoms: C2_12  and  N_14 
REMARK       I    between atoms: N_14  and  S1_32 
REMARK       I    between atoms: C3_16  and  O3_29 
REMARK       I    between atoms: C6_21  and  C5_35 
REMARK       I    between atoms: O2S_26  and  S1_32 
REMARK       I    between atoms: O1S_28  and  S1_32 
ROOT
ATOM      1  O2  IDS d 402      24.749 -70.233  65.308  0.00  0.00    -0.244 OA
ATOM      2  C5  IDS d 402      22.755 -69.103  68.781  0.00  0.00     0.152 C 
ATOM      3  C1  IDS d 402      22.792 -70.300  66.750  0.00  0.00     0.158 C 
ATOM      4  O5  IDS d 402      22.869 -70.408  68.185  0.00  0.00    -0.340 OA
ATOM      5  O61 IDS d 402      23.456 -69.845  70.958  0.00  0.00    -0.646 OA
ATOM      6  C3  IDS d 402      24.843 -69.009  67.399  0.00  0.00     0.094 C 
ATOM      7  O62 IDS d 402      21.489 -68.754  70.784  0.00  0.00    -0.646 OA
ATOM      8  O3S IDS d 402      25.402 -72.390  64.174  0.00  0.00    -0.572 OA
ATOM      9  O2S IDS d 402      23.277 -71.214  63.510  0.00  0.00    -0.572 OA
ATOM     10  C4  IDS d 402      24.017 -68.294  68.470  0.00  0.00     0.103 C 
ATOM     11  O1S IDS d 402      23.453 -72.336  65.749  0.00  0.00    -0.572 OA
ATOM     12  O3  IDS d 402      25.852 -68.121  66.901  0.00  0.00    -0.390 OA
ATOM     13  O1  IDS d 402      21.542 -69.688  66.360  0.00  0.00    -0.368 OA
ATOM     14  C2  IDS d 402      23.956 -69.458  66.236  0.00  0.00     0.134 C 
ATOM     15  C6  IDS d 402      22.553 -69.242  70.306  0.00  0.00     0.206 C 
ATOM     16  S   IDS d 402      24.219 -71.542  64.686  0.00  0.00     0.252 S 
ATOM     17  H   IDS d 402      21.909 -68.589  68.375  0.00  0.00     0.104 H 
ATOM     18  H   IDS d 402      22.846 -71.281  66.327  0.00  0.00     0.133 H 
ATOM     19  H   IDS d 402      25.295 -69.872  67.842  0.00  0.00     0.091 H 
ATOM     20  H   IDS d 402      23.735 -67.327  68.106  0.00  0.00     0.092 H 
ATOM     21  H   IDS d 402      25.430 -67.344  66.502  0.00  0.00     0.210 HD
ATOM     22  H   IDS d 402      21.485 -68.798  66.740  0.00  0.00     0.212 HD
ATOM     23  H   IDS d 402      23.559 -68.596  65.743  0.00  0.00     0.097 H 
ATOM     24  O4S SGN d 403      21.385 -62.793  68.488  0.00  0.00    -0.572 OA
ATOM     25  O5  SGN d 403      24.549 -65.796  69.933  0.00  0.00    -0.352 OA
ATOM     26  O3  SGN d 403      26.317 -64.554  71.546  0.00  0.00    -0.394 OA
ATOM     27  O3S SGN d 403      29.130 -67.476  70.837  0.00  0.00    -0.296 OA
ATOM     28  O1  SGN d 403      24.802 -68.139  69.670  0.00  0.00    -0.348 OA
ATOM     29  O6  SGN d 403      22.725 -64.103  70.146  0.00  0.00    -0.254 OA
ATOM     30  O5S SGN d 403      22.610 -64.835  67.750  0.00  0.00    -0.572 OA
ATOM     31  C2  SGN d 403      26.503 -66.876  70.850  0.00  0.00     0.079 C 
ATOM     32  C3  SGN d 403      26.086 -65.909  71.968  0.00  0.00     0.058 C 
ATOM     33  N   SGN d 403      26.699 -68.240  71.370  0.00  0.00    -0.210 NA
ATOM     34  O6S SGN d 403      20.595 -65.046  69.215  0.00  0.00    -0.572 OA
ATOM     35  C4  SGN d 403      24.610 -66.092  72.336  0.00  0.00    -0.013 C 
ATOM     36  C6  SGN d 403      22.623 -65.056  71.213  0.00  0.00     0.064 C 
ATOM     37  S2  SGN d 403      21.829 -64.196  68.902  0.00  0.00     0.251 S 
ATOM     38  O2S SGN d 403      28.402 -69.746  70.091  0.00  0.00    -0.296 OA
ATOM     39  C1  SGN d 403      25.482 -66.864  69.715  0.00  0.00     0.150 C 
ATOM     40  O1S SGN d 403      28.785 -69.294  72.517  0.00  0.00    -0.296 OA
ATOM     41  S1  SGN d 403      28.280 -68.697  71.200  0.00  0.00     0.156 S 
ATOM     42  C5  SGN d 403      23.742 -66.095  71.082  0.00  0.00     0.066 C 
ATOM     43  H   SGN d 403      27.252 -64.442  71.314  0.00  0.00     0.210 HD
ATOM     44  H   SGN d 403      28.811 -67.098  70.003  0.00  0.00     0.231 HD
ATOM     45  H   SGN d 403      27.441 -66.542  70.457  0.00  0.00     0.076 H 
ATOM     46  H   SGN d 403      26.675 -66.123  72.834  0.00  0.00     0.085 H 
ATOM     47  H   SGN d 403      26.104 -68.887  70.852  0.00  0.00     0.140 HD
ATOM     48  H   SGN d 403      24.305 -65.289  72.974  0.00  0.00     0.040 H 
ATOM     49  H   SGN d 403      24.494 -67.028  72.841  0.00  0.00     0.040 H 
ATOM     50  H   SGN d 403      21.673 -65.546  71.163  0.00  0.00     0.080 H 
ATOM     51  H   SGN d 403      22.715 -64.550  72.151  0.00  0.00     0.080 H 
ATOM     52  H   SGN d 403      28.083 -69.372  69.255  0.00  0.00     0.231 HD
ATOM     53  H   SGN d 403      25.972 -66.705  68.778  0.00  0.00     0.131 H 
ATOM     54  H   SGN d 403      28.709 -68.631  73.222  0.00  0.00     0.231 HD
ATOM     55  H   SGN d 403      23.305 -67.065  70.966  0.00  0.00     0.086 H 
ENDROOT
TORSDOF 16
ENDMDL
MODEL 63
REMARK VINA RESULT:      -3.3      2.434      3.153
REMARK  0 active torsions:
REMARK  status: ('A' for Active; 'I' for Inactive)
REMARK       I    between atoms: O2_1  and  C2_31 
REMARK       I    between atoms: O2_1  and  S_34 
REMARK       I    between atoms: C5_3  and  C6_33 
REMARK       I    between atoms: O3_5  and  C3_13 
REMARK       I    between atoms: O3S_6  and  S1_32 
REMARK       I    between atoms: O1_7  and  C4_23 
REMARK       I    between atoms: O1_7  and  C1_27 
REMARK       I    between atoms: O6_8  and  C6_21 
REMARK       I    between atoms: O6_8  and  S2_24 
REMARK       I    between atoms: C1_9  and  O1_30 
REMARK       I    between atoms: C2_12  and  N_14 
REMARK       I    between atoms: N_14  and  S1_32 
REMARK       I    between atoms: C3_16  and  O3_29 
REMARK       I    between atoms: C6_21  and  C5_35 
REMARK       I    between atoms: O2S_26  and  S1_32 
REMARK       I    between atoms: O1S_28  and  S1_32 
ROOT
ATOM      1  O2  IDS d 402      29.055 -68.933  65.488  0.00  0.00    -0.244 OA
ATOM      2  C5  IDS d 402      26.300 -69.317  68.583  0.00  0.00     0.152 C 
ATOM      3  C1  IDS d 402      27.221 -70.113  66.563  0.00  0.00     0.158 C 
ATOM      4  O5  IDS d 402      27.140 -70.323  67.987  0.00  0.00    -0.340 OA
ATOM      5  O61 IDS d 402      26.968 -69.847  70.832  0.00  0.00    -0.646 OA
ATOM      6  C3  IDS d 402      28.224 -68.056  67.591  0.00  0.00     0.094 C 
ATOM      7  O62 IDS d 402      24.766 -69.858  70.341  0.00  0.00    -0.646 OA
ATOM      8  O3S IDS d 402      30.859 -70.349  64.437  0.00  0.00    -0.572 OA
ATOM      9  O2S IDS d 402      28.549 -70.313  63.438  0.00  0.00    -0.572 OA
ATOM     10  C4  IDS d 402      27.010 -67.962  68.516  0.00  0.00     0.103 C 
ATOM     11  O1S IDS d 402      28.952 -71.435  65.647  0.00  0.00    -0.572 OA
ATOM     12  O3  IDS d 402      28.705 -66.738  67.297  0.00  0.00    -0.390 OA
ATOM     13  O1  IDS d 402      25.901 -70.161  65.974  0.00  0.00    -0.368 OA
ATOM     14  C2  IDS d 402      27.858 -68.757  66.280  0.00  0.00     0.134 C 
ATOM     15  C6  IDS d 402      25.985 -69.703  70.046  0.00  0.00     0.206 C 
ATOM     16  S   IDS d 402      29.352 -70.257  64.753  0.00  0.00     0.252 S 
ATOM     17  H   IDS d 402      25.377 -69.249  68.047  0.00  0.00     0.104 H 
ATOM     18  H   IDS d 402      27.821 -70.887  66.133  0.00  0.00     0.133 H 
ATOM     19  H   IDS d 402      28.983 -68.625  68.086  0.00  0.00     0.091 H 
ATOM     20  H   IDS d 402      26.332 -67.229  68.130  0.00  0.00     0.092 H 
ATOM     21  H   IDS d 402      28.008 -66.233  66.848  0.00  0.00     0.210 HD
ATOM     22  H   IDS d 402      25.350 -69.462  66.358  0.00  0.00     0.212 HD
ATOM     23  H   IDS d 402      27.154 -68.155  65.745  0.00  0.00     0.097 H 
ATOM     24  O4S SGN d 403      21.987 -64.520  68.198  0.00  0.00    -0.572 OA
ATOM     25  O5  SGN d 403      25.996 -65.703  70.106  0.00  0.00    -0.352 OA
ATOM     26  O3  SGN d 403      26.649 -63.931  72.031  0.00  0.00    -0.394 OA
ATOM     27  O3S SGN d 403      30.619 -64.986  71.760  0.00  0.00    -0.296 OA
ATOM     28  O1  SGN d 403      27.432 -67.570  69.838  0.00  0.00    -0.348 OA
ATOM     29  O6  SGN d 403      23.558 -65.167  70.034  0.00  0.00    -0.254 OA
ATOM     30  O5S SGN d 403      24.165 -65.597  67.640  0.00  0.00    -0.572 OA
ATOM     31  C2  SGN d 403      28.078 -65.768  71.326  0.00  0.00     0.079 C 
ATOM     32  C3  SGN d 403      27.077 -65.260  72.376  0.00  0.00     0.058 C 
ATOM     33  N   SGN d 403      28.861 -66.904  71.842  0.00  0.00    -0.210 NA
ATOM     34  O6S SGN d 403      22.351 -66.932  68.724  0.00  0.00    -0.572 OA
ATOM     35  C4  SGN d 403      25.862 -66.187  72.476  0.00  0.00    -0.013 C 
ATOM     36  C6  SGN d 403      23.803 -66.154  71.046  0.00  0.00     0.064 C 
ATOM     37  S2  SGN d 403      23.016 -65.555  68.651  0.00  0.00     0.251 S 
ATOM     38  O2S SGN d 403      31.251 -67.224  70.846  0.00  0.00    -0.296 OA
ATOM     39  C1  SGN d 403      27.360 -66.140  70.031  0.00  0.00     0.150 C 
ATOM     40  O1S SGN d 403      31.009 -66.906  73.311  0.00  0.00    -0.296 OA
ATOM     41  S1  SGN d 403      30.462 -66.499  71.941  0.00  0.00     0.156 S 
ATOM     42  C5  SGN d 403      25.300 -66.484  71.089  0.00  0.00     0.066 C 
ATOM     43  H   SGN d 403      27.421 -63.349  71.969  0.00  0.00     0.210 HD
ATOM     44  H   SGN d 403      30.274 -64.727  70.892  0.00  0.00     0.231 HD
ATOM     45  H   SGN d 403      28.762 -64.974  71.111  0.00  0.00     0.076 H 
ATOM     46  H   SGN d 403      27.566 -65.248  73.327  0.00  0.00     0.085 H 
ATOM     47  H   SGN d 403      28.753 -67.700  71.213  0.00  0.00     0.140 HD
ATOM     48  H   SGN d 403      25.107 -65.714  73.068  0.00  0.00     0.040 H 
ATOM     49  H   SGN d 403      26.165 -67.107  72.931  0.00  0.00     0.040 H 
ATOM     50  H   SGN d 403      23.249 -67.041  70.819  0.00  0.00     0.080 H 
ATOM     51  H   SGN d 403      23.495 -65.774  71.997  0.00  0.00     0.080 H 
ATOM     52  H   SGN d 403      30.907 -66.968  69.976  0.00  0.00     0.231 HD
ATOM     53  H   SGN d 403      27.829 -65.660  69.197  0.00  0.00     0.131 H 
ATOM     54  H   SGN d 403      30.511 -66.448  74.007  0.00  0.00     0.231 HD
ATOM     55  H   SGN d 403      25.434 -67.524  70.876  0.00  0.00     0.086 H 
ENDROOT
TORSDOF 16
ENDMDL
MODEL 64
REMARK VINA RESULT:      -3.3      2.319      6.859
REMARK  0 active torsions:
REMARK  status: ('A' for Active; 'I' for Inactive)
REMARK       I    between atoms: O2_1  and  C2_31 
REMARK       I    between atoms: O2_1  and  S_34 
REMARK       I    between atoms: C5_3  and  C6_33 
REMARK       I    between atoms: O3_5  and  C3_13 
REMARK       I    between atoms: O3S_6  and  S1_32 
REMARK       I    between atoms: O1_7  and  C4_23 
REMARK       I    between atoms: O1_7  and  C1_27 
REMARK       I    between atoms: O6_8  and  C6_21 
REMARK       I    between atoms: O6_8  and  S2_24 
REMARK       I    between atoms: C1_9  and  O1_30 
REMARK       I    between atoms: C2_12  and  N_14 
REMARK       I    between atoms: N_14  and  S1_32 
REMARK       I    between atoms: C3_16  and  O3_29 
REMARK       I    between atoms: C6_21  and  C5_35 
REMARK       I    between atoms: O2S_26  and  S1_32 
REMARK       I    between atoms: O1S_28  and  S1_32 
ROOT
ATOM      1  O2  IDS d 402      24.765 -67.928  67.431  0.00  0.00    -0.244 OA
ATOM      2  C5  IDS d 402      28.625 -66.530  68.107  0.00  0.00     0.152 C 
ATOM      3  C1  IDS d 402      26.377 -66.111  67.533  0.00  0.00     0.158 C 
ATOM      4  O5  IDS d 402      27.372 -65.991  68.568  0.00  0.00    -0.340 OA
ATOM      5  O61 IDS d 402      29.625 -66.538  70.294  0.00  0.00    -0.646 OA
ATOM      6  C3  IDS d 402      27.037 -68.467  68.087  0.00  0.00     0.094 C 
ATOM      7  O62 IDS d 402      30.706 -65.465  68.630  0.00  0.00    -0.646 OA
ATOM      8  O3S IDS d 402      22.448 -67.445  68.305  0.00  0.00    -0.572 OA
ATOM      9  O2S IDS d 402      23.255 -66.327  66.199  0.00  0.00    -0.572 OA
ATOM     10  C4  IDS d 402      28.505 -68.050  67.976  0.00  0.00     0.103 C 
ATOM     11  O1S IDS d 402      24.229 -65.686  68.422  0.00  0.00    -0.572 OA
ATOM     12  O3  IDS d 402      26.894 -69.832  67.672  0.00  0.00    -0.390 OA
ATOM     13  O1  IDS d 402      26.805 -65.410  66.343  0.00  0.00    -0.368 OA
ATOM     14  C2  IDS d 402      26.151 -67.584  67.206  0.00  0.00     0.134 C 
ATOM     15  C6  IDS d 402      29.751 -66.149  69.095  0.00  0.00     0.206 C 
ATOM     16  S   IDS d 402      23.677 -66.847  67.589  0.00  0.00     0.252 S 
ATOM     17  H   IDS d 402      28.867 -66.120  67.148  0.00  0.00     0.104 H 
ATOM     18  H   IDS d 402      25.463 -65.677  67.881  0.00  0.00     0.133 H 
ATOM     19  H   IDS d 402      26.730 -68.356  69.107  0.00  0.00     0.091 H 
ATOM     20  H   IDS d 402      28.882 -68.353  67.021  0.00  0.00     0.092 H 
ATOM     21  H   IDS d 402      27.175 -69.920  66.748  0.00  0.00     0.210 HD
ATOM     22  H   IDS d 402      27.634 -65.797  66.020  0.00  0.00     0.212 HD
ATOM     23  H   IDS d 402      26.403 -67.746  66.179  0.00  0.00     0.097 H 
ATOM     24  O4S SGN d 403      32.527 -68.719  63.442  0.00  0.00    -0.572 OA
ATOM     25  O5  SGN d 403      30.928 -69.685  67.641  0.00  0.00    -0.352 OA
ATOM     26  O3  SGN d 403      32.367 -71.691  68.726  0.00  0.00    -0.394 OA
ATOM     27  O3S SGN d 403      29.295 -72.593  71.314  0.00  0.00    -0.296 OA
ATOM     28  O1  SGN d 403      29.274 -68.689  69.016  0.00  0.00    -0.348 OA
ATOM     29  O6  SGN d 403      32.615 -69.015  65.925  0.00  0.00    -0.254 OA
ATOM     30  O5S SGN d 403      30.411 -68.745  64.760  0.00  0.00    -0.572 OA
ATOM     31  C2  SGN d 403      30.417 -70.687  69.776  0.00  0.00     0.079 C 
ATOM     32  C3  SGN d 403      31.952 -70.744  69.725  0.00  0.00     0.058 C 
ATOM     33  N   SGN d 403      29.947 -70.088  71.037  0.00  0.00    -0.210 NA
ATOM     34  O6S SGN d 403      31.972 -66.801  64.939  0.00  0.00    -0.572 OA
ATOM     35  C4  SGN d 403      32.547 -69.368  69.415  0.00  0.00    -0.013 C 
ATOM     36  C6  SGN d 403      32.886 -68.332  67.157  0.00  0.00     0.064 C 
ATOM     37  S2  SGN d 403      31.882 -68.319  64.769  0.00  0.00     0.251 S 
ATOM     38  O2S SGN d 403      27.602 -70.849  71.890  0.00  0.00    -0.296 OA
ATOM     39  C1  SGN d 403      29.865 -69.931  68.571  0.00  0.00     0.150 C 
ATOM     40  O1S SGN d 403      29.587 -71.195  73.365  0.00  0.00    -0.296 OA
ATOM     41  S1  SGN d 403      29.093 -71.200  71.916  0.00  0.00     0.156 S 
ATOM     42  C5  SGN d 403      31.851 -68.743  68.210  0.00  0.00     0.066 C 
ATOM     43  H   SGN d 403      31.988 -72.561  68.927  0.00  0.00     0.210 HD
ATOM     44  H   SGN d 403      28.982 -72.597  70.397  0.00  0.00     0.231 HD
ATOM     45  H   SGN d 403      30.048 -71.691  69.737  0.00  0.00     0.076 H 
ATOM     46  H   SGN d 403      32.308 -71.053  70.686  0.00  0.00     0.085 H 
ATOM     47  H   SGN d 403      29.347 -69.291  70.828  0.00  0.00     0.140 HD
ATOM     48  H   SGN d 403      33.590 -69.475  69.201  0.00  0.00     0.040 H 
ATOM     49  H   SGN d 403      32.408 -68.731  70.264  0.00  0.00     0.040 H 
ATOM     50  H   SGN d 403      32.833 -67.275  66.997  0.00  0.00     0.080 H 
ATOM     51  H   SGN d 403      33.865 -68.593  67.500  0.00  0.00     0.080 H 
ATOM     52  H   SGN d 403      27.285 -70.851  70.973  0.00  0.00     0.231 HD
ATOM     53  H   SGN d 403      29.110 -70.512  68.083  0.00  0.00     0.131 H 
ATOM     54  H   SGN d 403      30.531 -71.418  73.385  0.00  0.00     0.231 HD
ATOM     55  H   SGN d 403      31.316 -67.873  68.531  0.00  0.00     0.086 H 
ENDROOT
TORSDOF 16
ENDMDL
MODEL 65
REMARK VINA RESULT:      -3.3      3.278      7.073
REMARK  0 active torsions:
REMARK  status: ('A' for Active; 'I' for Inactive)
REMARK       I    between atoms: O2_1  and  C2_31 
REMARK       I    between atoms: O2_1  and  S_34 
REMARK       I    between atoms: C5_3  and  C6_33 
REMARK       I    between atoms: O3_5  and  C3_13 
REMARK       I    between atoms: O3S_6  and  S1_32 
REMARK       I    between atoms: O1_7  and  C4_23 
REMARK       I    between atoms: O1_7  and  C1_27 
REMARK       I    between atoms: O6_8  and  C6_21 
REMARK       I    between atoms: O6_8  and  S2_24 
REMARK       I    between atoms: C1_9  and  O1_30 
REMARK       I    between atoms: C2_12  and  N_14 
REMARK       I    between atoms: N_14  and  S1_32 
REMARK       I    between atoms: C3_16  and  O3_29 
REMARK       I    between atoms: C6_21  and  C5_35 
REMARK       I    between atoms: O2S_26  and  S1_32 
REMARK       I    between atoms: O1S_28  and  S1_32 
ROOT
ATOM      1  O2  IDS d 402      22.772 -70.816  68.261  0.00  0.00    -0.244 OA
ATOM      2  C5  IDS d 402      25.019 -67.644  66.781  0.00  0.00     0.152 C 
ATOM      3  C1  IDS d 402      23.031 -68.911  66.775  0.00  0.00     0.158 C 
ATOM      4  O5  IDS d 402      23.636 -67.667  67.179  0.00  0.00    -0.340 OA
ATOM      5  O61 IDS d 402      25.551 -65.717  68.119  0.00  0.00    -0.646 OA
ATOM      6  C3  IDS d 402      24.837 -69.552  68.394  0.00  0.00     0.094 C 
ATOM      7  O62 IDS d 402      26.033 -65.653  65.916  0.00  0.00    -0.646 OA
ATOM      8  O3S IDS d 402      20.503 -71.136  69.318  0.00  0.00    -0.572 OA
ATOM      9  O2S IDS d 402      20.794 -71.473  66.840  0.00  0.00    -0.572 OA
ATOM     10  C4  IDS d 402      25.805 -68.651  67.625  0.00  0.00     0.103 C 
ATOM     11  O1S IDS d 402      20.931 -69.168  67.827  0.00  0.00    -0.572 OA
ATOM     12  O3  IDS d 402      25.553 -70.668  68.939  0.00  0.00    -0.390 OA
ATOM     13  O1  IDS d 402      23.133 -69.075  65.342  0.00  0.00    -0.368 OA
ATOM     14  C2  IDS d 402      23.729 -70.072  67.475  0.00  0.00     0.134 C 
ATOM     15  C6  IDS d 402      25.588 -66.217  66.956  0.00  0.00     0.206 C 
ATOM     16  S   IDS d 402      21.252 -70.648  68.061  0.00  0.00     0.252 S 
ATOM     17  H   IDS d 402      25.107 -67.916  65.750  0.00  0.00     0.104 H 
ATOM     18  H   IDS d 402      21.997 -68.897  67.049  0.00  0.00     0.133 H 
ATOM     19  H   IDS d 402      24.393 -68.977  69.179  0.00  0.00     0.091 H 
ATOM     20  H   IDS d 402      26.408 -69.256  66.979  0.00  0.00     0.092 H 
ATOM     21  H   IDS d 402      25.951 -71.180  68.218  0.00  0.00     0.210 HD
ATOM     22  H   IDS d 402      24.068 -69.089  65.084  0.00  0.00     0.212 HD
ATOM     23  H   IDS d 402      24.160 -70.708  66.730  0.00  0.00     0.097 H 
ATOM     24  O4S SGN d 403      30.038 -69.970  63.439  0.00  0.00    -0.572 OA
ATOM     25  O5  SGN d 403      28.747 -68.578  67.623  0.00  0.00    -0.352 OA
ATOM     26  O3  SGN d 403      30.917 -68.284  69.197  0.00  0.00    -0.394 OA
ATOM     27  O3S SGN d 403      28.602 -68.648  72.583  0.00  0.00    -0.296 OA
ATOM     28  O1  SGN d 403      26.658 -67.948  68.551  0.00  0.00    -0.348 OA
ATOM     29  O6  SGN d 403      29.956 -68.472  65.440  0.00  0.00    -0.254 OA
ATOM     30  O5S SGN d 403      28.165 -70.187  65.069  0.00  0.00    -0.572 OA
ATOM     31  C2  SGN d 403      28.626 -68.009  69.966  0.00  0.00     0.079 C 
ATOM     32  C3  SGN d 403      29.910 -67.304  69.504  0.00  0.00     0.058 C 
ATOM     33  N   SGN d 403      27.740 -67.082  70.691  0.00  0.00    -0.210 NA
ATOM     34  O6S SGN d 403      28.301 -68.184  63.579  0.00  0.00    -0.572 OA
ATOM     35  C4  SGN d 403      29.649 -66.427  68.275  0.00  0.00    -0.013 C 
ATOM     36  C6  SGN d 403      29.628 -67.144  65.873  0.00  0.00     0.064 C 
ATOM     37  S2  SGN d 403      29.115 -69.201  64.384  0.00  0.00     0.251 S 
ATOM     38  O2S SGN d 403      26.160 -68.135  72.480  0.00  0.00    -0.296 OA
ATOM     39  C1  SGN d 403      27.903 -68.645  68.781  0.00  0.00     0.150 C 
ATOM     40  O1S SGN d 403      27.776 -66.371  73.194  0.00  0.00    -0.296 OA
ATOM     41  S1  SGN d 403      27.565 -67.568  72.263  0.00  0.00     0.156 S 
ATOM     42  C5  SGN d 403      28.885 -67.210  67.213  0.00  0.00     0.066 C 
ATOM     43  H   SGN d 403      31.078 -68.836  69.978  0.00  0.00     0.210 HD
ATOM     44  H   SGN d 403      28.469 -69.407  71.994  0.00  0.00     0.231 HD
ATOM     45  H   SGN d 403      28.903 -68.789  70.644  0.00  0.00     0.076 H 
ATOM     46  H   SGN d 403      30.250 -66.672  70.297  0.00  0.00     0.085 H 
ATOM     47  H   SGN d 403      26.825 -67.068  70.239  0.00  0.00     0.140 HD
ATOM     48  H   SGN d 403      30.584 -66.104  67.869  0.00  0.00     0.040 H 
ATOM     49  H   SGN d 403      29.063 -65.582  68.571  0.00  0.00     0.040 H 
ATOM     50  H   SGN d 403      29.003 -66.676  65.141  0.00  0.00     0.080 H 
ATOM     51  H   SGN d 403      30.526 -66.576  65.992  0.00  0.00     0.080 H 
ATOM     52  H   SGN d 403      26.022 -68.894  71.891  0.00  0.00     0.231 HD
ATOM     53  H   SGN d 403      27.685 -69.672  68.988  0.00  0.00     0.131 H 
ATOM     54  H   SGN d 403      28.666 -66.009  73.059  0.00  0.00     0.231 HD
ATOM     55  H   SGN d 403      27.914 -66.776  67.094  0.00  0.00     0.086 H 
ENDROOT
TORSDOF 16
ENDMDL
MODEL 66
REMARK VINA RESULT:      -3.3      3.183      6.819
REMARK  0 active torsions:
REMARK  status: ('A' for Active; 'I' for Inactive)
REMARK       I    between atoms: O2_1  and  C2_31 
REMARK       I    between atoms: O2_1  and  S_34 
REMARK       I    between atoms: C5_3  and  C6_33 
REMARK       I    between atoms: O3_5  and  C3_13 
REMARK       I    between atoms: O3S_6  and  S1_32 
REMARK       I    between atoms: O1_7  and  C4_23 
REMARK       I    between atoms: O1_7  and  C1_27 
REMARK       I    between atoms: O6_8  and  C6_21 
REMARK       I    between atoms: O6_8  and  S2_24 
REMARK       I    between atoms: C1_9  and  O1_30 
REMARK       I    between atoms: C2_12  and  N_14 
REMARK       I    between atoms: N_14  and  S1_32 
REMARK       I    between atoms: C3_16  and  O3_29 
REMARK       I    between atoms: C6_21  and  C5_35 
REMARK       I    between atoms: O2S_26  and  S1_32 
REMARK       I    between atoms: O1S_28  and  S1_32 
ROOT
ATOM      1  O2  IDS d 402      23.497 -65.612  69.246  0.00  0.00    -0.244 OA
ATOM      2  C5  IDS d 402      26.616 -67.868  67.666  0.00  0.00     0.152 C 
ATOM      3  C1  IDS d 402      24.364 -67.172  67.596  0.00  0.00     0.158 C 
ATOM      4  O5  IDS d 402      25.661 -67.037  66.981  0.00  0.00    -0.340 OA
ATOM      5  O61 IDS d 402      28.520 -66.853  66.604  0.00  0.00    -0.646 OA
ATOM      6  C3  IDS d 402      25.843 -66.215  69.382  0.00  0.00     0.094 C 
ATOM      7  O62 IDS d 402      28.288 -69.093  66.464  0.00  0.00    -0.646 OA
ATOM      8  O3S IDS d 402      21.885 -63.858  68.419  0.00  0.00    -0.572 OA
ATOM      9  O2S IDS d 402      21.197 -66.279  68.456  0.00  0.00    -0.572 OA
ATOM     10  C4  IDS d 402      26.879 -67.293  69.060  0.00  0.00     0.103 C 
ATOM     11  O1S IDS d 402      22.915 -65.479  66.809  0.00  0.00    -0.572 OA
ATOM     12  O3  IDS d 402      25.904 -65.893  70.778  0.00  0.00    -0.390 OA
ATOM     13  O1  IDS d 402      23.933 -68.552  67.557  0.00  0.00    -0.368 OA
ATOM     14  C2  IDS d 402      24.431 -66.698  69.044  0.00  0.00     0.134 C 
ATOM     15  C6  IDS d 402      27.923 -67.944  66.845  0.00  0.00     0.206 C 
ATOM     16  S   IDS d 402      22.375 -65.308  68.233  0.00  0.00     0.252 S 
ATOM     17  H   IDS d 402      26.227 -68.860  67.771  0.00  0.00     0.104 H 
ATOM     18  H   IDS d 402      23.661 -66.574  67.055  0.00  0.00     0.133 H 
ATOM     19  H   IDS d 402      26.062 -65.349  68.792  0.00  0.00     0.091 H 
ATOM     20  H   IDS d 402      26.805 -68.077  69.784  0.00  0.00     0.092 H 
ATOM     21  H   IDS d 402      25.704 -66.686  71.300  0.00  0.00     0.210 HD
ATOM     22  H   IDS d 402      24.565 -69.102  68.045  0.00  0.00     0.212 HD
ATOM     23  H   IDS d 402      24.178 -67.519  69.682  0.00  0.00     0.097 H 
ATOM     24  O4S SGN d 403      28.143 -72.585  71.812  0.00  0.00    -0.572 OA
ATOM     25  O5  SGN d 403      29.169 -68.264  70.632  0.00  0.00    -0.352 OA
ATOM     26  O3  SGN d 403      31.452 -67.504  71.849  0.00  0.00    -0.394 OA
ATOM     27  O3S SGN d 403      30.453 -63.534  71.407  0.00  0.00    -0.296 OA
ATOM     28  O1  SGN d 403      28.205 -66.726  69.108  0.00  0.00    -0.348 OA
ATOM     29  O6  SGN d 403      29.523 -70.726  70.866  0.00  0.00    -0.254 OA
ATOM     30  O5S SGN d 403      27.058 -70.422  71.212  0.00  0.00    -0.572 OA
ATOM     31  C2  SGN d 403      30.083 -66.035  70.477  0.00  0.00     0.079 C 
ATOM     32  C3  SGN d 403      31.337 -66.920  70.540  0.00  0.00     0.058 C 
ATOM     33  N   SGN d 403      30.150 -65.095  69.345  0.00  0.00    -0.210 NA
ATOM     34  O6S SGN d 403      27.885 -71.948  69.413  0.00  0.00    -0.572 OA
ATOM     35  C4  SGN d 403      31.287 -68.027  69.482  0.00  0.00    -0.013 C 
ATOM     36  C6  SGN d 403      30.162 -70.260  69.669  0.00  0.00     0.064 C 
ATOM     37  S2  SGN d 403      28.154 -71.419  70.824  0.00  0.00     0.251 S 
ATOM     38  O2S SGN d 403      28.853 -62.847  69.616  0.00  0.00    -0.296 OA
ATOM     39  C1  SGN d 403      28.821 -66.892  70.405  0.00  0.00     0.150 C 
ATOM     40  O1S SGN d 403      31.312 -62.772  69.187  0.00  0.00    -0.296 OA
ATOM     41  S1  SGN d 403      30.191 -63.536  69.898  0.00  0.00     0.156 S 
ATOM     42  C5  SGN d 403      29.944 -68.749  69.526  0.00  0.00     0.066 C 
ATOM     43  H   SGN d 403      31.484 -66.800  72.515  0.00  0.00     0.210 HD
ATOM     44  H   SGN d 403      29.744 -64.017  71.858  0.00  0.00     0.231 HD
ATOM     45  H   SGN d 403      30.041 -65.457  71.377  0.00  0.00     0.076 H 
ATOM     46  H   SGN d 403      32.190 -66.307  70.340  0.00  0.00     0.085 H 
ATOM     47  H   SGN d 403      29.328 -65.221  68.754  0.00  0.00     0.140 HD
ATOM     48  H   SGN d 403      32.071 -68.730  69.671  0.00  0.00     0.040 H 
ATOM     49  H   SGN d 403      31.412 -67.587  68.514  0.00  0.00     0.040 H 
ATOM     50  H   SGN d 403      29.743 -70.763  68.823  0.00  0.00     0.080 H 
ATOM     51  H   SGN d 403      31.211 -70.464  69.723  0.00  0.00     0.080 H 
ATOM     52  H   SGN d 403      28.141 -63.329  70.064  0.00  0.00     0.231 HD
ATOM     53  H   SGN d 403      28.122 -66.586  71.155  0.00  0.00     0.131 H 
ATOM     54  H   SGN d 403      32.161 -63.205  69.364  0.00  0.00     0.231 HD
ATOM     55  H   SGN d 403      29.418 -68.558  68.614  0.00  0.00     0.086 H 
ENDROOT
TORSDOF 16
ENDMDL
MODEL 67
REMARK VINA RESULT:      -3.3      2.921      6.822
REMARK  0 active torsions:
REMARK  status: ('A' for Active; 'I' for Inactive)
REMARK       I    between atoms: O2_1  and  C2_31 
REMARK       I    between atoms: O2_1  and  S_34 
REMARK       I    between atoms: C5_3  and  C6_33 
REMARK       I    between atoms: O3_5  and  C3_13 
REMARK       I    between atoms: O3S_6  and  S1_32 
REMARK       I    between atoms: O1_7  and  C4_23 
REMARK       I    between atoms: O1_7  and  C1_27 
REMARK       I    between atoms: O6_8  and  C6_21 
REMARK       I    between atoms: O6_8  and  S2_24 
REMARK       I    between atoms: C1_9  and  O1_30 
REMARK       I    between atoms: C2_12  and  N_14 
REMARK       I    between atoms: N_14  and  S1_32 
REMARK       I    between atoms: C3_16  and  O3_29 
REMARK       I    between atoms: C6_21  and  C5_35 
REMARK       I    between atoms: O2S_26  and  S1_32 
REMARK       I    between atoms: O1S_28  and  S1_32 
ROOT
ATOM      1  O2  IDS d 402      28.690 -68.515  71.104  0.00  0.00    -0.244 OA
ATOM      2  C5  IDS d 402      28.276 -68.528  66.963  0.00  0.00     0.152 C 
ATOM      3  C1  IDS d 402      27.324 -68.764  69.108  0.00  0.00     0.158 C 
ATOM      4  O5  IDS d 402      27.440 -67.905  67.956  0.00  0.00    -0.340 OA
ATOM      5  O61 IDS d 402      28.501 -66.528  65.648  0.00  0.00    -0.646 OA
ATOM      6  C3  IDS d 402      29.763 -68.196  68.952  0.00  0.00     0.094 C 
ATOM      7  O62 IDS d 402      27.749 -68.395  64.630  0.00  0.00    -0.646 OA
ATOM      8  O3S IDS d 402      27.641 -67.315  73.059  0.00  0.00    -0.572 OA
ATOM      9  O2S IDS d 402      26.782 -69.578  72.366  0.00  0.00    -0.572 OA
ATOM     10  C4  IDS d 402      29.721 -68.558  67.466  0.00  0.00     0.103 C 
ATOM     11  O1S IDS d 402      26.372 -67.572  70.913  0.00  0.00    -0.572 OA
ATOM     12  O3  IDS d 402      31.056 -68.511  69.485  0.00  0.00    -0.390 OA
ATOM     13  O1  IDS d 402      26.765 -70.042  68.726  0.00  0.00    -0.368 OA
ATOM     14  C2  IDS d 402      28.700 -68.973  69.732  0.00  0.00     0.134 C 
ATOM     15  C6  IDS d 402      28.171 -67.751  65.632  0.00  0.00     0.206 C 
ATOM     16  S   IDS d 402      27.372 -68.246  71.858  0.00  0.00     0.252 S 
ATOM     17  H   IDS d 402      27.950 -69.533  66.792  0.00  0.00     0.104 H 
ATOM     18  H   IDS d 402      26.674 -68.300  69.820  0.00  0.00     0.133 H 
ATOM     19  H   IDS d 402      29.566 -67.149  69.050  0.00  0.00     0.091 H 
ATOM     20  H   IDS d 402      30.119 -69.543  67.335  0.00  0.00     0.092 H 
ATOM     21  H   IDS d 402      31.222 -69.462  69.390  0.00  0.00     0.210 HD
ATOM     22  H   IDS d 402      27.348 -70.469  68.080  0.00  0.00     0.212 HD
ATOM     23  H   IDS d 402      28.932 -70.017  69.699  0.00  0.00     0.097 H 
ATOM     24  O4S SGN d 403      31.417 -73.625  64.528  0.00  0.00    -0.572 OA
ATOM     25  O5  SGN d 403      31.906 -69.182  65.596  0.00  0.00    -0.352 OA
ATOM     26  O3  SGN d 403      34.191 -68.232  64.524  0.00  0.00    -0.394 OA
ATOM     27  O3S SGN d 403      34.276 -65.150  67.252  0.00  0.00    -0.296 OA
ATOM     28  O1  SGN d 403      30.516 -67.620  66.713  0.00  0.00    -0.348 OA
ATOM     29  O6  SGN d 403      31.693 -71.175  64.105  0.00  0.00    -0.254 OA
ATOM     30  O5S SGN d 403      30.905 -71.992  66.341  0.00  0.00    -0.572 OA
ATOM     31  C2  SGN d 403      32.724 -66.943  65.974  0.00  0.00     0.079 C 
ATOM     32  C3  SGN d 403      33.158 -67.231  64.529  0.00  0.00     0.058 C 
ATOM     33  N   SGN d 403      32.012 -65.658  66.071  0.00  0.00    -0.210 NA
ATOM     34  O6S SGN d 403      29.402 -72.163  64.350  0.00  0.00    -0.572 OA
ATOM     35  C4  SGN d 403      31.974 -67.704  63.679  0.00  0.00    -0.013 C 
ATOM     36  C6  SGN d 403      31.083 -70.038  63.478  0.00  0.00     0.064 C 
ATOM     37  S2  SGN d 403      30.854 -72.236  64.830  0.00  0.00     0.251 S 
ATOM     38  O2S SGN d 403      32.162 -64.409  68.357  0.00  0.00    -0.296 OA
ATOM     39  C1  SGN d 403      31.871 -68.085  66.520  0.00  0.00     0.150 C 
ATOM     40  O1S SGN d 403      32.967 -63.247  66.298  0.00  0.00    -0.296 OA
ATOM     41  S1  SGN d 403      32.868 -64.598  67.011  0.00  0.00     0.156 S 
ATOM     42  C5  SGN d 403      31.213 -68.815  64.394  0.00  0.00     0.066 C 
ATOM     43  H   SGN d 403      34.937 -67.929  65.062  0.00  0.00     0.210 HD
ATOM     44  H   SGN d 403      34.215 -66.006  67.704  0.00  0.00     0.231 HD
ATOM     45  H   SGN d 403      33.607 -66.871  66.575  0.00  0.00     0.076 H 
ATOM     46  H   SGN d 403      33.532 -66.324  64.104  0.00  0.00     0.085 H 
ATOM     47  H   SGN d 403      31.094 -65.812  66.488  0.00  0.00     0.140 HD
ATOM     48  H   SGN d 403      32.338 -68.072  62.743  0.00  0.00     0.040 H 
ATOM     49  H   SGN d 403      31.312 -66.878  63.519  0.00  0.00     0.040 H 
ATOM     50  H   SGN d 403      30.048 -70.243  63.301  0.00  0.00     0.080 H 
ATOM     51  H   SGN d 403      31.572 -69.840  62.548  0.00  0.00     0.080 H 
ATOM     52  H   SGN d 403      32.097 -65.263  68.812  0.00  0.00     0.231 HD
ATOM     53  H   SGN d 403      32.255 -68.417  67.462  0.00  0.00     0.131 H 
ATOM     54  H   SGN d 403      33.414 -63.364  65.445  0.00  0.00     0.231 HD
ATOM     55  H   SGN d 403      30.234 -68.461  64.643  0.00  0.00     0.086 H 
ENDROOT
TORSDOF 16
ENDMDL
MODEL 68
REMARK VINA RESULT:      -3.3      3.633      7.726
REMARK  0 active torsions:
REMARK  status: ('A' for Active; 'I' for Inactive)
REMARK       I    between atoms: O2_1  and  C2_31 
REMARK       I    between atoms: O2_1  and  S_34 
REMARK       I    between atoms: C5_3  and  C6_33 
REMARK       I    between atoms: O3_5  and  C3_13 
REMARK       I    between atoms: O3S_6  and  S1_32 
REMARK       I    between atoms: O1_7  and  C4_23 
REMARK       I    between atoms: O1_7  and  C1_27 
REMARK       I    between atoms: O6_8  and  C6_21 
REMARK       I    between atoms: O6_8  and  S2_24 
REMARK       I    between atoms: C1_9  and  O1_30 
REMARK       I    between atoms: C2_12  and  N_14 
REMARK       I    between atoms: N_14  and  S1_32 
REMARK       I    between atoms: C3_16  and  O3_29 
REMARK       I    between atoms: C6_21  and  C5_35 
REMARK       I    between atoms: O2S_26  and  S1_32 
REMARK       I    between atoms: O1S_28  and  S1_32 
ROOT
ATOM      1  O2  IDS d 402      28.071 -66.246  71.689  0.00  0.00    -0.244 OA
ATOM      2  C5  IDS d 402      24.594 -67.074  69.560  0.00  0.00     0.152 C 
ATOM      3  C1  IDS d 402      25.684 -65.959  71.328  0.00  0.00     0.158 C 
ATOM      4  O5  IDS d 402      25.093 -65.806  70.023  0.00  0.00    -0.340 OA
ATOM      5  O61 IDS d 402      24.264 -66.315  67.301  0.00  0.00    -0.646 OA
ATOM      6  C3  IDS d 402      27.066 -67.397  69.806  0.00  0.00     0.094 C 
ATOM      7  O62 IDS d 402      22.514 -67.240  68.383  0.00  0.00    -0.646 OA
ATOM      8  O3S IDS d 402      29.375 -64.195  72.369  0.00  0.00    -0.572 OA
ATOM      9  O2S IDS d 402      27.706 -65.208  73.959  0.00  0.00    -0.572 OA
ATOM     10  C4  IDS d 402      25.774 -67.999  69.251  0.00  0.00     0.103 C 
ATOM     11  O1S IDS d 402      26.921 -64.024  71.888  0.00  0.00    -0.572 OA
ATOM     12  O3  IDS d 402      28.104 -68.386  69.782  0.00  0.00    -0.390 OA
ATOM     13  O1  IDS d 402      24.709 -66.475  72.263  0.00  0.00    -0.368 OA
ATOM     14  C2  IDS d 402      26.869 -66.915  71.245  0.00  0.00     0.134 C 
ATOM     15  C6  IDS d 402      23.718 -66.862  68.305  0.00  0.00     0.206 C 
ATOM     16  S   IDS d 402      28.017 -64.920  72.475  0.00  0.00     0.252 S 
ATOM     17  H   IDS d 402      23.991 -67.527  70.318  0.00  0.00     0.104 H 
ATOM     18  H   IDS d 402      26.020 -65.002  71.670  0.00  0.00     0.133 H 
ATOM     19  H   IDS d 402      27.338 -66.560  69.196  0.00  0.00     0.091 H 
ATOM     20  H   IDS d 402      25.606 -68.950  69.713  0.00  0.00     0.092 H 
ATOM     21  H   IDS d 402      27.846 -69.138  70.338  0.00  0.00     0.210 HD
ATOM     22  H   IDS d 402      24.399 -67.343  71.961  0.00  0.00     0.212 HD
ATOM     23  H   IDS d 402      26.670 -67.758  71.874  0.00  0.00     0.097 H 
ATOM     24  O4S SGN d 403      22.939 -73.249  70.510  0.00  0.00    -0.572 OA
ATOM     25  O5  SGN d 403      25.328 -70.478  67.729  0.00  0.00    -0.352 OA
ATOM     26  O3  SGN d 403      26.017 -71.809  65.487  0.00  0.00    -0.394 OA
ATOM     27  O3S SGN d 403      29.093 -69.166  64.776  0.00  0.00    -0.296 OA
ATOM     28  O1  SGN d 403      25.891 -68.177  67.825  0.00  0.00    -0.348 OA
ATOM     29  O6  SGN d 403      23.466 -71.999  68.408  0.00  0.00    -0.254 OA
ATOM     30  O5S SGN d 403      24.550 -71.348  70.573  0.00  0.00    -0.572 OA
ATOM     31  C2  SGN d 403      26.720 -69.537  65.997  0.00  0.00     0.079 C 
ATOM     32  C3  SGN d 403      25.742 -70.424  65.211  0.00  0.00     0.058 C 
ATOM     33  N   SGN d 403      26.777 -68.177  65.434  0.00  0.00    -0.210 NA
ATOM     34  O6S SGN d 403      22.114 -70.912  70.218  0.00  0.00    -0.572 OA
ATOM     35  C4  SGN d 403      24.289 -70.102  65.574  0.00  0.00    -0.013 C 
ATOM     36  C6  SGN d 403      22.968 -71.003  67.504  0.00  0.00     0.064 C 
ATOM     37  S2  SGN d 403      23.267 -71.875  69.925  0.00  0.00     0.251 S 
ATOM     38  O2S SGN d 403      29.011 -66.870  65.757  0.00  0.00    -0.296 OA
ATOM     39  C1  SGN d 403      26.349 -69.503  67.477  0.00  0.00     0.150 C 
ATOM     40  O1S SGN d 403      28.175 -67.266  63.438  0.00  0.00    -0.296 OA
ATOM     41  S1  SGN d 403      28.290 -67.864  64.842  0.00  0.00     0.156 S 
ATOM     42  C5  SGN d 403      24.111 -70.069  67.088  0.00  0.00     0.066 C 
ATOM     43  H   SGN d 403      26.937 -72.008  65.256  0.00  0.00     0.210 HD
ATOM     44  H   SGN d 403      29.166 -69.546  65.665  0.00  0.00     0.231 HD
ATOM     45  H   SGN d 403      27.697 -69.965  65.909  0.00  0.00     0.076 H 
ATOM     46  H   SGN d 403      25.876 -70.229  64.168  0.00  0.00     0.085 H 
ATOM     47  H   SGN d 403      26.554 -67.501  66.165  0.00  0.00     0.140 HD
ATOM     48  H   SGN d 403      23.649 -70.852  65.160  0.00  0.00     0.040 H 
ATOM     49  H   SGN d 403      24.038 -69.141  65.175  0.00  0.00     0.040 H 
ATOM     50  H   SGN d 403      22.201 -70.435  67.989  0.00  0.00     0.080 H 
ATOM     51  H   SGN d 403      22.565 -71.481  66.636  0.00  0.00     0.080 H 
ATOM     52  H   SGN d 403      29.086 -67.246  66.648  0.00  0.00     0.231 HD
ATOM     53  H   SGN d 403      27.203 -69.737  68.078  0.00  0.00     0.131 H 
ATOM     54  H   SGN d 403      27.719 -67.893  62.855  0.00  0.00     0.231 HD
ATOM     55  H   SGN d 403      23.870 -69.070  67.388  0.00  0.00     0.086 H 
ENDROOT
TORSDOF 16
ENDMDL
MODEL 69
REMARK VINA RESULT:      -3.3      3.400      7.299
REMARK  0 active torsions:
REMARK  status: ('A' for Active; 'I' for Inactive)
REMARK       I    between atoms: O2_1  and  C2_31 
REMARK       I    between atoms: O2_1  and  S_34 
REMARK       I    between atoms: C5_3  and  C6_33 
REMARK       I    between atoms: O3_5  and  C3_13 
REMARK       I    between atoms: O3S_6  and  S1_32 
REMARK       I    between atoms: O1_7  and  C4_23 
REMARK       I    between atoms: O1_7  and  C1_27 
REMARK       I    between atoms: O6_8  and  C6_21 
REMARK       I    between atoms: O6_8  and  S2_24 
REMARK       I    between atoms: C1_9  and  O1_30 
REMARK       I    between atoms: C2_12  and  N_14 
REMARK       I    between atoms: N_14  and  S1_32 
REMARK       I    between atoms: C3_16  and  O3_29 
REMARK       I    between atoms: C6_21  and  C5_35 
REMARK       I    between atoms: O2S_26  and  S1_32 
REMARK       I    between atoms: O1S_28  and  S1_32 
ROOT
ATOM      1  O2  IDS d 402      28.368 -64.504  69.088  0.00  0.00    -0.244 OA
ATOM      2  C5  IDS d 402      27.450 -68.514  69.711  0.00  0.00     0.152 C 
ATOM      3  C1  IDS d 402      28.658 -66.582  70.316  0.00  0.00     0.158 C 
ATOM      4  O5  IDS d 402      27.565 -67.450  70.674  0.00  0.00    -0.340 OA
ATOM      5  O61 IDS d 402      25.291 -69.225  70.498  0.00  0.00    -0.646 OA
ATOM      6  C3  IDS d 402      27.032 -66.412  68.414  0.00  0.00     0.094 C 
ATOM      7  O62 IDS d 402      26.945 -70.756  70.387  0.00  0.00    -0.646 OA
ATOM      8  O3S IDS d 402      28.349 -62.375  70.441  0.00  0.00    -0.572 OA
ATOM      9  O2S IDS d 402      30.475 -63.707  70.225  0.00  0.00    -0.572 OA
ATOM     10  C4  IDS d 402      26.957 -67.940  68.380  0.00  0.00     0.103 C 
ATOM     11  O1S IDS d 402      28.561 -64.593  71.588  0.00  0.00    -0.572 OA
ATOM     12  O3  IDS d 402      26.860 -65.896  67.087  0.00  0.00    -0.390 OA
ATOM     13  O1  IDS d 402      29.894 -67.330  70.259  0.00  0.00    -0.368 OA
ATOM     14  C2  IDS d 402      28.383 -65.944  68.959  0.00  0.00     0.134 C 
ATOM     15  C6  IDS d 402      26.476 -69.592  70.240  0.00  0.00     0.206 C 
ATOM     16  S   IDS d 402      28.938 -63.797  70.335  0.00  0.00     0.252 S 
ATOM     17  H   IDS d 402      28.405 -68.971  69.556  0.00  0.00     0.104 H 
ATOM     18  H   IDS d 402      28.750 -65.818  71.059  0.00  0.00     0.133 H 
ATOM     19  H   IDS d 402      26.256 -66.050  69.056  0.00  0.00     0.091 H 
ATOM     20  H   IDS d 402      27.580 -68.303  67.588  0.00  0.00     0.092 H 
ATOM     21  H   IDS d 402      27.568 -66.231  66.515  0.00  0.00     0.210 HD
ATOM     22  H   IDS d 402      29.820 -68.026  69.587  0.00  0.00     0.212 HD
ATOM     23  H   IDS d 402      29.157 -66.240  68.281  0.00  0.00     0.097 H 
ATOM     24  O4S SGN d 403      29.709 -72.007  64.764  0.00  0.00    -0.572 OA
ATOM     25  O5  SGN d 403      25.998 -69.754  66.272  0.00  0.00    -0.352 OA
ATOM     26  O3  SGN d 403      23.869 -70.373  64.737  0.00  0.00    -0.394 OA
ATOM     27  O3S SGN d 403      21.945 -66.919  65.883  0.00  0.00    -0.296 OA
ATOM     28  O1  SGN d 403      25.597 -68.358  68.145  0.00  0.00    -0.348 OA
ATOM     29  O6  SGN d 403      27.386 -71.737  65.653  0.00  0.00    -0.254 OA
ATOM     30  O5S SGN d 403      29.040 -69.861  65.845  0.00  0.00    -0.572 OA
ATOM     31  C2  SGN d 403      23.826 -68.734  66.533  0.00  0.00     0.079 C 
ATOM     32  C3  SGN d 403      23.485 -70.171  66.108  0.00  0.00     0.058 C 
ATOM     33  N   SGN d 403      23.080 -68.345  67.742  0.00  0.00    -0.210 NA
ATOM     34  O6S SGN d 403      29.328 -71.923  67.229  0.00  0.00    -0.572 OA
ATOM     35  C4  SGN d 403      24.192 -71.195  67.000  0.00  0.00    -0.013 C 
ATOM     36  C6  SGN d 403      26.526 -72.076  66.750  0.00  0.00     0.064 C 
ATOM     37  S2  SGN d 403      28.863 -71.382  65.875  0.00  0.00     0.251 S 
ATOM     38  O2S SGN d 403      22.567 -65.803  68.030  0.00  0.00    -0.296 OA
ATOM     39  C1  SGN d 403      25.330 -68.575  66.741  0.00  0.00     0.150 C 
ATOM     40  O1S SGN d 403      20.660 -67.414  67.969  0.00  0.00    -0.296 OA
ATOM     41  S1  SGN d 403      22.046 -67.098  67.401  0.00  0.00     0.156 S 
ATOM     42  C5  SGN d 403      25.674 -70.859  67.130  0.00  0.00     0.066 C 
ATOM     43  H   SGN d 403      23.419 -69.723  64.176  0.00  0.00     0.210 HD
ATOM     44  H   SGN d 403      22.822 -66.718  65.522  0.00  0.00     0.231 HD
ATOM     45  H   SGN d 403      23.528 -68.077  65.742  0.00  0.00     0.076 H 
ATOM     46  H   SGN d 403      22.430 -70.310  66.212  0.00  0.00     0.085 H 
ATOM     47  H   SGN d 403      23.738 -68.048  68.463  0.00  0.00     0.140 HD
ATOM     48  H   SGN d 403      24.089 -72.168  66.569  0.00  0.00     0.040 H 
ATOM     49  H   SGN d 403      23.746 -71.173  67.973  0.00  0.00     0.040 H 
ATOM     50  H   SGN d 403      27.120 -72.372  67.589  0.00  0.00     0.080 H 
ATOM     51  H   SGN d 403      25.885 -72.883  66.463  0.00  0.00     0.080 H 
ATOM     52  H   SGN d 403      23.445 -65.600  67.672  0.00  0.00     0.231 HD
ATOM     53  H   SGN d 403      25.693 -67.733  66.190  0.00  0.00     0.131 H 
ATOM     54  H   SGN d 403      20.327 -68.234  67.572  0.00  0.00     0.231 HD
ATOM     55  H   SGN d 403      25.882 -70.592  68.145  0.00  0.00     0.086 H 
ENDROOT
TORSDOF 16
ENDMDL
MODEL 70
REMARK VINA RESULT:      -3.3      3.377      7.081
REMARK  0 active torsions:
REMARK  status: ('A' for Active; 'I' for Inactive)
REMARK       I    between atoms: O2_1  and  C2_31 
REMARK       I    between atoms: O2_1  and  S_34 
REMARK       I    between atoms: C5_3  and  C6_33 
REMARK       I    between atoms: O3_5  and  C3_13 
REMARK       I    between atoms: O3S_6  and  S1_32 
REMARK       I    between atoms: O1_7  and  C4_23 
REMARK       I    between atoms: O1_7  and  C1_27 
REMARK       I    between atoms: O6_8  and  C6_21 
REMARK       I    between atoms: O6_8  and  S2_24 
REMARK       I    between atoms: C1_9  and  O1_30 
REMARK       I    between atoms: C2_12  and  N_14 
REMARK       I    between atoms: N_14  and  S1_32 
REMARK       I    between atoms: C3_16  and  O3_29 
REMARK       I    between atoms: C6_21  and  C5_35 
REMARK       I    between atoms: O2S_26  and  S1_32 
REMARK       I    between atoms: O1S_28  and  S1_32 
ROOT
ATOM      1  O2  IDS d 402      22.961 -71.205  67.595  0.00  0.00    -0.244 OA
ATOM      2  C5  IDS d 402      25.521 -68.215  66.246  0.00  0.00     0.152 C 
ATOM      3  C1  IDS d 402      23.913 -69.880  65.793  0.00  0.00     0.158 C 
ATOM      4  O5  IDS d 402      24.147 -68.461  65.891  0.00  0.00    -0.340 OA
ATOM      5  O61 IDS d 402      25.154 -65.892  66.751  0.00  0.00    -0.646 OA
ATOM      6  C3  IDS d 402      24.564 -69.483  68.184  0.00  0.00     0.094 C 
ATOM      7  O62 IDS d 402      26.760 -66.419  65.257  0.00  0.00    -0.646 OA
ATOM      8  O3S IDS d 402      20.500 -71.736  67.440  0.00  0.00    -0.572 OA
ATOM      9  O2S IDS d 402      22.113 -72.766  65.805  0.00  0.00    -0.572 OA
ATOM     10  C4  IDS d 402      25.757 -68.661  67.691  0.00  0.00     0.103 C 
ATOM     11  O1S IDS d 402      21.592 -70.312  65.691  0.00  0.00    -0.572 OA
ATOM     12  O3  IDS d 402      24.910 -70.142  69.409  0.00  0.00    -0.390 OA
ATOM     13  O1  IDS d 402      24.790 -70.465  64.803  0.00  0.00    -0.368 OA
ATOM     14  C2  IDS d 402      24.162 -70.535  67.148  0.00  0.00     0.134 C 
ATOM     15  C6  IDS d 402      25.841 -66.713  66.074  0.00  0.00     0.206 C 
ATOM     16  S   IDS d 402      21.794 -71.504  66.633  0.00  0.00     0.252 S 
ATOM     17  H   IDS d 402      26.169 -68.773  65.603  0.00  0.00     0.104 H 
ATOM     18  H   IDS d 402      22.898 -70.043  65.498  0.00  0.00     0.133 H 
ATOM     19  H   IDS d 402      23.739 -68.819  68.340  0.00  0.00     0.091 H 
ATOM     20  H   IDS d 402      26.639 -69.267  67.733  0.00  0.00     0.092 H 
ATOM     21  H   IDS d 402      25.658 -70.739  69.254  0.00  0.00     0.210 HD
ATOM     22  H   IDS d 402      25.713 -70.322  65.064  0.00  0.00     0.212 HD
ATOM     23  H   IDS d 402      24.956 -71.245  67.041  0.00  0.00     0.097 H 
ATOM     24  O4S SGN d 403      31.641 -70.130  67.052  0.00  0.00    -0.572 OA
ATOM     25  O5  SGN d 403      28.214 -67.844  69.089  0.00  0.00    -0.352 OA
ATOM     26  O3  SGN d 403      29.155 -66.515  71.239  0.00  0.00    -0.394 OA
ATOM     27  O3S SGN d 403      25.382 -66.349  72.880  0.00  0.00    -0.296 OA
ATOM     28  O1  SGN d 403      25.935 -67.504  68.534  0.00  0.00    -0.348 OA
ATOM     29  O6  SGN d 403      30.415 -68.141  67.947  0.00  0.00    -0.254 OA
ATOM     30  O5S SGN d 403      29.191 -70.281  67.491  0.00  0.00    -0.572 OA
ATOM     31  C2  SGN d 403      26.808 -66.602  70.608  0.00  0.00     0.079 C 
ATOM     32  C3  SGN d 403      28.105 -65.780  70.586  0.00  0.00     0.058 C 
ATOM     33  N   SGN d 403      25.632 -65.750  70.359  0.00  0.00    -0.210 NA
ATOM     34  O6S SGN d 403      30.038 -68.900  65.587  0.00  0.00    -0.572 OA
ATOM     35  C4  SGN d 403      28.524 -65.443  69.152  0.00  0.00    -0.013 C 
ATOM     36  C6  SGN d 403      29.850 -66.875  67.578  0.00  0.00     0.064 C 
ATOM     37  S2  SGN d 403      30.320 -69.360  67.019  0.00  0.00     0.251 S 
ATOM     38  O2S SGN d 403      23.376 -66.538  71.404  0.00  0.00    -0.296 OA
ATOM     39  C1  SGN d 403      26.878 -67.748  69.601  0.00  0.00     0.150 C 
ATOM     40  O1S SGN d 403      24.264 -64.287  72.020  0.00  0.00    -0.296 OA
ATOM     41  S1  SGN d 403      24.646 -65.731  71.687  0.00  0.00     0.156 S 
ATOM     42  C5  SGN d 403      28.498 -66.694  68.280  0.00  0.00     0.066 C 
ATOM     43  H   SGN d 403      28.886 -66.726  72.146  0.00  0.00     0.210 HD
ATOM     44  H   SGN d 403      25.625 -67.265  72.671  0.00  0.00     0.231 HD
ATOM     45  H   SGN d 403      26.701 -67.024  71.586  0.00  0.00     0.076 H 
ATOM     46  H   SGN d 403      27.930 -64.862  71.107  0.00  0.00     0.085 H 
ATOM     47  H   SGN d 403      25.114 -66.116  69.560  0.00  0.00     0.140 HD
ATOM     48  H   SGN d 403      29.515 -65.040  69.160  0.00  0.00     0.040 H 
ATOM     49  H   SGN d 403      27.837 -64.726  68.751  0.00  0.00     0.040 H 
ATOM     50  H   SGN d 403      29.708 -66.844  66.518  0.00  0.00     0.080 H 
ATOM     51  H   SGN d 403      30.512 -66.090  67.875  0.00  0.00     0.080 H 
ATOM     52  H   SGN d 403      23.614 -67.454  71.193  0.00  0.00     0.231 HD
ATOM     53  H   SGN d 403      26.624 -68.673  70.075  0.00  0.00     0.131 H 
ATOM     54  H   SGN d 403      25.067 -63.773  72.201  0.00  0.00     0.231 HD
ATOM     55  H   SGN d 403      27.733 -66.584  67.539  0.00  0.00     0.086 H 
ENDROOT
TORSDOF 16
ENDMDL
MODEL 71
REMARK VINA RESULT:      -3.3      3.856      7.928
REMARK  0 active torsions:
REMARK  status: ('A' for Active; 'I' for Inactive)
REMARK       I    between atoms: O2_1  and  C2_31 
REMARK       I    between atoms: O2_1  and  S_34 
REMARK       I    between atoms: C5_3  and  C6_33 
REMARK       I    between atoms: O3_5  and  C3_13 
REMARK       I    between atoms: O3S_6  and  S1_32 
REMARK       I    between atoms: O1_7  and  C4_23 
REMARK       I    between atoms: O1_7  and  C1_27 
REMARK       I    between atoms: O6_8  and  C6_21 
REMARK       I    between atoms: O6_8  and  S2_24 
REMARK       I    between atoms: C1_9  and  O1_30 
REMARK       I    between atoms: C2_12  and  N_14 
REMARK       I    between atoms: N_14  and  S1_32 
REMARK       I    between atoms: C3_16  and  O3_29 
REMARK       I    between atoms: C6_21  and  C5_35 
REMARK       I    between atoms: O2S_26  and  S1_32 
REMARK       I    between atoms: O1S_28  and  S1_32 
ROOT
ATOM      1  O2  IDS d 402      22.799 -68.432  72.251  0.00  0.00    -0.244 OA
ATOM      2  C5  IDS d 402      23.480 -67.636  68.224  0.00  0.00     0.152 C 
ATOM      3  C1  IDS d 402      21.980 -68.072  69.991  0.00  0.00     0.158 C 
ATOM      4  O5  IDS d 402      22.504 -67.058  69.110  0.00  0.00    -0.340 OA
ATOM      5  O61 IDS d 402      24.301 -65.508  67.462  0.00  0.00    -0.646 OA
ATOM      6  C3  IDS d 402      24.428 -67.936  70.524  0.00  0.00     0.094 C 
ATOM      7  O62 IDS d 402      23.602 -66.998  65.919  0.00  0.00    -0.646 OA
ATOM      8  O3S IDS d 402      21.443 -67.429  74.127  0.00  0.00    -0.572 OA
ATOM      9  O2S IDS d 402      20.506 -69.340  72.782  0.00  0.00    -0.572 OA
ATOM     10  C4  IDS d 402      24.728 -68.014  69.026  0.00  0.00     0.103 C 
ATOM     11  O1S IDS d 402      20.756 -67.067  71.744  0.00  0.00    -0.572 OA
ATOM     12  O3  IDS d 402      25.485 -68.568  71.258  0.00  0.00    -0.390 OA
ATOM     13  O1  IDS d 402      21.378 -69.139  69.223  0.00  0.00    -0.368 OA
ATOM     14  C2  IDS d 402      23.106 -68.633  70.853  0.00  0.00     0.134 C 
ATOM     15  C6  IDS d 402      23.829 -66.628  67.106  0.00  0.00     0.206 C 
ATOM     16  S   IDS d 402      21.377 -68.068  72.724  0.00  0.00     0.252 S 
ATOM     17  H   IDS d 402      23.083 -68.519  67.769  0.00  0.00     0.104 H 
ATOM     18  H   IDS d 402      21.234 -67.632  70.618  0.00  0.00     0.133 H 
ATOM     19  H   IDS d 402      24.352 -66.904  70.799  0.00  0.00     0.091 H 
ATOM     20  H   IDS d 402      25.014 -69.016  68.780  0.00  0.00     0.092 H 
ATOM     21  H   IDS d 402      25.543 -69.501  71.000  0.00  0.00     0.210 HD
ATOM     22  H   IDS d 402      22.048 -69.544  68.651  0.00  0.00     0.212 HD
ATOM     23  H   IDS d 402      23.201 -69.680  70.649  0.00  0.00     0.097 H 
ATOM     24  O4S SGN d 403      26.453 -72.702  65.528  0.00  0.00    -0.572 OA
ATOM     25  O5  SGN d 403      27.224 -68.682  67.617  0.00  0.00    -0.352 OA
ATOM     26  O3  SGN d 403      29.813 -67.986  67.328  0.00  0.00    -0.394 OA
ATOM     27  O3S SGN d 403      29.587 -65.503  70.605  0.00  0.00    -0.296 OA
ATOM     28  O1  SGN d 403      25.808 -67.117  68.696  0.00  0.00    -0.348 OA
ATOM     29  O6  SGN d 403      27.148 -70.307  65.721  0.00  0.00    -0.254 OA
ATOM     30  O5S SGN d 403      25.704 -71.351  67.485  0.00  0.00    -0.572 OA
ATOM     31  C2  SGN d 403      28.201 -66.731  68.648  0.00  0.00     0.079 C 
ATOM     32  C3  SGN d 403      28.955 -66.831  67.313  0.00  0.00     0.058 C 
ATOM     33  N   SGN d 403      27.663 -65.376  68.856  0.00  0.00    -0.210 NA
ATOM     34  O6S SGN d 403      24.763 -70.892  65.215  0.00  0.00    -0.572 OA
ATOM     35  C4  SGN d 403      27.982 -66.924  66.133  0.00  0.00    -0.013 C 
ATOM     36  C6  SGN d 403      26.877 -68.986  65.232  0.00  0.00     0.064 C 
ATOM     37  S2  SGN d 403      26.017 -71.310  65.986  0.00  0.00     0.251 S 
ATOM     38  O2S SGN d 403      27.374 -64.600  71.330  0.00  0.00    -0.296 OA
ATOM     39  C1  SGN d 403      27.093 -67.778  68.722  0.00  0.00     0.150 C 
ATOM     40  O1S SGN d 403      28.832 -63.256  69.812  0.00  0.00    -0.296 OA
ATOM     41  S1  SGN d 403      28.375 -64.672  70.173  0.00  0.00     0.156 S 
ATOM     42  C5  SGN d 403      26.922 -67.988  66.396  0.00  0.00     0.066 C 
ATOM     43  H   SGN d 403      30.426 -67.922  68.076  0.00  0.00     0.210 HD
ATOM     44  H   SGN d 403      29.298 -66.400  70.834  0.00  0.00     0.231 HD
ATOM     45  H   SGN d 403      28.898 -66.927  69.436  0.00  0.00     0.076 H 
ATOM     46  H   SGN d 403      29.542 -65.946  67.192  0.00  0.00     0.085 H 
ATOM     47  H   SGN d 403      26.656 -65.433  69.008  0.00  0.00     0.140 HD
ATOM     48  H   SGN d 403      28.526 -67.180  65.248  0.00  0.00     0.040 H 
ATOM     49  H   SGN d 403      27.499 -65.977  66.009  0.00  0.00     0.040 H 
ATOM     50  H   SGN d 403      25.905 -68.965  64.783  0.00  0.00     0.080 H 
ATOM     51  H   SGN d 403      27.613 -68.717  64.505  0.00  0.00     0.080 H 
ATOM     52  H   SGN d 403      27.082 -65.495  71.561  0.00  0.00     0.231 HD
ATOM     53  H   SGN d 403      27.171 -68.336  69.632  0.00  0.00     0.131 H 
ATOM     54  H   SGN d 403      29.468 -63.299  69.080  0.00  0.00     0.231 HD
ATOM     55  H   SGN d 403      25.968 -67.513  66.485  0.00  0.00     0.086 H 
ENDROOT
TORSDOF 16
ENDMDL
MODEL 72
REMARK VINA RESULT:      -3.2      3.829      5.336
REMARK  0 active torsions:
REMARK  status: ('A' for Active; 'I' for Inactive)
REMARK       I    between atoms: O2_1  and  C2_31 
REMARK       I    between atoms: O2_1  and  S_34 
REMARK       I    between atoms: C5_3  and  C6_33 
REMARK       I    between atoms: O3_5  and  C3_13 
REMARK       I    between atoms: O3S_6  and  S1_32 
REMARK       I    between atoms: O1_7  and  C4_23 
REMARK       I    between atoms: O1_7  and  C1_27 
REMARK       I    between atoms: O6_8  and  C6_21 
REMARK       I    between atoms: O6_8  and  S2_24 
REMARK       I    between atoms: C1_9  and  O1_30 
REMARK       I    between atoms: C2_12  and  N_14 
REMARK       I    between atoms: N_14  and  S1_32 
REMARK       I    between atoms: C3_16  and  O3_29 
REMARK       I    between atoms: C6_21  and  C5_35 
REMARK       I    between atoms: O2S_26  and  S1_32 
REMARK       I    between atoms: O1S_28  and  S1_32 
ROOT
ATOM      1  O2  IDS d 402      28.611 -67.161  65.397  0.00  0.00    -0.244 OA
ATOM      2  C5  IDS d 402      26.240 -70.144  67.066  0.00  0.00     0.152 C 
ATOM      3  C1  IDS d 402      28.116 -69.509  65.788  0.00  0.00     0.158 C 
ATOM      4  O5  IDS d 402      27.674 -70.024  67.059  0.00  0.00    -0.340 OA
ATOM      5  O61 IDS d 402      26.108 -70.495  69.442  0.00  0.00    -0.646 OA
ATOM      6  C3  IDS d 402      26.688 -67.697  66.773  0.00  0.00     0.094 C 
ATOM      7  O62 IDS d 402      25.152 -72.021  68.083  0.00  0.00    -0.646 OA
ATOM      8  O3S IDS d 402      31.040 -66.483  65.460  0.00  0.00    -0.572 OA
ATOM      9  O2S IDS d 402      30.191 -67.944  63.593  0.00  0.00    -0.572 OA
ATOM     10  C4  IDS d 402      25.616 -68.746  67.073  0.00  0.00     0.103 C 
ATOM     11  O1S IDS d 402      30.384 -68.857  65.924  0.00  0.00    -0.572 OA
ATOM     12  O3  IDS d 402      26.060 -66.440  66.487  0.00  0.00    -0.390 OA
ATOM     13  O1  IDS d 402      27.690 -70.382  64.718  0.00  0.00    -0.368 OA
ATOM     14  C2  IDS d 402      27.538 -68.114  65.571  0.00  0.00     0.134 C 
ATOM     15  C6  IDS d 402      25.791 -70.953  68.304  0.00  0.00     0.206 C 
ATOM     16  S   IDS d 402      30.055 -67.612  65.093  0.00  0.00     0.252 S 
ATOM     17  H   IDS d 402      25.913 -70.663  66.189  0.00  0.00     0.104 H 
ATOM     18  H   IDS d 402      29.185 -69.457  65.789  0.00  0.00     0.133 H 
ATOM     19  H   IDS d 402      27.322 -67.607  67.631  0.00  0.00     0.091 H 
ATOM     20  H   IDS d 402      24.857 -68.696  66.319  0.00  0.00     0.092 H 
ATOM     21  H   IDS d 402      25.489 -66.534  65.708  0.00  0.00     0.210 HD
ATOM     22  H   IDS d 402      26.722 -70.435  64.709  0.00  0.00     0.212 HD
ATOM     23  H   IDS d 402      26.924 -68.134  64.695  0.00  0.00     0.097 H 
ATOM     24  O4S SGN d 403      20.502 -70.213  64.093  0.00  0.00    -0.572 OA
ATOM     25  O5  SGN d 403      22.754 -68.426  67.678  0.00  0.00    -0.352 OA
ATOM     26  O3  SGN d 403      21.004 -67.258  69.365  0.00  0.00    -0.394 OA
ATOM     27  O3S SGN d 403      23.993 -64.926  70.969  0.00  0.00    -0.296 OA
ATOM     28  O1  SGN d 403      25.023 -68.485  68.361  0.00  0.00    -0.348 OA
ATOM     29  O6  SGN d 403      21.095 -69.876  66.499  0.00  0.00    -0.254 OA
ATOM     30  O5S SGN d 403      22.679 -69.155  64.693  0.00  0.00    -0.572 OA
ATOM     31  C2  SGN d 403      23.418 -67.203  69.650  0.00  0.00     0.079 C 
ATOM     32  C3  SGN d 403      22.097 -67.860  70.079  0.00  0.00     0.058 C 
ATOM     33  N   SGN d 403      24.485 -67.460  70.633  0.00  0.00    -0.210 NA
ATOM     34  O6S SGN d 403      22.308 -71.589  65.127  0.00  0.00    -0.572 OA
ATOM     35  C4  SGN d 403      22.119 -69.369  69.817  0.00  0.00    -0.013 C 
ATOM     36  C6  SGN d 403      21.573 -70.548  67.673  0.00  0.00     0.064 C 
ATOM     37  S2  SGN d 403      21.647 -70.209  65.106  0.00  0.00     0.251 S 
ATOM     38  O2S SGN d 403      26.373 -65.668  70.803  0.00  0.00    -0.296 OA
ATOM     39  C1  SGN d 403      23.830 -67.676  68.258  0.00  0.00     0.150 C 
ATOM     40  O1S SGN d 403      25.039 -66.204  72.844  0.00  0.00    -0.296 OA
ATOM     41  S1  SGN d 403      24.982 -66.041  71.323  0.00  0.00     0.156 S 
ATOM     42  C5  SGN d 403      22.591 -69.659  68.396  0.00  0.00     0.066 C 
ATOM     43  H   SGN d 403      20.994 -66.304  69.534  0.00  0.00     0.210 HD
ATOM     44  H   SGN d 403      23.957 -64.821  70.006  0.00  0.00     0.231 HD
ATOM     45  H   SGN d 403      23.263 -66.145  69.609  0.00  0.00     0.076 H 
ATOM     46  H   SGN d 403      21.972 -67.706  71.130  0.00  0.00     0.085 H 
ATOM     47  H   SGN d 403      25.276 -67.901  70.163  0.00  0.00     0.140 HD
ATOM     48  H   SGN d 403      21.133 -69.763  69.947  0.00  0.00     0.040 H 
ATOM     49  H   SGN d 403      22.794 -69.831  70.507  0.00  0.00     0.040 H 
ATOM     50  H   SGN d 403      22.040 -71.469  67.390  0.00  0.00     0.080 H 
ATOM     51  H   SGN d 403      20.751 -70.751  68.326  0.00  0.00     0.080 H 
ATOM     52  H   SGN d 403      26.341 -65.563  69.839  0.00  0.00     0.231 HD
ATOM     53  H   SGN d 403      24.040 -66.837  67.629  0.00  0.00     0.131 H 
ATOM     54  H   SGN d 403      24.159 -66.440  73.177  0.00  0.00     0.231 HD
ATOM     55  H   SGN d 403      23.531 -70.170  68.440  0.00  0.00     0.086 H 
ENDROOT
TORSDOF 16
ENDMDL
MODEL 73
REMARK VINA RESULT:       2.7      4.812      9.151
REMARK  0 active torsions:
REMARK  status: ('A' for Active; 'I' for Inactive)
REMARK       I    between atoms: O2_1  and  C2_31 
REMARK       I    between atoms: O2_1  and  S_34 
REMARK       I    between atoms: C5_3  and  C6_33 
REMARK       I    between atoms: O3_5  and  C3_13 
REMARK       I    between atoms: O3S_6  and  S1_32 
REMARK       I    between atoms: O1_7  and  C4_23 
REMARK       I    between atoms: O1_7  and  C1_27 
REMARK       I    between atoms: O6_8  and  C6_21 
REMARK       I    between atoms: O6_8  and  S2_24 
REMARK       I    between atoms: C1_9  and  O1_30 
REMARK       I    between atoms: C2_12  and  N_14 
REMARK       I    between atoms: N_14  and  S1_32 
REMARK       I    between atoms: C3_16  and  O3_29 
REMARK       I    between atoms: C6_21  and  C5_35 
REMARK       I    between atoms: O2S_26  and  S1_32 
REMARK       I    between atoms: O1S_28  and  S1_32 
ROOT
ATOM      1  O2  IDS d 402      23.489 -64.894  71.140  0.00  0.00    -0.244 OA
ATOM      2  C5  IDS d 402      21.872 -67.284  68.142  0.00  0.00     0.152 C 
ATOM      3  C1  IDS d 402      21.601 -65.621  69.791  0.00  0.00     0.158 C 
ATOM      4  O5  IDS d 402      21.689 -65.875  68.376  0.00  0.00    -0.340 OA
ATOM      5  O61 IDS d 402      22.453 -67.000  65.825  0.00  0.00    -0.646 OA
ATOM      6  C3  IDS d 402      23.896 -66.569  69.434  0.00  0.00     0.094 C 
ATOM      7  O62 IDS d 402      20.761 -68.401  66.337  0.00  0.00    -0.646 OA
ATOM      8  O3S IDS d 402      23.637 -62.429  71.656  0.00  0.00    -0.572 OA
ATOM      9  O2S IDS d 402      21.796 -63.816  72.668  0.00  0.00    -0.572 OA
ATOM     10  C4  IDS d 402      23.269 -67.697  68.611  0.00  0.00     0.103 C 
ATOM     11  O1S IDS d 402      21.785 -63.303  70.210  0.00  0.00    -0.572 OA
ATOM     12  O3  IDS d 402      25.058 -67.062  70.114  0.00  0.00    -0.390 OA
ATOM     13  O1  IDS d 402      20.500 -66.362  70.366  0.00  0.00    -0.368 OA
ATOM     14  C2  IDS d 402      22.904 -66.033  70.469  0.00  0.00     0.134 C 
ATOM     15  C6  IDS d 402      21.683 -67.591  66.639  0.00  0.00     0.206 C 
ATOM     16  S   IDS d 402      22.677 -63.613  71.418  0.00  0.00     0.252 S 
ATOM     17  H   IDS d 402      21.145 -67.842  68.693  0.00  0.00     0.104 H 
ATOM     18  H   IDS d 402      21.433 -64.576  69.945  0.00  0.00     0.133 H 
ATOM     19  H   IDS d 402      24.164 -65.775  68.769  0.00  0.00     0.091 H 
ATOM     20  H   IDS d 402      23.191 -68.573  69.222  0.00  0.00     0.092 H 
ATOM     21  H   IDS d 402      24.802 -67.781  70.713  0.00  0.00     0.210 HD
ATOM     22  H   IDS d 402      20.645 -67.312  70.231  0.00  0.00     0.212 HD
ATOM     23  H   IDS d 402      22.688 -66.803  71.181  0.00  0.00     0.097 H 
ATOM     24  O4S SGN d 403      21.874 -73.443  70.099  0.00  0.00    -0.572 OA
ATOM     25  O5  SGN d 403      24.359 -70.316  67.828  0.00  0.00    -0.352 OA
ATOM     26  O3  SGN d 403      26.392 -71.528  66.537  0.00  0.00    -0.394 OA
ATOM     27  O3S SGN d 403      28.497 -67.993  66.377  0.00  0.00    -0.296 OA
ATOM     28  O1  SGN d 403      24.099 -67.987  67.468  0.00  0.00    -0.348 OA
ATOM     29  O6  SGN d 403      22.944 -72.354  68.118  0.00  0.00    -0.254 OA
ATOM     30  O5S SGN d 403      22.615 -71.067  70.246  0.00  0.00    -0.572 OA
ATOM     31  C2  SGN d 403      26.060 -69.120  66.603  0.00  0.00     0.079 C 
ATOM     32  C3  SGN d 403      25.888 -70.410  65.786  0.00  0.00     0.058 C 
ATOM     33  N   SGN d 403      25.974 -67.929  65.741  0.00  0.00    -0.210 NA
ATOM     34  O6S SGN d 403      20.640 -71.678  68.840  0.00  0.00    -0.572 OA
ATOM     35  C4  SGN d 403      24.417 -70.647  65.430  0.00  0.00    -0.013 C 
ATOM     36  C6  SGN d 403      22.669 -71.755  66.844  0.00  0.00     0.064 C 
ATOM     37  S2  SGN d 403      22.018 -72.134  69.323  0.00  0.00     0.251 S 
ATOM     38  O2S SGN d 403      27.283 -65.816  66.533  0.00  0.00    -0.296 OA
ATOM     39  C1  SGN d 403      25.036 -69.055  67.733  0.00  0.00     0.150 C 
ATOM     40  O1S SGN d 403      27.814 -66.790  64.296  0.00  0.00    -0.296 OA
ATOM     41  S1  SGN d 403      27.416 -67.117  65.738  0.00  0.00     0.156 S 
ATOM     42  C5  SGN d 403      23.537 -70.504  66.667  0.00  0.00     0.066 C 
ATOM     43  H   SGN d 403      27.323 -71.374  66.760  0.00  0.00     0.210 HD
ATOM     44  H   SGN d 403      28.246 -68.201  67.291  0.00  0.00     0.231 HD
ATOM     45  H   SGN d 403      27.037 -69.134  67.039  0.00  0.00     0.076 H 
ATOM     46  H   SGN d 403      26.439 -70.308  64.876  0.00  0.00     0.085 H 
ATOM     47  H   SGN d 403      25.241 -67.312  66.092  0.00  0.00     0.140 HD
ATOM     48  H   SGN d 403      24.306 -71.634  65.032  0.00  0.00     0.040 H 
ATOM     49  H   SGN d 403      24.116 -69.921  64.704  0.00  0.00     0.040 H 
ATOM     50  H   SGN d 403      21.635 -71.482  66.796  0.00  0.00     0.080 H 
ATOM     51  H   SGN d 403      22.891 -72.455  66.067  0.00  0.00     0.080 H 
ATOM     52  H   SGN d 403      27.030 -66.020  67.447  0.00  0.00     0.231 HD
ATOM     53  H   SGN d 403      25.525 -68.857  68.664  0.00  0.00     0.131 H 
ATOM     54  H   SGN d 403      27.900 -67.613  63.790  0.00  0.00     0.231 HD
ATOM     55  H   SGN d 403      22.900 -69.653  66.542  0.00  0.00     0.086 H 
ENDROOT
TORSDOF 16
ENDMDL
MODEL 74
REMARK VINA RESULT:       4.7      2.533      6.982
REMARK  0 active torsions:
REMARK  status: ('A' for Active; 'I' for Inactive)
REMARK       I    between atoms: O2_1  and  C2_31 
REMARK       I    between atoms: O2_1  and  S_34 
REMARK       I    between atoms: C5_3  and  C6_33 
REMARK       I    between atoms: O3_5  and  C3_13 
REMARK       I    between atoms: O3S_6  and  S1_32 
REMARK       I    between atoms: O1_7  and  C4_23 
REMARK       I    between atoms: O1_7  and  C1_27 
REMARK       I    between atoms: O6_8  and  C6_21 
REMARK       I    between atoms: O6_8  and  S2_24 
REMARK       I    between atoms: C1_9  and  O1_30 
REMARK       I    between atoms: C2_12  and  N_14 
REMARK       I    between atoms: N_14  and  S1_32 
REMARK       I    between atoms: C3_16  and  O3_29 
REMARK       I    between atoms: C6_21  and  C5_35 
REMARK       I    between atoms: O2S_26  and  S1_32 
REMARK       I    between atoms: O1S_28  and  S1_32 
ROOT
ATOM      1  O2  IDS d 402      23.829 -67.242  65.977  0.00  0.00    -0.244 OA
ATOM      2  C5  IDS d 402      26.629 -68.576  68.751  0.00  0.00     0.152 C 
ATOM      3  C1  IDS d 402      24.384 -68.367  68.060  0.00  0.00     0.158 C 
ATOM      4  O5  IDS d 402      25.497 -69.273  68.200  0.00  0.00    -0.340 OA
ATOM      5  O61 IDS d 402      28.179 -70.347  68.255  0.00  0.00    -0.646 OA
ATOM      6  C3  IDS d 402      26.174 -67.449  66.561  0.00  0.00     0.094 C 
ATOM      7  O62 IDS d 402      28.050 -69.605  70.382  0.00  0.00    -0.646 OA
ATOM      8  O3S IDS d 402      21.973 -68.251  64.598  0.00  0.00    -0.572 OA
ATOM      9  O2S IDS d 402      21.451 -67.177  66.815  0.00  0.00    -0.572 OA
ATOM     10  C4  IDS d 402      27.170 -67.589  67.713  0.00  0.00     0.103 C 
ATOM     11  O1S IDS d 402      22.700 -69.353  66.728  0.00  0.00    -0.572 OA
ATOM     12  O3  IDS d 402      26.534 -66.320  65.753  0.00  0.00    -0.390 OA
ATOM     13  O1  IDS d 402      24.036 -67.800  69.344  0.00  0.00    -0.368 OA
ATOM     14  C2  IDS d 402      24.752 -67.249  67.090  0.00  0.00     0.134 C 
ATOM     15  C6  IDS d 402      27.716 -69.594  69.163  0.00  0.00     0.206 C 
ATOM     16  S   IDS d 402      22.490 -68.005  66.031  0.00  0.00     0.252 S 
ATOM     17  H   IDS d 402      26.332 -68.030  69.623  0.00  0.00     0.104 H 
ATOM     18  H   IDS d 402      23.544 -68.908  67.680  0.00  0.00     0.133 H 
ATOM     19  H   IDS d 402      26.203 -68.346  65.978  0.00  0.00     0.091 H 
ATOM     20  H   IDS d 402      27.308 -66.633  68.175  0.00  0.00     0.092 H 
ATOM     21  H   IDS d 402      26.504 -65.514  66.291  0.00  0.00     0.210 HD
ATOM     22  H   IDS d 402      24.793 -67.307  69.696  0.00  0.00     0.212 HD
ATOM     23  H   IDS d 402      24.699 -66.316  67.611  0.00  0.00     0.097 H 
ATOM     24  O4S SGN d 403      29.330 -63.479  71.666  0.00  0.00    -0.572 OA
ATOM     25  O5  SGN d 403      29.810 -66.352  68.112  0.00  0.00    -0.352 OA
ATOM     26  O3  SGN d 403      32.263 -66.062  67.030  0.00  0.00    -0.394 OA
ATOM     27  O3S SGN d 403      30.964 -67.671  63.470  0.00  0.00    -0.296 OA
ATOM     28  O1  SGN d 403      28.437 -68.061  67.210  0.00  0.00    -0.348 OA
ATOM     29  O6  SGN d 403      30.349 -65.329  70.327  0.00  0.00    -0.254 OA
ATOM     30  O5S SGN d 403      28.014 -64.553  69.840  0.00  0.00    -0.572 OA
ATOM     31  C2  SGN d 403      30.535 -67.514  66.125  0.00  0.00     0.079 C 
ATOM     32  C3  SGN d 403      31.819 -67.429  66.964  0.00  0.00     0.058 C 
ATOM     33  N   SGN d 403      30.288 -68.892  65.667  0.00  0.00    -0.210 NA
ATOM     34  O6S SGN d 403      28.495 -65.814  71.945  0.00  0.00    -0.572 OA
ATOM     35  C4  SGN d 403      31.593 -67.969  68.379  0.00  0.00    -0.013 C 
ATOM     36  C6  SGN d 403      30.670 -66.727  70.352  0.00  0.00     0.064 C 
ATOM     37  S2  SGN d 403      29.048 -64.796  70.944  0.00  0.00     0.251 S 
ATOM     38  O2S SGN d 403      28.960 -69.162  63.437  0.00  0.00    -0.296 OA
ATOM     39  C1  SGN d 403      29.341 -66.974  66.908  0.00  0.00     0.150 C 
ATOM     40  O1S SGN d 403      31.248 -70.150  63.600  0.00  0.00    -0.296 OA
ATOM     41  S1  SGN d 403      30.365 -68.970  64.016  0.00  0.00     0.156 S 
ATOM     42  C5  SGN d 403      30.339 -67.354  68.992  0.00  0.00     0.066 C 
ATOM     43  H   SGN d 403      32.405 -65.725  66.132  0.00  0.00     0.210 HD
ATOM     44  H   SGN d 403      30.405 -66.923  63.732  0.00  0.00     0.231 HD
ATOM     45  H   SGN d 403      30.667 -66.903  65.256  0.00  0.00     0.076 H 
ATOM     46  H   SGN d 403      32.568 -68.030  66.493  0.00  0.00     0.085 H 
ATOM     47  H   SGN d 403      29.361 -69.188  65.975  0.00  0.00     0.140 HD
ATOM     48  H   SGN d 403      32.438 -67.726  68.988  0.00  0.00     0.040 H 
ATOM     49  H   SGN d 403      31.469 -69.031  68.328  0.00  0.00     0.040 H 
ATOM     50  H   SGN d 403      30.098 -67.210  71.116  0.00  0.00     0.080 H 
ATOM     51  H   SGN d 403      31.713 -66.849  70.555  0.00  0.00     0.080 H 
ATOM     52  H   SGN d 403      28.398 -68.417  63.699  0.00  0.00     0.231 HD
ATOM     53  H   SGN d 403      28.816 -66.245  66.327  0.00  0.00     0.131 H 
ATOM     54  H   SGN d 403      32.139 -70.031  63.965  0.00  0.00     0.231 HD
ATOM     55  H   SGN d 403      29.608 -68.124  69.133  0.00  0.00     0.086 H 
ENDROOT
TORSDOF 16
ENDMDL
