REMARK  0 active torsions:
REMARK  status: ('A' for Active; 'I' for Inactive)
REMARK       I    between atoms: C1_1  and  O1_40 
REMARK       I    between atoms: O1_4  and  C1_8 
REMARK       I    between atoms: O1_4  and  C4_58 
REMARK       I    between atoms: C1_5  and  O1_63 
REMARK       I    between atoms: S_6  and  O2_31 
REMARK       I    between atoms: C2_7  and  O2_31 
REMARK       I    between atoms: C2_9  and  O2_91 
REMARK       I    between atoms: C6_11  and  C5_92 
REMARK       I    between atoms: S2_12  and  O6_79 
REMARK       I    between atoms: C6_13  and  C5_130 
REMARK       I    between atoms: C6_13  and  O6_93 
REMARK       I    between atoms: O3S_15  and  S1_24 
REMARK       I    between atoms: C5_18  and  C6_52 
REMARK       I    between atoms: O2S_19  and  S1_25 
REMARK       I    between atoms: O3S_20  and  S1_26 
REMARK       I    between atoms: O1S_21  and  S1_26 
REMARK       I    between atoms: O3_22  and  C3_77 
REMARK       I    between atoms: C2_23  and  N_48 
REMARK       I    between atoms: S1_24  and  N_48 
REMARK       I    between atoms: S1_24  and  O1S_66 
REMARK       I    between atoms: S1_24  and  O2S_103 
REMARK       I    between atoms: S1_25  and  N_64 
REMARK       I    between atoms: S1_25  and  O1S_89 
REMARK       I    between atoms: S1_25  and  O3S_73 
REMARK       I    between atoms: S1_26  and  N_102 
REMARK       I    between atoms: S1_26  and  O2S_80 
REMARK       I    between atoms: O3_28  and  C3_42 
REMARK       I    between atoms: O1_30  and  C1_97 
REMARK       I    between atoms: O1_30  and  C4_122 
REMARK       I    between atoms: O3_32  and  C3_95 
REMARK       I    between atoms: C5_34  and  C6_129 
REMARK       I    between atoms: C3_35  and  O3_125 
REMARK       I    between atoms: C3_36  and  O3_128 
REMARK       I    between atoms: C5_37  and  C6_90 
REMARK       I    between atoms: O2_38  and  C2_44 
REMARK       I    between atoms: O2_38  and  S_72 
REMARK       I    between atoms: O1_40  and  C4_78 
REMARK       I    between atoms: C2_41  and  N_102 
REMARK       I    between atoms: C3_43  and  O3_46 
REMARK       I    between atoms: O3S_49  and  S1_118 
REMARK       I    between atoms: O6_50  and  C6_52 
REMARK       I    between atoms: O6_50  and  S2_127 
REMARK       I    between atoms: S2_53  and  O6_101 
REMARK       I    between atoms: C2_54  and  N_64 
REMARK       I    between atoms: C2_55  and  O2_107 
REMARK       I    between atoms: C5_57  and  C6_88 
REMARK       I    between atoms: S_62  and  O2_91 
REMARK       I    between atoms: O1_63  and  C4_132 
REMARK       I    between atoms: C3_67  and  O3_83 
REMARK       I    between atoms: C3_69  and  O3_99 
REMARK       I    between atoms: O1_70  and  C1_105 
REMARK       I    between atoms: O1_70  and  C4_131 
REMARK       I    between atoms: C1_76  and  O1_96 
REMARK       I    between atoms: O6_79  and  C6_129 
REMARK       I    between atoms: C6_82  and  C5_110 
REMARK       I    between atoms: O6_93  and  S2_112 
REMARK       I    between atoms: O1S_94  and  S1_118 
REMARK       I    between atoms: O6_101  and  C6_108 
REMARK       I    between atoms: O1_106  and  C1_120 
REMARK       I    between atoms: O1_106  and  C4_140 
REMARK       I    between atoms: O2_107  and  S_109 
REMARK       I    between atoms: C6_108  and  C5_124 
REMARK       I    between atoms: C2_117  and  N_119 
REMARK       I    between atoms: S1_118  and  N_119 
REMARK       I    between atoms: S1_118  and  O2S_137 
REMARK       I    between atoms: C4_121  and  O1_123 
REMARK       I    between atoms: O1_123  and  C1_135 
ROOT
ATOM      1  C1  IDS d 247      46.853   1.271  99.871  0.00  0.00     0.161 C 
ATOM      2  O5  IDS d 247      47.511   0.344  99.003  0.00  0.00    -0.340 OA
ATOM      3  C2  IDS d 247      47.685   2.546 100.109  0.00  0.00     0.134 C 
ATOM      4  C6  IDS d 247      49.506  -0.856  98.291  0.00  0.00     0.206 C 
ATOM      5  O61 IDS d 247      50.702  -1.090  98.255  0.00  0.00    -0.646 OA
ATOM      6  O3  IDS d 247      49.298   4.056  99.176  0.00  0.00    -0.390 OA
ATOM      7  O1  IDS d 247      46.627   0.727 101.122  0.00  0.00    -0.348 OA
ATOM      8  C3  IDS d 247      48.514   2.902  98.890  0.00  0.00     0.094 C 
ATOM      9  O1S IDS d 247      46.766   5.692 101.701  0.00  0.00    -0.572 OA
ATOM     10  S   IDS d 247      47.139   5.250 100.370  0.00  0.00     0.252 S 
ATOM     11  O2S IDS d 247      48.558   5.398 100.128  0.00  0.00    -0.572 OA
ATOM     12  O3S IDS d 247      46.310   5.859  99.326  0.00  0.00    -0.572 OA
ATOM     13  O2  IDS d 247      46.804   3.658 100.375  0.00  0.00    -0.244 OA
ATOM     14  C5  IDS d 247      48.961   0.382  99.027  0.00  0.00     0.152 C 
ATOM     15  O62 IDS d 247      48.761  -1.626  97.714  0.00  0.00    -0.646 OA
ATOM     16  C4  IDS d 247      49.438   1.757  98.404  0.00  0.00     0.103 C 
ATOM     17  H   IDS d 247      45.935   1.506  99.374  0.00  0.00     0.133 H 
ATOM     18  H   IDS d 247      48.333   2.355 100.939  0.00  0.00     0.097 H 
ATOM     19  H   IDS d 247      48.719   4.773  99.480  0.00  0.00     0.210 HD
ATOM     20  H   IDS d 247      47.823   3.090  98.095  0.00  0.00     0.091 H 
ATOM     21  H   IDS d 247      49.347   0.339 100.024  0.00  0.00     0.104 H 
ATOM     22  H   IDS d 247      50.453   1.962  98.674  0.00  0.00     0.092 H 
ATOM     23  O5S SGN d 250      50.854   2.215 108.911  0.00  0.00    -0.572 OA
ATOM     24  S2  SGN d 250      50.602   0.798 108.895  0.00  0.00     0.251 S 
ATOM     25  C5  SGN d 250      47.074   0.136 110.348  0.00  0.00     0.091 C 
ATOM     26  O3S SGN d 250      44.549   4.667 112.872  0.00  0.00    -0.296 OA
ATOM     27  C3  SGN d 250      44.670   0.906 110.059  0.00  0.00     0.083 C 
ATOM     28  O1  SGN d 250      45.763   0.668 112.453  0.00  0.00    -0.348 OA
ATOM     29  O4S SGN d 250      50.227   0.310 107.576  0.00  0.00    -0.572 OA
ATOM     30  O6  SGN d 250      49.362   0.610 109.827  0.00  0.00    -0.254 OA
ATOM     31  O3  SGN d 250      43.632   1.146 109.120  0.00  0.00    -0.391 OA
ATOM     32  O6S SGN d 250      51.681   0.041 109.511  0.00  0.00    -0.572 OA
ATOM     33  O1S SGN d 250      43.825   5.082 110.617  0.00  0.00    -0.296 OA
ATOM     34  C1  SGN d 250      46.199   1.839 111.789  0.00  0.00     0.150 C 
ATOM     35  C2  SGN d 250      45.041   2.229 110.788  0.00  0.00     0.081 C 
ATOM     36  S1  SGN d 250      43.577   4.334 111.839  0.00  0.00     0.156 S 
ATOM     37  N   SGN d 250      43.841   2.715 111.540  0.00  0.00    -0.210 NA
ATOM     38  C4  SGN d 250      45.916   0.372 109.319  0.00  0.00     0.095 C 
ATOM     39  O5  SGN d 250      47.356   1.403 111.055  0.00  0.00    -0.349 OA
ATOM     40  C6  SGN d 250      48.367  -0.360 109.689  0.00  0.00     0.067 C 
ATOM     41  O2S SGN d 250      42.190   4.431 112.321  0.00  0.00    -0.296 OA
ATOM     42  H   SGN d 250      46.746  -0.625 111.024  0.00  0.00     0.090 H 
ATOM     43  H   SGN d 250      45.445   4.589 112.510  0.00  0.00     0.231 HD
ATOM     44  H   SGN d 250      44.334   0.186 110.776  0.00  0.00     0.089 H 
ATOM     45  H   SGN d 250      43.931   1.798 108.467  0.00  0.00     0.210 HD
ATOM     46  H   SGN d 250      44.753   4.976 110.356  0.00  0.00     0.231 HD
ATOM     47  H   SGN d 250      46.422   2.671 112.424  0.00  0.00     0.131 H 
ATOM     48  H   SGN d 250      45.349   3.005 110.118  0.00  0.00     0.076 H 
ATOM     49  H   SGN d 250      43.872   2.258 112.451  0.00  0.00     0.140 HD
ATOM     50  H   SGN d 250      46.243   1.074 108.581  0.00  0.00     0.091 H 
ATOM     51  H   SGN d 250      48.190  -0.544 108.650  0.00  0.00     0.080 H 
ATOM     52  H   SGN d 250      48.684  -1.266 110.163  0.00  0.00     0.080 H 
ATOM     53  H   SGN d 250      41.978   5.358 112.513  0.00  0.00     0.231 HD
ATOM     54  O1  IDS d 251      43.741  -2.672 115.449  0.00  0.00    -0.348 OA
ATOM     55  C1  IDS d 251      43.752  -1.994 114.180  0.00  0.00     0.161 C 
ATOM     56  C5  IDS d 251      45.836  -0.709 114.292  0.00  0.00     0.152 C 
ATOM     57  O2  IDS d 251      41.705  -0.643 114.082  0.00  0.00    -0.244 OA
ATOM     58  O5  IDS d 251      45.080  -1.808 113.667  0.00  0.00    -0.340 OA
ATOM     59  C3  IDS d 251      43.730   0.497 113.581  0.00  0.00     0.094 C 
ATOM     60  C2  IDS d 251      43.090  -0.608 114.434  0.00  0.00     0.134 C 
ATOM     61  O3  IDS d 251      43.123   1.737 113.891  0.00  0.00    -0.390 OA
ATOM     62  O61 IDS d 251      47.759  -1.673 113.138  0.00  0.00    -0.646 OA
ATOM     63  O62 IDS d 251      48.213  -0.288 114.649  0.00  0.00    -0.646 OA
ATOM     64  S   IDS d 251      40.965  -1.519 112.940  0.00  0.00     0.252 S 
ATOM     65  O2S IDS d 251      41.480  -2.876 112.998  0.00  0.00    -0.572 OA
ATOM     66  O3S IDS d 251      39.560  -1.432 113.265  0.00  0.00    -0.572 OA
ATOM     67  C6  IDS d 251      47.367  -0.900 114.018  0.00  0.00     0.206 C 
ATOM     68  C4  IDS d 251      45.265   0.629 113.731  0.00  0.00     0.103 C 
ATOM     69  O1S IDS d 251      41.297  -0.860 111.685  0.00  0.00    -0.572 OA
ATOM     70  H   IDS d 251      43.230  -2.576 113.450  0.00  0.00     0.133 H 
ATOM     71  H   IDS d 251      45.728  -0.698 115.356  0.00  0.00     0.104 H 
ATOM     72  H   IDS d 251      43.560   0.214 112.563  0.00  0.00     0.091 H 
ATOM     73  H   IDS d 251      43.227  -0.398 115.474  0.00  0.00     0.097 H 
ATOM     74  H   IDS d 251      43.298   1.960 114.819  0.00  0.00     0.210 HD
ATOM     75  H   IDS d 251      45.507   1.471 114.346  0.00  0.00     0.092 H 
ATOM     76  C1  SGN d 246      50.033   2.347  96.070  0.00  0.00     0.150 C 
ATOM     77  O2S SGN d 246      47.297   6.444  96.790  0.00  0.00    -0.296 OA
ATOM     78  S1  SGN d 246      48.539   6.077  96.137  0.00  0.00     0.156 S 
ATOM     79  C3  SGN d 246      47.969   3.031  94.730  0.00  0.00     0.083 C 
ATOM     80  S2  SGN d 246      52.282   0.221  92.495  0.00  0.00     0.251 S 
ATOM     81  C2  SGN d 246      49.218   3.563  95.447  0.00  0.00     0.081 C 
ATOM     82  O1  SGN d 246      49.228   1.641  96.999  0.00  0.00    -0.348 OA
ATOM     83  N   SGN d 246      48.827   4.500  96.500  0.00  0.00    -0.210 NA
ATOM     84  O6S SGN d 246      52.785   0.902  93.655  0.00  0.00    -0.572 OA
ATOM     85  O3S SGN d 246      49.677   6.782  96.689  0.00  0.00    -0.296 OA
ATOM     86  O4S SGN d 246      52.458  -1.205  92.556  0.00  0.00    -0.572 OA
ATOM     87  O1S SGN d 246      48.477   6.187  94.693  0.00  0.00    -0.296 OA
ATOM     88  O6  SGN d 246      50.763   0.483  92.475  0.00  0.00    -0.254 OA
ATOM     89  C6  SGN d 246      49.791  -0.126  93.281  0.00  0.00     0.067 C 
ATOM     90  O5  SGN d 246      50.397   1.432  95.038  0.00  0.00    -0.349 OA
ATOM     91  O5S SGN d 246      52.755   0.801  91.263  0.00  0.00    -0.572 OA
ATOM     92  C5  SGN d 246      49.239   0.905  94.293  0.00  0.00     0.091 C 
ATOM     93  O3  SGN d 246      47.247   4.098  94.155  0.00  0.00    -0.391 OA
ATOM     94  C4  SGN d 246      48.420   2.099  93.639  0.00  0.00     0.095 C 
ATOM     95  H   SGN d 246      50.902   2.742  96.554  0.00  0.00     0.131 H 
ATOM     96  H   SGN d 246      46.564   5.950  96.391  0.00  0.00     0.231 HD
ATOM     97  H   SGN d 246      47.337   2.524  95.429  0.00  0.00     0.089 H 
ATOM     98  H   SGN d 246      49.839   4.077  94.743  0.00  0.00     0.076 H 
ATOM     99  H   SGN d 246      47.971   4.133  96.916  0.00  0.00     0.140 HD
ATOM    100  H   SGN d 246      49.681   6.684  97.654  0.00  0.00     0.231 HD
ATOM    101  H   SGN d 246      47.703   5.703  94.365  0.00  0.00     0.231 HD
ATOM    102  H   SGN d 246      50.230  -0.946  93.811  0.00  0.00     0.080 H 
ATOM    103  H   SGN d 246      48.992  -0.484  92.666  0.00  0.00     0.080 H 
ATOM    104  H   SGN d 246      48.533   0.407  94.924  0.00  0.00     0.090 H 
ATOM    105  H   SGN d 246      47.812   4.565  93.519  0.00  0.00     0.210 HD
ATOM    106  H   SGN d 246      49.064   2.582  92.934  0.00  0.00     0.091 H 
ATOM    107  S   IDS d 249      48.465  -3.301 106.826  0.00  0.00     0.252 S 
ATOM    108  C2  IDS d 249      45.830  -2.667 107.279  0.00  0.00     0.134 C 
ATOM    109  O62 IDS d 249      43.348   0.525 104.420  0.00  0.00    -0.646 OA
ATOM    110  O61 IDS d 249      41.964   0.316 105.983  0.00  0.00    -0.646 OA
ATOM    111  O2  IDS d 249      47.056  -3.345 107.622  0.00  0.00    -0.244 OA
ATOM    112  O3  IDS d 249      45.280  -4.456 105.803  0.00  0.00    -0.390 OA
ATOM    113  O5  IDS d 249      45.218  -0.415 106.486  0.00  0.00    -0.340 OA
ATOM    114  C5  IDS d 249      43.953  -1.038 106.160  0.00  0.00     0.152 C 
ATOM    115  C6  IDS d 249      43.037  -0.005 105.472  0.00  0.00     0.206 C 
ATOM    116  C3  IDS d 249      45.492  -3.052 105.858  0.00  0.00     0.094 C 
ATOM    117  O3S IDS d 249      49.455  -3.844 107.731  0.00  0.00    -0.572 OA
ATOM    118  C4  IDS d 249      44.268  -2.294 105.276  0.00  0.00     0.103 C 
ATOM    119  O1  IDS d 249      45.567  -0.861 108.716  0.00  0.00    -0.348 OA
ATOM    120  O2S IDS d 249      48.724  -1.928 106.465  0.00  0.00    -0.572 OA
ATOM    121  C1  IDS d 249      45.996  -1.131 107.434  0.00  0.00     0.161 C 
ATOM    122  O1S IDS d 249      48.254  -4.137 105.653  0.00  0.00    -0.572 OA
ATOM    123  H   IDS d 249      45.034  -2.954 107.934  0.00  0.00     0.097 H 
ATOM    124  H   IDS d 249      46.052  -4.914 106.170  0.00  0.00     0.210 HD
ATOM    125  H   IDS d 249      43.421  -1.369 107.028  0.00  0.00     0.104 H 
ATOM    126  H   IDS d 249      46.322  -2.767 105.245  0.00  0.00     0.091 H 
ATOM    127  H   IDS d 249      43.414  -2.935 105.207  0.00  0.00     0.092 H 
ATOM    128  H   IDS d 249      47.008  -0.828 107.264  0.00  0.00     0.133 H 
ATOM    129  C6  SGN d 252      42.213  -4.719 117.094  0.00  0.00     0.067 C 
ATOM    130  O3S SGN d 252      49.937  -6.796 115.733  0.00  0.00    -0.296 OA
ATOM    131  O3  SGN d 252      46.338  -3.631 114.452  0.00  0.00    -0.391 OA
ATOM    132  C2  SGN d 252      46.304  -5.483 115.903  0.00  0.00     0.081 C 
ATOM    133  S1  SGN d 252      48.560  -6.845 115.246  0.00  0.00     0.156 S 
ATOM    134  O4S SGN d 252      39.808  -3.552 114.954  0.00  0.00    -0.572 OA
ATOM    135  N   SGN d 252      47.793  -5.542 115.939  0.00  0.00    -0.210 NA
ATOM    136  C4  SGN d 252      44.256  -4.048 115.618  0.00  0.00     0.095 C 
ATOM    137  O5  SGN d 252      44.284  -5.902 117.248  0.00  0.00    -0.350 OA
ATOM    138  O1S SGN d 252      47.869  -8.042 115.691  0.00  0.00    -0.296 OA
ATOM    139  O6S SGN d 252      39.401  -5.342 116.551  0.00  0.00    -0.572 OA
ATOM    140  C1  SGN d 252      45.739  -5.959 117.263  0.00  0.00     0.147 C 
ATOM    141  C3  SGN d 252      45.826  -4.053 115.673  0.00  0.00     0.083 C 
ATOM    142  O6  SGN d 252      41.676  -4.897 115.801  0.00  0.00    -0.254 OA
ATOM    143  O1  SGN d 252      46.271  -5.117 118.310  0.00  0.00    -0.369 OA
ATOM    144  O2S SGN d 252      48.480  -6.644 113.817  0.00  0.00    -0.296 OA
ATOM    145  O5S SGN d 252      40.092  -5.871 114.286  0.00  0.00    -0.572 OA
ATOM    146  S2  SGN d 252      40.150  -4.903 115.377  0.00  0.00     0.251 S 
ATOM    147  C5  SGN d 252      43.739  -4.591 116.990  0.00  0.00     0.091 C 
ATOM    148  H   SGN d 252      41.808  -3.830 117.531  0.00  0.00     0.080 H 
ATOM    149  H   SGN d 252      41.962  -5.559 117.707  0.00  0.00     0.080 H 
ATOM    150  H   SGN d 252      49.946  -6.935 116.693  0.00  0.00     0.231 HD
ATOM    151  H   SGN d 252      47.307  -3.635 114.489  0.00  0.00     0.210 HD
ATOM    152  H   SGN d 252      45.964  -6.109 115.105  0.00  0.00     0.076 H 
ATOM    153  H   SGN d 252      48.070  -5.518 116.920  0.00  0.00     0.140 HD
ATOM    154  H   SGN d 252      43.925  -4.646 114.795  0.00  0.00     0.091 H 
ATOM    155  H   SGN d 252      47.955  -8.126 116.653  0.00  0.00     0.231 HD
ATOM    156  H   SGN d 252      46.029  -6.973 117.442  0.00  0.00     0.131 H 
ATOM    157  H   SGN d 252      46.153  -3.404 116.458  0.00  0.00     0.089 H 
ATOM    158  H   SGN d 252      46.009  -4.197 118.149  0.00  0.00     0.212 HD
ATOM    159  H   SGN d 252      48.957  -5.834 113.577  0.00  0.00     0.231 HD
ATOM    160  H   SGN d 252      44.062  -3.862 117.704  0.00  0.00     0.090 H 
ATOM    161  O62 IDS d 245      44.086   5.361  90.486  0.00  0.00    -0.646 OA
ATOM    162  C4  IDS d 245      46.279   2.738  88.968  0.00  0.00    -0.005 C 
ATOM    163  C3  IDS d 245      47.149   1.502  89.334  0.00  0.00     0.069 C 
ATOM    164  C2  IDS d 245      46.831   0.999  90.711  0.00  0.00     0.132 C 
ATOM    165  O1S IDS d 245      48.827  -2.162  90.618  0.00  0.00    -0.572 OA
ATOM    166  C6  IDS d 245      45.081   4.850  89.985  0.00  0.00     0.203 C 
ATOM    167  O2S IDS d 245      46.956  -2.113  92.143  0.00  0.00    -0.572 OA
ATOM    168  O1  IDS d 245      47.250   1.641  92.956  0.00  0.00    -0.348 OA
ATOM    169  O2  IDS d 245      47.712  -0.083  91.003  0.00  0.00    -0.244 OA
ATOM    170  S   IDS d 245      47.494  -1.638  90.879  0.00  0.00     0.252 S 
ATOM    171  C5  IDS d 245      45.413   3.344  90.187  0.00  0.00     0.127 C 
ATOM    172  O5  IDS d 245      46.058   3.143  91.546  0.00  0.00    -0.343 OA
ATOM    173  C1  IDS d 245      47.088   2.145  91.654  0.00  0.00     0.161 C 
ATOM    174  O3  IDS d 245      46.908   0.481  88.396  0.00  0.00    -0.393 OA
ATOM    175  O3S IDS d 245      46.591  -1.824  89.765  0.00  0.00    -0.572 OA
ATOM    176  O61 IDS d 245      45.804   5.564  89.297  0.00  0.00    -0.646 OA
ATOM    177  H   IDS d 245      45.602   2.450  88.191  0.00  0.00     0.041 H 
ATOM    178  H   IDS d 245      46.961   3.508  88.672  0.00  0.00     0.041 H 
ATOM    179  H   IDS d 245      48.179   1.793  89.317  0.00  0.00     0.087 H 
ATOM    180  H   IDS d 245      45.820   0.658  90.799  0.00  0.00     0.097 H 
ATOM    181  H   IDS d 245      44.502   2.784  90.175  0.00  0.00     0.100 H 
ATOM    182  H   IDS d 245      47.996   2.646  91.389  0.00  0.00     0.133 H 
ATOM    183  H   IDS d 245      45.971   0.230  88.425  0.00  0.00     0.210 HD
ATOM    184  O5S SGN d 248      40.719   0.715  99.643  0.00  0.00    -0.572 OA
ATOM    185  C5  SGN d 248      44.482  -0.001 102.078  0.00  0.00     0.091 C 
ATOM    186  O3S SGN d 248      44.565  -5.514 102.135  0.00  0.00    -0.296 OA
ATOM    187  O1S SGN d 248      46.788  -5.766 101.294  0.00  0.00    -0.296 OA
ATOM    188  S1  SGN d 248      45.978  -5.406 102.439  0.00  0.00     0.156 S 
ATOM    189  O1  SGN d 248      44.726  -1.774 104.082  0.00  0.00    -0.348 OA
ATOM    190  O6S SGN d 248      41.921   2.781 100.008  0.00  0.00    -0.572 OA
ATOM    191  C2  SGN d 248      45.541  -2.719 102.062  0.00  0.00     0.081 C 
ATOM    192  O6  SGN d 248      42.978   0.655 100.335  0.00  0.00    -0.254 OA
ATOM    193  C6  SGN d 248      43.629   1.127 101.476  0.00  0.00     0.067 C 
ATOM    194  O5  SGN d 248      43.620  -1.182 102.218  0.00  0.00    -0.349 OA
ATOM    195  C3  SGN d 248      46.481  -1.511 101.922  0.00  0.00     0.083 C 
ATOM    196  C4  SGN d 248      45.738  -0.379 101.215  0.00  0.00     0.095 C 
ATOM    197  O2S SGN d 248      46.333  -6.124 103.658  0.00  0.00    -0.296 OA
ATOM    198  C1  SGN d 248      44.284  -2.258 102.875  0.00  0.00     0.150 C 
ATOM    199  O3  SGN d 248      47.619  -1.883 101.158  0.00  0.00    -0.391 OA
ATOM    200  O4S SGN d 248      42.453   1.393  98.097  0.00  0.00    -0.572 OA
ATOM    201  N   SGN d 248      46.253  -3.812 102.783  0.00  0.00    -0.210 NA
ATOM    202  S2  SGN d 248      41.964   1.437  99.463  0.00  0.00     0.251 S 
ATOM    203  H   SGN d 248      44.861   0.344 103.017  0.00  0.00     0.090 H 
ATOM    204  H   SGN d 248      44.371  -5.025 101.320  0.00  0.00     0.231 HD
ATOM    205  H   SGN d 248      46.501  -5.255 100.521  0.00  0.00     0.231 HD
ATOM    206  H   SGN d 248      45.239  -3.084 101.103  0.00  0.00     0.076 H 
ATOM    207  H   SGN d 248      44.260   1.950 101.213  0.00  0.00     0.080 H 
ATOM    208  H   SGN d 248      42.904   1.450 102.194  0.00  0.00     0.080 H 
ATOM    209  H   SGN d 248      46.797  -1.184 102.891  0.00  0.00     0.089 H 
ATOM    210  H   SGN d 248      45.416  -0.666 100.236  0.00  0.00     0.091 H 
ATOM    211  H   SGN d 248      46.194  -7.075 103.525  0.00  0.00     0.231 HD
ATOM    212  H   SGN d 248      43.614  -3.086 102.978  0.00  0.00     0.131 H 
ATOM    213  H   SGN d 248      47.336  -2.180 100.279  0.00  0.00     0.210 HD
ATOM    214  H   SGN d 248      47.249  -3.654 102.631  0.00  0.00     0.140 HD
ENDROOT
TORSDOF 67
