MODEL 1
REMARK VINA RESULT:     -10.2      0.000      0.000
REMARK  0 active torsions:
REMARK  status: ('A' for Active; 'I' for Inactive)
REMARK       I    between atoms: C2_1  and  O2_21 
REMARK       I    between atoms: O6_3  and  C6_7 
REMARK       I    between atoms: C1_4  and  O3_17 
REMARK       I    between atoms: O1_5  and  C1_23 
REMARK       I    between atoms: C3_6  and  O3_9 
REMARK       I    between atoms: C6_7  and  C5_22 
REMARK       I    between atoms: C2_8  and  N2_19 
REMARK       I    between atoms: C3_10  and  O3_17 
REMARK       I    between atoms: O4_11  and  C4_15 
REMARK       I    between atoms: C6_16  and  C5_26 
REMARK       I    between atoms: C7_18  and  C8_24 
REMARK       I    between atoms: C7_18  and  N2_19 
ROOT
ATOM      1  C2  GAD d 809      -3.896  36.301  75.243  0.00  0.00     0.111 C 
ATOM      2  O6A GAD d 809      -7.639  37.879  78.708  0.00  0.00    -0.642 OA
ATOM      3  C1  GAD d 809      -3.569  37.191  76.452  0.00  0.00     0.165 C 
ATOM      4  C3  GAD d 809      -5.403  36.258  74.990  0.00  0.00     0.084 C 
ATOM      5  O3  GAD d 809      -5.808  34.929  74.607  0.00  0.00    -0.389 OA
ATOM      6  C4  GAD d 809      -6.226  36.949  76.122  0.00  0.00    -0.034 C 
ATOM      7  O5  GAD d 809      -4.369  36.560  77.481  0.00  0.00    -0.311 OA
ATOM      8  C6  GAD d 809      -6.459  37.384  78.668  0.00  0.00     0.233 C 
ATOM      9  O6B GAD d 809      -5.727  37.152  79.669  0.00  0.00    -0.642 OA
ATOM     10  O2  GAD d 809      -3.325  36.796  74.056  0.00  0.00    -0.388 OA
ATOM     11  C5  GAD d 809      -5.750  36.951  77.373  0.00  0.00     0.147 C 
ATOM     12  H   GAD d 809      -3.504  35.335  75.480  0.00  0.00     0.095 H 
ATOM     13  H   GAD d 809      -3.839  38.225  76.501  0.00  0.00     0.134 H 
ATOM     14  H   GAD d 809      -5.644  36.869  74.145  0.00  0.00     0.093 H 
ATOM     15  H   GAD d 809      -5.619  34.312  75.331  0.00  0.00     0.210 HD
ATOM     16  H   GAD d 809      -7.129  37.401  75.909  0.00  0.00     0.085 H 
ATOM     17  H   GAD d 809      -3.694  37.671  73.860  0.00  0.00     0.210 HD
ATOM     18  O6  NAG d 810       1.478  39.633  80.835  0.00  0.00    -0.398 OA
ATOM     19  O1  NAG d 810       0.071  41.857  76.770  0.00  0.00    -0.369 OA
ATOM     20  C6  NAG d 810       0.902  38.574  80.148  0.00  0.00     0.043 C 
ATOM     21  C2  NAG d 810      -1.000  39.657  76.567  0.00  0.00     0.087 C 
ATOM     22  C3  NAG d 810      -1.729  38.610  77.371  0.00  0.00     0.093 C 
ATOM     23  O4  NAG d 810      -1.301  37.008  79.144  0.00  0.00    -0.390 OA
ATOM     24  O5  NAG d 810       0.408  40.234  78.449  0.00  0.00    -0.349 OA
ATOM     25  C4  NAG d 810      -0.724  38.064  78.378  0.00  0.00     0.089 C 
ATOM     26  O3  NAG d 810      -2.285  37.597  76.512  0.00  0.00    -0.348 OA
ATOM     27  C7  NAG d 810      -1.772  39.841  74.268  0.00  0.00     0.214 C 
ATOM     28  N2  NAG d 810      -1.896  40.141  75.553  0.00  0.00    -0.349 N 
ATOM     29  C5  NAG d 810      -0.170  39.208  79.257  0.00  0.00     0.089 C 
ATOM     30  C1  NAG d 810      -0.525  40.789  77.511  0.00  0.00     0.151 C 
ATOM     31  C8  NAG d 810      -2.972  40.172  73.395  0.00  0.00    -0.003 C 
ATOM     32  O7  NAG d 810      -0.745  39.347  73.832  0.00  0.00    -0.274 OA
ATOM     33  H   NAG d 810       2.173  39.297  81.423  0.00  0.00     0.209 HD
ATOM     34  H   NAG d 810      -0.576  42.217  76.143  0.00  0.00     0.212 HD
ATOM     35  H   NAG d 810       0.459  37.880  80.831  0.00  0.00     0.078 H 
ATOM     36  H   NAG d 810       1.624  38.028  79.577  0.00  0.00     0.078 H 
ATOM     37  H   NAG d 810      -0.131  39.252  76.091  0.00  0.00     0.084 H 
ATOM     38  H   NAG d 810      -2.570  39.018  77.892  0.00  0.00     0.091 H 
ATOM     39  H   NAG d 810      -1.632  36.319  78.547  0.00  0.00     0.210 HD
ATOM     40  H   NAG d 810       0.107  37.641  77.854  0.00  0.00     0.091 H 
ATOM     41  H   NAG d 810      -2.639  40.725  75.827  0.00  0.00     0.163 HD
ATOM     42  H   NAG d 810      -0.948  39.662  79.834  0.00  0.00     0.090 H 
ATOM     43  H   NAG d 810      -1.365  41.197  78.034  0.00  0.00     0.132 H 
ATOM     44  H   NAG d 810      -3.747  40.594  74.001  0.00  0.00     0.040 H 
ATOM     45  H   NAG d 810      -3.330  39.278  72.929  0.00  0.00     0.040 H 
ATOM     46  H   NAG d 810      -2.683  40.877  72.644  0.00  0.00     0.040 H 
ENDROOT
TORSDOF 11
ENDMDL
MODEL 2
REMARK VINA RESULT:      -8.5      2.166      4.763
REMARK  0 active torsions:
REMARK  status: ('A' for Active; 'I' for Inactive)
REMARK       I    between atoms: C2_1  and  O2_21 
REMARK       I    between atoms: O6_3  and  C6_7 
REMARK       I    between atoms: C1_4  and  O3_17 
REMARK       I    between atoms: O1_5  and  C1_23 
REMARK       I    between atoms: C3_6  and  O3_9 
REMARK       I    between atoms: C6_7  and  C5_22 
REMARK       I    between atoms: C2_8  and  N2_19 
REMARK       I    between atoms: C3_10  and  O3_17 
REMARK       I    between atoms: O4_11  and  C4_15 
REMARK       I    between atoms: C6_16  and  C5_26 
REMARK       I    between atoms: C7_18  and  C8_24 
REMARK       I    between atoms: C7_18  and  N2_19 
ROOT
ATOM      1  C2  GAD d 809      -3.747  38.051  77.715  0.00  0.00     0.111 C 
ATOM      2  O6A GAD d 809      -2.237  38.343  72.603  0.00  0.00    -0.642 OA
ATOM      3  C1  GAD d 809      -2.394  38.646  77.294  0.00  0.00     0.165 C 
ATOM      4  C3  GAD d 809      -4.380  37.267  76.565  0.00  0.00     0.084 C 
ATOM      5  O3  GAD d 809      -5.802  37.490  76.531  0.00  0.00    -0.389 OA
ATOM      6  C4  GAD d 809      -3.605  37.436  75.220  0.00  0.00    -0.034 C 
ATOM      7  O5  GAD d 809      -2.784  39.420  76.135  0.00  0.00    -0.311 OA
ATOM      8  C6  GAD d 809      -2.290  39.046  73.671  0.00  0.00     0.233 C 
ATOM      9  O6B GAD d 809      -1.847  40.220  73.798  0.00  0.00    -0.642 OA
ATOM     10  O2  GAD d 809      -3.612  37.133  78.773  0.00  0.00    -0.388 OA
ATOM     11  C5  GAD d 809      -2.946  38.576  74.980  0.00  0.00     0.147 C 
ATOM     12  H   GAD d 809      -4.350  38.884  78.010  0.00  0.00     0.095 H 
ATOM     13  H   GAD d 809      -1.579  38.044  76.951  0.00  0.00     0.134 H 
ATOM     14  H   GAD d 809      -4.274  36.217  76.744  0.00  0.00     0.093 H 
ATOM     15  H   GAD d 809      -5.979  38.431  76.371  0.00  0.00     0.210 HD
ATOM     16  H   GAD d 809      -3.600  36.675  74.523  0.00  0.00     0.085 H 
ATOM     17  H   GAD d 809      -3.063  36.387  78.485  0.00  0.00     0.210 HD
ATOM     18  O6  NAG d 810       3.105  42.775  79.125  0.00  0.00    -0.398 OA
ATOM     19  O1  NAG d 810       2.919  37.988  79.835  0.00  0.00    -0.369 OA
ATOM     20  C6  NAG d 810       1.735  42.560  79.078  0.00  0.00     0.043 C 
ATOM     21  C2  NAG d 810       0.605  38.521  79.215  0.00  0.00     0.087 C 
ATOM     22  C3  NAG d 810      -0.209  39.367  78.267  0.00  0.00     0.093 C 
ATOM     23  O4  NAG d 810      -0.730  41.702  77.852  0.00  0.00    -0.390 OA
ATOM     24  O5  NAG d 810       2.313  40.226  79.394  0.00  0.00    -0.349 OA
ATOM     25  C4  NAG d 810       0.056  40.818  78.650  0.00  0.00     0.089 C 
ATOM     26  O3  NAG d 810      -1.602  39.007  78.323  0.00  0.00    -0.348 OA
ATOM     27  C7  NAG d 810      -0.412  36.372  79.728  0.00  0.00     0.214 C 
ATOM     28  N2  NAG d 810       0.319  37.141  78.933  0.00  0.00    -0.349 N 
ATOM     29  C5  NAG d 810       1.569  41.126  78.571  0.00  0.00     0.089 C 
ATOM     30  C1  NAG d 810       2.106  38.851  79.035  0.00  0.00     0.151 C 
ATOM     31  C8  NAG d 810      -0.872  35.053  79.128  0.00  0.00    -0.003 C 
ATOM     32  O7  NAG d 810      -0.673  36.713  80.870  0.00  0.00    -0.274 OA
ATOM     33  H   NAG d 810       3.280  43.675  79.442  0.00  0.00     0.209 HD
ATOM     34  H   NAG d 810       2.764  37.066  79.577  0.00  0.00     0.212 HD
ATOM     35  H   NAG d 810       1.269  43.251  78.408  0.00  0.00     0.078 H 
ATOM     36  H   NAG d 810       1.276  42.701  80.035  0.00  0.00     0.078 H 
ATOM     37  H   NAG d 810       0.352  38.722  80.235  0.00  0.00     0.084 H 
ATOM     38  H   NAG d 810       0.073  39.210  77.247  0.00  0.00     0.091 H 
ATOM     39  H   NAG d 810      -1.667  41.466  77.937  0.00  0.00     0.210 HD
ATOM     40  H   NAG d 810      -0.243  40.976  79.665  0.00  0.00     0.091 H 
ATOM     41  H   NAG d 810       0.684  36.747  78.109  0.00  0.00     0.163 HD
ATOM     42  H   NAG d 810       1.933  41.013  77.572  0.00  0.00     0.090 H 
ATOM     43  H   NAG d 810       2.390  38.696  78.015  0.00  0.00     0.132 H 
ATOM     44  H   NAG d 810      -0.523  34.980  78.119  0.00  0.00     0.040 H 
ATOM     45  H   NAG d 810      -1.941  35.009  79.139  0.00  0.00     0.040 H 
ATOM     46  H   NAG d 810      -0.475  34.242  79.703  0.00  0.00     0.040 H 
ENDROOT
TORSDOF 11
ENDMDL
MODEL 3
REMARK VINA RESULT:      -8.5      2.446      4.234
REMARK  0 active torsions:
REMARK  status: ('A' for Active; 'I' for Inactive)
REMARK       I    between atoms: C2_1  and  O2_21 
REMARK       I    between atoms: O6_3  and  C6_7 
REMARK       I    between atoms: C1_4  and  O3_17 
REMARK       I    between atoms: O1_5  and  C1_23 
REMARK       I    between atoms: C3_6  and  O3_9 
REMARK       I    between atoms: C6_7  and  C5_22 
REMARK       I    between atoms: C2_8  and  N2_19 
REMARK       I    between atoms: C3_10  and  O3_17 
REMARK       I    between atoms: O4_11  and  C4_15 
REMARK       I    between atoms: C6_16  and  C5_26 
REMARK       I    between atoms: C7_18  and  C8_24 
REMARK       I    between atoms: C7_18  and  N2_19 
ROOT
ATOM      1  C2  GAD d 809      -1.504  39.455  75.973  0.00  0.00     0.111 C 
ATOM      2  O6A GAD d 809      -6.161  39.638  78.577  0.00  0.00    -0.642 OA
ATOM      3  C1  GAD d 809      -1.695  38.809  77.354  0.00  0.00     0.165 C 
ATOM      4  C3  GAD d 809      -2.653  40.413  75.655  0.00  0.00     0.084 C 
ATOM      5  O3  GAD d 809      -3.023  40.306  74.267  0.00  0.00    -0.389 OA
ATOM      6  C4  GAD d 809      -3.808  40.340  76.703  0.00  0.00    -0.034 C 
ATOM      7  O5  GAD d 809      -3.002  38.206  77.197  0.00  0.00    -0.311 OA
ATOM      8  C6  GAD d 809      -5.231  38.822  78.250  0.00  0.00     0.233 C 
ATOM      9  O6B GAD d 809      -5.164  37.610  78.594  0.00  0.00    -0.642 OA
ATOM     10  O2  GAD d 809      -0.333  40.232  75.913  0.00  0.00    -0.388 OA
ATOM     11  C5  GAD d 809      -4.045  39.188  77.341  0.00  0.00     0.147 C 
ATOM     12  H   GAD d 809      -1.458  38.643  75.278  0.00  0.00     0.095 H 
ATOM     13  H   GAD d 809      -1.773  39.382  78.255  0.00  0.00     0.134 H 
ATOM     14  H   GAD d 809      -2.321  41.423  75.770  0.00  0.00     0.093 H 
ATOM     15  H   GAD d 809      -3.338  39.406  74.084  0.00  0.00     0.210 HD
ATOM     16  H   GAD d 809      -4.383  41.173  76.902  0.00  0.00     0.085 H 
ATOM     17  H   GAD d 809      -0.396  40.961  76.549  0.00  0.00     0.210 HD
ATOM     18  O6  NAG d 810       0.733  34.083  82.088  0.00  0.00    -0.398 OA
ATOM     19  O1  NAG d 810       2.001  38.756  81.986  0.00  0.00    -0.369 OA
ATOM     20  C6  NAG d 810       0.419  34.408  80.776  0.00  0.00     0.043 C 
ATOM     21  C2  NAG d 810       0.829  38.480  79.847  0.00  0.00     0.087 C 
ATOM     22  C3  NAG d 810      -0.374  37.814  79.226  0.00  0.00     0.093 C 
ATOM     23  O4  NAG d 810      -1.190  35.590  78.696  0.00  0.00    -0.390 OA
ATOM     24  O5  NAG d 810       1.153  36.638  81.384  0.00  0.00    -0.349 OA
ATOM     25  C4  NAG d 810      -0.134  36.312  79.326  0.00  0.00     0.089 C 
ATOM     26  O3  NAG d 810      -0.575  38.272  77.876  0.00  0.00    -0.348 OA
ATOM     27  C7  NAG d 810       1.383  40.627  78.849  0.00  0.00     0.214 C 
ATOM     28  N2  NAG d 810       0.674  39.900  79.701  0.00  0.00    -0.349 N 
ATOM     29  C5  NAG d 810       0.079  35.900  80.800  0.00  0.00     0.089 C 
ATOM     30  C1  NAG d 810       0.939  38.057  81.332  0.00  0.00     0.151 C 
ATOM     31  C8  NAG d 810       0.874  42.038  78.603  0.00  0.00    -0.003 C 
ATOM     32  O7  NAG d 810       2.388  40.178  78.322  0.00  0.00    -0.274 OA
ATOM     33  H   NAG d 810       0.962  33.142  82.142  0.00  0.00     0.209 HD
ATOM     34  H   NAG d 810       1.836  39.711  81.940  0.00  0.00     0.212 HD
ATOM     35  H   NAG d 810      -0.420  33.837  80.439  0.00  0.00     0.078 H 
ATOM     36  H   NAG d 810       1.227  34.193  80.107  0.00  0.00     0.078 H 
ATOM     37  H   NAG d 810       1.736  38.183  79.362  0.00  0.00     0.084 H 
ATOM     38  H   NAG d 810      -1.279  38.065  79.738  0.00  0.00     0.091 H 
ATOM     39  H   NAG d 810      -1.281  35.886  77.777  0.00  0.00     0.210 HD
ATOM     40  H   NAG d 810       0.763  36.062  78.799  0.00  0.00     0.091 H 
ATOM     41  H   NAG d 810       0.006  40.357  80.262  0.00  0.00     0.163 HD
ATOM     42  H   NAG d 810      -0.795  36.098  81.385  0.00  0.00     0.090 H 
ATOM     43  H   NAG d 810       0.033  38.306  81.845  0.00  0.00     0.132 H 
ATOM     44  H   NAG d 810      -0.017  42.200  79.173  0.00  0.00     0.040 H 
ATOM     45  H   NAG d 810       0.659  42.163  77.563  0.00  0.00     0.040 H 
ATOM     46  H   NAG d 810       1.622  42.744  78.901  0.00  0.00     0.040 H 
ENDROOT
TORSDOF 11
ENDMDL
MODEL 4
REMARK VINA RESULT:      -8.5      2.087      4.000
REMARK  0 active torsions:
REMARK  status: ('A' for Active; 'I' for Inactive)
REMARK       I    between atoms: C2_1  and  O2_21 
REMARK       I    between atoms: O6_3  and  C6_7 
REMARK       I    between atoms: C1_4  and  O3_17 
REMARK       I    between atoms: O1_5  and  C1_23 
REMARK       I    between atoms: C3_6  and  O3_9 
REMARK       I    between atoms: C6_7  and  C5_22 
REMARK       I    between atoms: C2_8  and  N2_19 
REMARK       I    between atoms: C3_10  and  O3_17 
REMARK       I    between atoms: O4_11  and  C4_15 
REMARK       I    between atoms: C6_16  and  C5_26 
REMARK       I    between atoms: C7_18  and  C8_24 
REMARK       I    between atoms: C7_18  and  N2_19 
ROOT
ATOM      1  C2  GAD d 809      -1.019  39.461  74.873  0.00  0.00     0.111 C 
ATOM      2  O6A GAD d 809      -5.735  37.757  76.706  0.00  0.00    -0.642 OA
ATOM      3  C1  GAD d 809      -1.150  38.671  76.185  0.00  0.00     0.165 C 
ATOM      4  C3  GAD d 809      -2.381  39.974  74.407  0.00  0.00     0.084 C 
ATOM      5  O3  GAD d 809      -2.493  39.864  72.975  0.00  0.00    -0.389 OA
ATOM      6  C4  GAD d 809      -3.563  39.407  75.254  0.00  0.00    -0.034 C 
ATOM      7  O5  GAD d 809      -2.114  37.661  75.802  0.00  0.00    -0.311 OA
ATOM      8  C6  GAD d 809      -4.536  37.355  76.507  0.00  0.00     0.233 C 
ATOM      9  O6B GAD d 809      -4.082  36.220  76.818  0.00  0.00    -0.642 OA
ATOM     10  O2  GAD d 809      -0.213  40.604  75.025  0.00  0.00    -0.388 OA
ATOM     11  C5  GAD d 809      -3.451  38.194  75.810  0.00  0.00     0.147 C 
ATOM     12  H   GAD d 809      -0.586  38.781  74.169  0.00  0.00     0.095 H 
ATOM     13  H   GAD d 809      -1.553  39.099  77.080  0.00  0.00     0.134 H 
ATOM     14  H   GAD d 809      -2.458  41.023  74.605  0.00  0.00     0.093 H 
ATOM     15  H   GAD d 809      -2.432  38.931  72.716  0.00  0.00     0.210 HD
ATOM     16  H   GAD d 809      -4.423  39.962  75.386  0.00  0.00     0.085 H 
ATOM     17  H   GAD d 809      -0.623  41.206  75.666  0.00  0.00     0.210 HD
ATOM     18  O6  NAG d 810       2.154  34.717  81.094  0.00  0.00    -0.398 OA
ATOM     19  O1  NAG d 810       1.640  39.526  81.344  0.00  0.00    -0.369 OA
ATOM     20  C6  NAG d 810       1.927  35.023  79.759  0.00  0.00     0.043 C 
ATOM     21  C2  NAG d 810       0.954  39.041  79.037  0.00  0.00     0.087 C 
ATOM     22  C3  NAG d 810       0.172  38.049  78.212  0.00  0.00     0.093 C 
ATOM     23  O4  NAG d 810       0.300  35.735  77.488  0.00  0.00    -0.390 OA
ATOM     24  O5  NAG d 810       1.710  37.307  80.547  0.00  0.00    -0.349 OA
ATOM     25  C4  NAG d 810       0.925  36.727  78.301  0.00  0.00     0.089 C 
ATOM     26  O3  NAG d 810       0.006  38.522  76.862  0.00  0.00    -0.348 OA
ATOM     27  C7  NAG d 810       0.823  41.323  78.209  0.00  0.00     0.214 C 
ATOM     28  N2  NAG d 810       0.315  40.321  78.913  0.00  0.00    -0.349 N 
ATOM     29  C5  NAG d 810       1.068  36.289  79.776  0.00  0.00     0.089 C 
ATOM     30  C1  NAG d 810       1.005  38.556  80.506  0.00  0.00     0.151 C 
ATOM     31  C8  NAG d 810      -0.125  42.479  77.929  0.00  0.00    -0.003 C 
ATOM     32  O7  NAG d 810       1.984  41.307  77.835  0.00  0.00    -0.274 OA
ATOM     33  H   NAG d 810       2.698  33.917  81.154  0.00  0.00     0.209 HD
ATOM     34  H   NAG d 810       1.148  40.362  81.301  0.00  0.00     0.212 HD
ATOM     35  H   NAG d 810       1.407  34.223  79.275  0.00  0.00     0.078 H 
ATOM     36  H   NAG d 810       2.841  35.167  79.221  0.00  0.00     0.078 H 
ATOM     37  H   NAG d 810       1.964  39.127  78.694  0.00  0.00     0.084 H 
ATOM     38  H   NAG d 810      -0.823  37.918  78.580  0.00  0.00     0.091 H 
ATOM     39  H   NAG d 810       0.235  36.059  76.576  0.00  0.00     0.210 HD
ATOM     40  H   NAG d 810       1.915  36.857  77.915  0.00  0.00     0.091 H 
ATOM     41  H   NAG d 810      -0.542  40.462  79.375  0.00  0.00     0.163 HD
ATOM     42  H   NAG d 810       0.111  36.114  80.220  0.00  0.00     0.090 H 
ATOM     43  H   NAG d 810       0.010  38.423  80.876  0.00  0.00     0.132 H 
ATOM     44  H   NAG d 810      -1.083  42.265  78.355  0.00  0.00     0.040 H 
ATOM     45  H   NAG d 810      -0.226  42.609  76.873  0.00  0.00     0.040 H 
ATOM     46  H   NAG d 810       0.267  43.375  78.365  0.00  0.00     0.040 H 
ENDROOT
TORSDOF 11
ENDMDL
MODEL 5
REMARK VINA RESULT:      -8.2      2.952      5.763
REMARK  0 active torsions:
REMARK  status: ('A' for Active; 'I' for Inactive)
REMARK       I    between atoms: C2_1  and  O2_21 
REMARK       I    between atoms: O6_3  and  C6_7 
REMARK       I    between atoms: C1_4  and  O3_17 
REMARK       I    between atoms: O1_5  and  C1_23 
REMARK       I    between atoms: C3_6  and  O3_9 
REMARK       I    between atoms: C6_7  and  C5_22 
REMARK       I    between atoms: C2_8  and  N2_19 
REMARK       I    between atoms: C3_10  and  O3_17 
REMARK       I    between atoms: O4_11  and  C4_15 
REMARK       I    between atoms: C6_16  and  C5_26 
REMARK       I    between atoms: C7_18  and  C8_24 
REMARK       I    between atoms: C7_18  and  N2_19 
ROOT
ATOM      1  C2  GAD d 809      -3.097  39.669  77.358  0.00  0.00     0.111 C 
ATOM      2  O6A GAD d 809      -1.699  40.004  72.217  0.00  0.00    -0.642 OA
ATOM      3  C1  GAD d 809      -2.105  38.688  76.715  0.00  0.00     0.165 C 
ATOM      4  C3  GAD d 809      -3.856  40.457  76.290  0.00  0.00     0.084 C 
ATOM      5  O3  GAD d 809      -4.024  41.826  76.705  0.00  0.00    -0.389 OA
ATOM      6  C4  GAD d 809      -3.298  40.217  74.852  0.00  0.00    -0.034 C 
ATOM      7  O5  GAD d 809      -1.312  39.591  75.907  0.00  0.00    -0.311 OA
ATOM      8  C6  GAD d 809      -1.192  39.857  73.382  0.00  0.00     0.233 C 
ATOM      9  O6B GAD d 809       0.029  39.660  73.631  0.00  0.00    -0.642 OA
ATOM     10  O2  GAD d 809      -4.082  39.003  78.111  0.00  0.00    -0.388 OA
ATOM     11  C5  GAD d 809      -2.000  39.934  74.689  0.00  0.00     0.147 C 
ATOM     12  H   GAD d 809      -2.509  40.308  77.983  0.00  0.00     0.095 H 
ATOM     13  H   GAD d 809      -2.409  37.920  76.035  0.00  0.00     0.134 H 
ATOM     14  H   GAD d 809      -4.851  40.076  76.201  0.00  0.00     0.093 H 
ATOM     15  H   GAD d 809      -3.154  42.243  76.808  0.00  0.00     0.210 HD
ATOM     16  H   GAD d 809      -3.924  40.276  74.034  0.00  0.00     0.085 H 
ATOM     17  H   GAD d 809      -4.603  38.431  77.527  0.00  0.00     0.210 HD
ATOM     18  O6  NAG d 810       3.066  33.917  77.780  0.00  0.00    -0.398 OA
ATOM     19  O1  NAG d 810      -1.641  32.828  77.462  0.00  0.00    -0.369 OA
ATOM     20  C6  NAG d 810       2.496  35.147  78.074  0.00  0.00     0.043 C 
ATOM     21  C2  NAG d 810      -1.677  35.275  77.644  0.00  0.00     0.087 C 
ATOM     22  C3  NAG d 810      -0.960  36.514  77.169  0.00  0.00     0.093 C 
ATOM     23  O4  NAG d 810       1.180  37.631  77.431  0.00  0.00    -0.390 OA
ATOM     24  O5  NAG d 810       0.386  34.010  77.703  0.00  0.00    -0.349 OA
ATOM     25  C4  NAG d 810       0.441  36.458  77.766  0.00  0.00     0.089 C 
ATOM     26  O3  NAG d 810      -1.689  37.701  77.533  0.00  0.00    -0.348 OA
ATOM     27  C7  NAG d 810      -4.070  35.583  77.944  0.00  0.00     0.214 C 
ATOM     28  N2  NAG d 810      -3.029  35.333  77.163  0.00  0.00    -0.349 N 
ATOM     29  C5  NAG d 810       1.155  35.157  77.336  0.00  0.00     0.089 C 
ATOM     30  C1  NAG d 810      -0.929  34.022  77.128  0.00  0.00     0.151 C 
ATOM     31  C8  NAG d 810      -5.368  35.918  77.226  0.00  0.00    -0.003 C 
ATOM     32  O7  NAG d 810      -3.975  35.524  79.160  0.00  0.00    -0.274 OA
ATOM     33  H   NAG d 810       3.927  33.846  78.222  0.00  0.00     0.209 HD
ATOM     34  H   NAG d 810      -2.526  32.856  77.064  0.00  0.00     0.212 HD
ATOM     35  H   NAG d 810       3.121  35.943  77.726  0.00  0.00     0.078 H 
ATOM     36  H   NAG d 810       2.373  35.289  79.128  0.00  0.00     0.078 H 
ATOM     37  H   NAG d 810      -1.695  35.219  78.713  0.00  0.00     0.084 H 
ATOM     38  H   NAG d 810      -0.891  36.553  76.102  0.00  0.00     0.091 H 
ATOM     39  H   NAG d 810       0.690  38.416  77.722  0.00  0.00     0.210 HD
ATOM     40  H   NAG d 810       0.369  36.437  78.833  0.00  0.00     0.091 H 
ATOM     41  H   NAG d 810      -3.190  35.180  76.204  0.00  0.00     0.163 HD
ATOM     42  H   NAG d 810       1.286  35.122  76.275  0.00  0.00     0.090 H 
ATOM     43  H   NAG d 810      -0.858  34.059  76.061  0.00  0.00     0.132 H 
ATOM     44  H   NAG d 810      -5.202  35.908  76.169  0.00  0.00     0.040 H 
ATOM     45  H   NAG d 810      -5.701  36.888  77.527  0.00  0.00     0.040 H 
ATOM     46  H   NAG d 810      -6.112  35.190  77.478  0.00  0.00     0.040 H 
ENDROOT
TORSDOF 11
ENDMDL
MODEL 6
REMARK VINA RESULT:      -8.0      1.966      2.376
REMARK  0 active torsions:
REMARK  status: ('A' for Active; 'I' for Inactive)
REMARK       I    between atoms: C2_1  and  O2_21 
REMARK       I    between atoms: O6_3  and  C6_7 
REMARK       I    between atoms: C1_4  and  O3_17 
REMARK       I    between atoms: O1_5  and  C1_23 
REMARK       I    between atoms: C3_6  and  O3_9 
REMARK       I    between atoms: C6_7  and  C5_22 
REMARK       I    between atoms: C2_8  and  N2_19 
REMARK       I    between atoms: C3_10  and  O3_17 
REMARK       I    between atoms: O4_11  and  C4_15 
REMARK       I    between atoms: C6_16  and  C5_26 
REMARK       I    between atoms: C7_18  and  C8_24 
REMARK       I    between atoms: C7_18  and  N2_19 
ROOT
ATOM      1  C2  GAD d 809      -2.681  36.245  76.472  0.00  0.00     0.111 C 
ATOM      2  O6A GAD d 809      -5.082  36.312  81.240  0.00  0.00    -0.642 OA
ATOM      3  C1  GAD d 809      -2.004  36.831  77.721  0.00  0.00     0.165 C 
ATOM      4  C3  GAD d 809      -4.179  36.048  76.705  0.00  0.00     0.084 C 
ATOM      5  O3  GAD d 809      -4.621  34.818  76.099  0.00  0.00    -0.389 OA
ATOM      6  C4  GAD d 809      -4.597  36.296  78.188  0.00  0.00    -0.034 C 
ATOM      7  O5  GAD d 809      -2.369  35.847  78.718  0.00  0.00    -0.311 OA
ATOM      8  C6  GAD d 809      -3.964  36.022  80.688  0.00  0.00     0.233 C 
ATOM      9  O6B GAD d 809      -2.922  35.651  81.294  0.00  0.00    -0.642 OA
ATOM     10  O2  GAD d 809      -2.578  37.106  75.364  0.00  0.00    -0.388 OA
ATOM     11  C5  GAD d 809      -3.722  36.046  79.169  0.00  0.00     0.147 C 
ATOM     12  H   GAD d 809      -2.182  35.318  76.281  0.00  0.00     0.095 H 
ATOM     13  H   GAD d 809      -2.294  37.767  78.151  0.00  0.00     0.134 H 
ATOM     14  H   GAD d 809      -4.726  36.813  76.196  0.00  0.00     0.093 H 
ATOM     15  H   GAD d 809      -4.164  34.070  76.514  0.00  0.00     0.210 HD
ATOM     16  H   GAD d 809      -5.540  36.650  78.411  0.00  0.00     0.085 H 
ATOM     17  H   GAD d 809      -3.036  37.938  75.558  0.00  0.00     0.210 HD
ATOM     18  O6  NAG d 810       4.108  38.774  80.804  0.00  0.00    -0.398 OA
ATOM     19  O1  NAG d 810       1.280  41.739  78.223  0.00  0.00    -0.369 OA
ATOM     20  C6  NAG d 810       3.386  37.856  80.056  0.00  0.00     0.043 C 
ATOM     21  C2  NAG d 810       0.318  39.534  77.735  0.00  0.00     0.087 C 
ATOM     22  C3  NAG d 810      -0.036  38.220  78.386  0.00  0.00     0.093 C 
ATOM     23  O4  NAG d 810       1.056  36.295  79.386  0.00  0.00    -0.390 OA
ATOM     24  O5  NAG d 810       2.255  39.806  79.160  0.00  0.00    -0.349 OA
ATOM     25  C4  NAG d 810       1.280  37.585  78.820  0.00  0.00     0.089 C 
ATOM     26  O3  NAG d 810      -0.801  37.392  77.489  0.00  0.00    -0.348 OA
ATOM     27  C7  NAG d 810      -1.204  40.187  75.955  0.00  0.00     0.214 C 
ATOM     28  N2  NAG d 810      -0.895  40.125  77.242  0.00  0.00    -0.349 N 
ATOM     29  C5  NAG d 810       2.043  38.533  79.773  0.00  0.00     0.089 C 
ATOM     30  C1  NAG d 810       1.029  40.441  78.768  0.00  0.00     0.151 C 
ATOM     31  C8  NAG d 810      -2.646  40.552  75.641  0.00  0.00    -0.003 C 
ATOM     32  O7  NAG d 810      -0.366  39.978  75.094  0.00  0.00    -0.274 OA
ATOM     33  H   NAG d 810       4.979  38.404  81.018  0.00  0.00     0.209 HD
ATOM     34  H   NAG d 810       0.439  42.149  77.965  0.00  0.00     0.212 HD
ATOM     35  H   NAG d 810       3.241  36.952  80.610  0.00  0.00     0.078 H 
ATOM     36  H   NAG d 810       3.896  37.587  79.154  0.00  0.00     0.078 H 
ATOM     37  H   NAG d 810       0.991  39.396  76.914  0.00  0.00     0.084 H 
ATOM     38  H   NAG d 810      -0.667  38.353  79.239  0.00  0.00     0.091 H 
ATOM     39  H   NAG d 810       0.576  35.743  78.750  0.00  0.00     0.210 HD
ATOM     40  H   NAG d 810       1.901  37.438  77.961  0.00  0.00     0.091 H 
ATOM     41  H   NAG d 810      -1.528  40.504  77.894  0.00  0.00     0.163 HD
ATOM     42  H   NAG d 810       1.488  38.705  80.671  0.00  0.00     0.090 H 
ATOM     43  H   NAG d 810       0.400  40.573  79.624  0.00  0.00     0.132 H 
ATOM     44  H   NAG d 810      -3.187  40.686  76.554  0.00  0.00     0.040 H 
ATOM     45  H   NAG d 810      -3.097  39.767  75.071  0.00  0.00     0.040 H 
ATOM     46  H   NAG d 810      -2.669  41.461  75.076  0.00  0.00     0.040 H 
ENDROOT
TORSDOF 11
ENDMDL
MODEL 7
REMARK VINA RESULT:      -8.0      1.952      3.289
REMARK  0 active torsions:
REMARK  status: ('A' for Active; 'I' for Inactive)
REMARK       I    between atoms: C2_1  and  O2_21 
REMARK       I    between atoms: O6_3  and  C6_7 
REMARK       I    between atoms: C1_4  and  O3_17 
REMARK       I    between atoms: O1_5  and  C1_23 
REMARK       I    between atoms: C3_6  and  O3_9 
REMARK       I    between atoms: C6_7  and  C5_22 
REMARK       I    between atoms: C2_8  and  N2_19 
REMARK       I    between atoms: C3_10  and  O3_17 
REMARK       I    between atoms: O4_11  and  C4_15 
REMARK       I    between atoms: C6_16  and  C5_26 
REMARK       I    between atoms: C7_18  and  C8_24 
REMARK       I    between atoms: C7_18  and  N2_19 
ROOT
ATOM      1  C2  GAD d 809      -1.903  38.790  74.700  0.00  0.00     0.111 C 
ATOM      2  O6A GAD d 809      -5.410  35.905  77.506  0.00  0.00    -0.642 OA
ATOM      3  C1  GAD d 809      -1.556  38.187  76.071  0.00  0.00     0.165 C 
ATOM      4  C3  GAD d 809      -3.412  38.760  74.457  0.00  0.00     0.084 C 
ATOM      5  O3  GAD d 809      -3.691  38.426  73.084  0.00  0.00    -0.389 OA
ATOM      6  C4  GAD d 809      -4.185  37.959  75.552  0.00  0.00    -0.034 C 
ATOM      7  O5  GAD d 809      -2.158  36.876  75.954  0.00  0.00    -0.311 OA
ATOM      8  C6  GAD d 809      -4.191  35.893  77.119  0.00  0.00     0.233 C 
ATOM      9  O6B GAD d 809      -3.331  35.023  77.427  0.00  0.00    -0.642 OA
ATOM     10  O2  GAD d 809      -1.528  40.143  74.610  0.00  0.00    -0.388 OA
ATOM     11  C5  GAD d 809      -3.580  36.937  76.169  0.00  0.00     0.147 C 
ATOM     12  H   GAD d 809      -1.372  38.200  73.983  0.00  0.00     0.095 H 
ATOM     13  H   GAD d 809      -1.944  38.577  76.989  0.00  0.00     0.134 H 
ATOM     14  H   GAD d 809      -3.816  39.743  74.584  0.00  0.00     0.093 H 
ATOM     15  H   GAD d 809      -3.350  37.538  72.892  0.00  0.00     0.210 HD
ATOM     16  H   GAD d 809      -5.154  38.215  75.798  0.00  0.00     0.085 H 
ATOM     17  H   GAD d 809      -2.021  40.659  75.267  0.00  0.00     0.210 HD
ATOM     18  O6  NAG d 810       3.602  36.239  80.569  0.00  0.00    -0.398 OA
ATOM     19  O1  NAG d 810       1.501  40.602  80.536  0.00  0.00    -0.369 OA
ATOM     20  C6  NAG d 810       3.087  36.268  79.281  0.00  0.00     0.043 C 
ATOM     21  C2  NAG d 810       0.690  39.610  78.443  0.00  0.00     0.087 C 
ATOM     22  C3  NAG d 810       0.186  38.314  77.857  0.00  0.00     0.093 C 
ATOM     23  O4  NAG d 810       0.995  36.093  77.304  0.00  0.00    -0.390 OA
ATOM     24  O5  NAG d 810       2.214  38.441  79.916  0.00  0.00    -0.349 OA
ATOM     25  C4  NAG d 810       1.353  37.336  77.907  0.00  0.00     0.089 C 
ATOM     26  O3  NAG d 810      -0.333  38.518  76.530  0.00  0.00    -0.348 OA
ATOM     27  C7  NAG d 810      -0.344  41.588  77.479  0.00  0.00     0.214 C 
ATOM     28  N2  NAG d 810      -0.363  40.582  78.341  0.00  0.00    -0.349 N 
ATOM     29  C5  NAG d 810       1.857  37.174  79.359  0.00  0.00     0.089 C 
ATOM     30  C1  NAG d 810       1.123  39.373  79.910  0.00  0.00     0.151 C 
ATOM     31  C8  NAG d 810      -1.663  42.321  77.292  0.00  0.00    -0.003 C 
ATOM     32  O7  NAG d 810       0.682  41.901  76.897  0.00  0.00    -0.274 OA
ATOM     33  H   NAG d 810       4.392  35.677  80.589  0.00  0.00     0.209 HD
ATOM     34  H   NAG d 810       0.751  41.217  80.522  0.00  0.00     0.212 HD
ATOM     35  H   NAG d 810       2.809  35.284  78.966  0.00  0.00     0.078 H 
ATOM     36  H   NAG d 810       3.804  36.629  78.573  0.00  0.00     0.078 H 
ATOM     37  H   NAG d 810       1.545  39.974  77.912  0.00  0.00     0.084 H 
ATOM     38  H   NAG d 810      -0.637  37.917  78.414  0.00  0.00     0.091 H 
ATOM     39  H   NAG d 810       0.688  36.250  76.398  0.00  0.00     0.210 HD
ATOM     40  H   NAG d 810       2.168  37.729  77.335  0.00  0.00     0.091 H 
ATOM     41  H   NAG d 810      -1.137  40.495  78.942  0.00  0.00     0.163 HD
ATOM     42  H   NAG d 810       1.096  36.758  79.986  0.00  0.00     0.090 H 
ATOM     43  H   NAG d 810       0.302  38.974  80.468  0.00  0.00     0.132 H 
ATOM     44  H   NAG d 810      -2.413  41.865  77.904  0.00  0.00     0.040 H 
ATOM     45  H   NAG d 810      -1.958  42.266  76.266  0.00  0.00     0.040 H 
ATOM     46  H   NAG d 810      -1.545  43.346  77.576  0.00  0.00     0.040 H 
ENDROOT
TORSDOF 11
ENDMDL
MODEL 8
REMARK VINA RESULT:      -7.8      2.893      4.683
REMARK  0 active torsions:
REMARK  status: ('A' for Active; 'I' for Inactive)
REMARK       I    between atoms: C2_1  and  O2_21 
REMARK       I    between atoms: O6_3  and  C6_7 
REMARK       I    between atoms: C1_4  and  O3_17 
REMARK       I    between atoms: O1_5  and  C1_23 
REMARK       I    between atoms: C3_6  and  O3_9 
REMARK       I    between atoms: C6_7  and  C5_22 
REMARK       I    between atoms: C2_8  and  N2_19 
REMARK       I    between atoms: C3_10  and  O3_17 
REMARK       I    between atoms: O4_11  and  C4_15 
REMARK       I    between atoms: C6_16  and  C5_26 
REMARK       I    between atoms: C7_18  and  C8_24 
REMARK       I    between atoms: C7_18  and  N2_19 
ROOT
ATOM      1  C2  GAD d 809      -1.364  39.192  75.805  0.00  0.00     0.111 C 
ATOM      2  O6A GAD d 809      -5.699  37.203  78.205  0.00  0.00    -0.642 OA
ATOM      3  C1  GAD d 809      -1.291  37.995  76.766  0.00  0.00     0.165 C 
ATOM      4  C3  GAD d 809      -2.708  39.911  75.931  0.00  0.00     0.084 C 
ATOM      5  O3  GAD d 809      -3.176  40.325  74.633  0.00  0.00    -0.389 OA
ATOM      6  C4  GAD d 809      -3.721  39.143  76.836  0.00  0.00    -0.034 C 
ATOM      7  O5  GAD d 809      -2.457  37.242  76.355  0.00  0.00    -0.311 OA
ATOM      8  C6  GAD d 809      -4.656  36.835  77.561  0.00  0.00     0.233 C 
ATOM      9  O6B GAD d 809      -4.312  35.641  77.342  0.00  0.00    -0.642 OA
ATOM     10  O2  GAD d 809      -0.386  40.161  76.096  0.00  0.00    -0.388 OA
ATOM     11  C5  GAD d 809      -3.660  37.808  76.907  0.00  0.00     0.147 C 
ATOM     12  H   GAD d 809      -1.219  38.787  74.826  0.00  0.00     0.095 H 
ATOM     13  H   GAD d 809      -1.399  38.096  77.826  0.00  0.00     0.134 H 
ATOM     14  H   GAD d 809      -2.579  40.822  76.476  0.00  0.00     0.093 H 
ATOM     15  H   GAD d 809      -3.317  39.544  74.075  0.00  0.00     0.210 HD
ATOM     16  H   GAD d 809      -4.433  39.660  77.376  0.00  0.00     0.085 H 
ATOM     17  H   GAD d 809      -0.537  40.515  76.986  0.00  0.00     0.210 HD
ATOM     18  O6  NAG d 810       2.477  32.379  78.980  0.00  0.00    -0.398 OA
ATOM     19  O1  NAG d 810       2.753  36.802  80.931  0.00  0.00    -0.369 OA
ATOM     20  C6  NAG d 810       1.983  33.152  77.939  0.00  0.00     0.043 C 
ATOM     21  C2  NAG d 810       1.468  37.209  78.879  0.00  0.00     0.087 C 
ATOM     22  C3  NAG d 810       0.374  36.621  78.024  0.00  0.00     0.093 C 
ATOM     23  O4  NAG d 810      -0.020  34.714  76.574  0.00  0.00    -0.390 OA
ATOM     24  O5  NAG d 810       2.301  35.013  79.462  0.00  0.00    -0.349 OA
ATOM     25  C4  NAG d 810       0.922  35.315  77.461  0.00  0.00     0.089 C 
ATOM     26  O3  NAG d 810      -0.041  37.552  77.008  0.00  0.00    -0.348 OA
ATOM     27  C7  NAG d 810       1.479  39.640  78.920  0.00  0.00     0.214 C 
ATOM     28  N2  NAG d 810       1.015  38.482  79.366  0.00  0.00    -0.349 N 
ATOM     29  C5  NAG d 810       1.350  34.373  78.609  0.00  0.00     0.089 C 
ATOM     30  C1  NAG d 810       1.799  36.230  80.032  0.00  0.00     0.151 C 
ATOM     31  C8  NAG d 810       0.673  40.869  79.311  0.00  0.00    -0.003 C 
ATOM     32  O7  NAG d 810       2.501  39.696  78.255  0.00  0.00    -0.274 OA
ATOM     33  H   NAG d 810       2.896  31.581  78.620  0.00  0.00     0.209 HD
ATOM     34  H   NAG d 810       2.394  37.623  81.305  0.00  0.00     0.212 HD
ATOM     35  H   NAG d 810       1.249  32.607  77.382  0.00  0.00     0.078 H 
ATOM     36  H   NAG d 810       2.752  33.429  77.248  0.00  0.00     0.078 H 
ATOM     37  H   NAG d 810       2.367  37.358  78.318  0.00  0.00     0.084 H 
ATOM     38  H   NAG d 810      -0.512  36.421  78.590  0.00  0.00     0.091 H 
ATOM     39  H   NAG d 810      -0.253  35.345  75.875  0.00  0.00     0.210 HD
ATOM     40  H   NAG d 810       1.798  35.521  76.882  0.00  0.00     0.091 H 
ATOM     41  H   NAG d 810       0.323  38.495  80.067  0.00  0.00     0.163 HD
ATOM     42  H   NAG d 810       0.513  34.103  79.217  0.00  0.00     0.090 H 
ATOM     43  H   NAG d 810       0.913  36.028  80.598  0.00  0.00     0.132 H 
ATOM     44  H   NAG d 810      -0.175  40.569  79.890  0.00  0.00     0.040 H 
ATOM     45  H   NAG d 810       0.342  41.373  78.427  0.00  0.00     0.040 H 
ATOM     46  H   NAG d 810       1.286  41.528  79.890  0.00  0.00     0.040 H 
ENDROOT
TORSDOF 11
ENDMDL
MODEL 9
REMARK VINA RESULT:      -7.8      3.258      6.772
REMARK  0 active torsions:
REMARK  status: ('A' for Active; 'I' for Inactive)
REMARK       I    between atoms: C2_1  and  O2_21 
REMARK       I    between atoms: O6_3  and  C6_7 
REMARK       I    between atoms: C1_4  and  O3_17 
REMARK       I    between atoms: O1_5  and  C1_23 
REMARK       I    between atoms: C3_6  and  O3_9 
REMARK       I    between atoms: C6_7  and  C5_22 
REMARK       I    between atoms: C2_8  and  N2_19 
REMARK       I    between atoms: C3_10  and  O3_17 
REMARK       I    between atoms: O4_11  and  C4_15 
REMARK       I    between atoms: C6_16  and  C5_26 
REMARK       I    between atoms: C7_18  and  C8_24 
REMARK       I    between atoms: C7_18  and  N2_19 
ROOT
ATOM      1  C2  GAD d 809       0.890  34.569  77.119  0.00  0.00     0.111 C 
ATOM      2  O6A GAD d 809       3.806  38.003  79.984  0.00  0.00    -0.642 OA
ATOM      3  C1  GAD d 809       0.399  35.989  77.443  0.00  0.00     0.165 C 
ATOM      4  C3  GAD d 809       2.081  34.191  78.000  0.00  0.00     0.084 C 
ATOM      5  O3  GAD d 809       3.051  33.449  77.235  0.00  0.00    -0.389 OA
ATOM      6  C4  GAD d 809       2.614  35.391  78.844  0.00  0.00    -0.034 C 
ATOM      7  O5  GAD d 809       1.611  36.753  77.236  0.00  0.00    -0.311 OA
ATOM      8  C6  GAD d 809       3.111  37.935  78.912  0.00  0.00     0.233 C 
ATOM      9  O6B GAD d 809       2.857  38.900  78.140  0.00  0.00    -0.642 OA
ATOM     10  O2  GAD d 809      -0.097  33.600  77.376  0.00  0.00    -0.388 OA
ATOM     11  C5  GAD d 809       2.495  36.636  78.366  0.00  0.00     0.147 C 
ATOM     12  H   GAD d 809       1.149  34.583  76.082  0.00  0.00     0.095 H 
ATOM     13  H   GAD d 809       0.065  36.278  78.418  0.00  0.00     0.134 H 
ATOM     14  H   GAD d 809       1.763  33.514  78.764  0.00  0.00     0.093 H 
ATOM     15  H   GAD d 809       3.389  34.004  76.515  0.00  0.00     0.210 HD
ATOM     16  H   GAD d 809       3.054  35.227  79.763  0.00  0.00     0.085 H 
ATOM     17  H   GAD d 809      -0.316  33.605  78.321  0.00  0.00     0.210 HD
ATOM     18  O6  NAG d 810      -4.086  41.250  75.755  0.00  0.00    -0.398 OA
ATOM     19  O1  NAG d 810      -5.027  37.789  79.008  0.00  0.00    -0.369 OA
ATOM     20  C6  NAG d 810      -3.189  40.270  75.355  0.00  0.00     0.043 C 
ATOM     21  C2  NAG d 810      -3.004  36.942  77.905  0.00  0.00     0.087 C 
ATOM     22  C3  NAG d 810      -1.670  37.388  77.361  0.00  0.00     0.093 C 
ATOM     23  O4  NAG d 810      -0.764  38.721  75.545  0.00  0.00    -0.390 OA
ATOM     24  O5  NAG d 810      -4.057  39.018  77.243  0.00  0.00    -0.349 OA
ATOM     25  C4  NAG d 810      -1.971  38.301  76.178  0.00  0.00     0.089 C 
ATOM     26  O3  NAG d 810      -0.851  36.256  77.014  0.00  0.00    -0.348 OA
ATOM     27  C7  NAG d 810      -2.969  34.711  78.873  0.00  0.00     0.214 C 
ATOM     28  N2  NAG d 810      -2.758  36.016  78.975  0.00  0.00    -0.349 N 
ATOM     29  C5  NAG d 810      -2.856  39.486  76.627  0.00  0.00     0.089 C 
ATOM     30  C1  NAG d 810      -3.803  38.180  78.380  0.00  0.00     0.151 C 
ATOM     31  C8  NAG d 810      -2.363  33.857  79.975  0.00  0.00    -0.003 C 
ATOM     32  O7  NAG d 810      -3.626  34.249  77.954  0.00  0.00    -0.274 OA
ATOM     33  H   NAG d 810      -4.340  41.788  74.988  0.00  0.00     0.209 HD
ATOM     34  H   NAG d 810      -4.832  37.224  79.772  0.00  0.00     0.212 HD
ATOM     35  H   NAG d 810      -2.305  40.714  74.946  0.00  0.00     0.078 H 
ATOM     36  H   NAG d 810      -3.599  39.640  74.594  0.00  0.00     0.078 H 
ATOM     37  H   NAG d 810      -3.589  36.452  77.156  0.00  0.00     0.084 H 
ATOM     38  H   NAG d 810      -1.099  37.925  78.089  0.00  0.00     0.091 H 
ATOM     39  H   NAG d 810      -0.248  37.943  75.284  0.00  0.00     0.210 HD
ATOM     40  H   NAG d 810      -2.527  37.756  75.444  0.00  0.00     0.091 H 
ATOM     41  H   NAG d 810      -2.415  36.368  79.828  0.00  0.00     0.163 HD
ATOM     42  H   NAG d 810      -2.349  40.094  77.347  0.00  0.00     0.090 H 
ATOM     43  H   NAG d 810      -3.233  38.719  79.107  0.00  0.00     0.132 H 
ATOM     44  H   NAG d 810      -1.836  34.484  80.663  0.00  0.00     0.040 H 
ATOM     45  H   NAG d 810      -1.686  33.149  79.546  0.00  0.00     0.040 H 
ATOM     46  H   NAG d 810      -3.143  33.337  80.493  0.00  0.00     0.040 H 
ENDROOT
TORSDOF 11
ENDMDL
MODEL 10
REMARK VINA RESULT:      -7.8      2.829      6.522
REMARK  0 active torsions:
REMARK  status: ('A' for Active; 'I' for Inactive)
REMARK       I    between atoms: C2_1  and  O2_21 
REMARK       I    between atoms: O6_3  and  C6_7 
REMARK       I    between atoms: C1_4  and  O3_17 
REMARK       I    between atoms: O1_5  and  C1_23 
REMARK       I    between atoms: C3_6  and  O3_9 
REMARK       I    between atoms: C6_7  and  C5_22 
REMARK       I    between atoms: C2_8  and  N2_19 
REMARK       I    between atoms: C3_10  and  O3_17 
REMARK       I    between atoms: O4_11  and  C4_15 
REMARK       I    between atoms: C6_16  and  C5_26 
REMARK       I    between atoms: C7_18  and  C8_24 
REMARK       I    between atoms: C7_18  and  N2_19 
ROOT
ATOM      1  C2  GAD d 809       1.911  36.108  77.593  0.00  0.00     0.111 C 
ATOM      2  O6A GAD d 809       2.074  37.738  82.674  0.00  0.00    -0.642 OA
ATOM      3  C1  GAD d 809       0.864  37.069  78.178  0.00  0.00     0.165 C 
ATOM      4  C3  GAD d 809       2.722  35.442  78.705  0.00  0.00     0.084 C 
ATOM      5  O3  GAD d 809       4.106  35.335  78.319  0.00  0.00    -0.389 OA
ATOM      6  C4  GAD d 809       2.425  36.045  80.114  0.00  0.00    -0.034 C 
ATOM      7  O5  GAD d 809       1.706  37.945  78.966  0.00  0.00    -0.311 OA
ATOM      8  C6  GAD d 809       1.919  38.187  81.486  0.00  0.00     0.233 C 
ATOM      9  O6B GAD d 809       1.658  39.383  81.182  0.00  0.00    -0.642 OA
ATOM     10  O2  GAD d 809       1.316  35.056  76.873  0.00  0.00    -0.388 OA
ATOM     11  C5  GAD d 809       2.066  37.330  80.217  0.00  0.00     0.147 C 
ATOM     12  H   GAD d 809       2.527  36.706  76.954  0.00  0.00     0.095 H 
ATOM     13  H   GAD d 809       0.102  36.750  78.858  0.00  0.00     0.134 H 
ATOM     14  H   GAD d 809       2.396  34.430  78.831  0.00  0.00     0.093 H 
ATOM     15  H   GAD d 809       4.474  36.222  78.186  0.00  0.00     0.210 HD
ATOM     16  H   GAD d 809       2.504  35.458  80.959  0.00  0.00     0.085 H 
ATOM     17  H   GAD d 809       0.764  34.528  77.471  0.00  0.00     0.210 HD
ATOM     18  O6  NAG d 810      -4.173  41.908  76.817  0.00  0.00    -0.398 OA
ATOM     19  O1  NAG d 810      -4.999  37.163  77.321  0.00  0.00    -0.369 OA
ATOM     20  C6  NAG d 810      -2.907  41.397  76.568  0.00  0.00     0.043 C 
ATOM     21  C2  NAG d 810      -2.550  37.260  77.178  0.00  0.00     0.087 C 
ATOM     22  C3  NAG d 810      -1.363  38.066  77.642  0.00  0.00     0.093 C 
ATOM     23  O4  NAG d 810      -0.365  40.254  77.305  0.00  0.00    -0.390 OA
ATOM     24  O5  NAG d 810      -3.929  39.243  77.012  0.00  0.00    -0.349 OA
ATOM     25  C4  NAG d 810      -1.488  39.436  76.984  0.00  0.00     0.089 C 
ATOM     26  O3  NAG d 810      -0.130  37.392  77.328  0.00  0.00    -0.348 OA
ATOM     27  C7  NAG d 810      -2.102  34.878  76.986  0.00  0.00     0.214 C 
ATOM     28  N2  NAG d 810      -2.424  35.935  77.718  0.00  0.00    -0.349 N 
ATOM     29  C5  NAG d 810      -2.835  40.092  77.363  0.00  0.00     0.089 C 
ATOM     30  C1  NAG d 810      -3.853  37.956  77.643  0.00  0.00     0.151 C 
ATOM     31  C8  NAG d 810      -1.707  33.633  77.765  0.00  0.00    -0.003 C 
ATOM     32  O7  NAG d 810      -2.144  34.918  75.767  0.00  0.00    -0.274 OA
ATOM     33  H   NAG d 810      -4.285  42.743  76.338  0.00  0.00     0.209 HD
ATOM     34  H   NAG d 810      -4.927  36.299  77.757  0.00  0.00     0.212 HD
ATOM     35  H   NAG d 810      -2.155  42.081  76.901  0.00  0.00     0.078 H 
ATOM     36  H   NAG d 810      -2.740  41.238  75.523  0.00  0.00     0.078 H 
ATOM     37  H   NAG d 810      -2.587  37.194  76.111  0.00  0.00     0.084 H 
ATOM     38  H   NAG d 810      -1.348  38.182  78.705  0.00  0.00     0.091 H 
ATOM     39  H   NAG d 810       0.452  39.798  77.048  0.00  0.00     0.210 HD
ATOM     40  H   NAG d 810      -1.485  39.318  75.920  0.00  0.00     0.091 H 
ATOM     41  H   NAG d 810      -2.585  35.806  78.680  0.00  0.00     0.163 HD
ATOM     42  H   NAG d 810      -2.896  40.264  78.417  0.00  0.00     0.090 H 
ATOM     43  H   NAG d 810      -3.839  38.074  78.706  0.00  0.00     0.132 H 
ATOM     44  H   NAG d 810      -1.745  33.842  78.813  0.00  0.00     0.040 H 
ATOM     45  H   NAG d 810      -0.714  33.344  77.494  0.00  0.00     0.040 H 
ATOM     46  H   NAG d 810      -2.386  32.838  77.534  0.00  0.00     0.040 H 
ENDROOT
TORSDOF 11
ENDMDL
MODEL 11
REMARK VINA RESULT:      -7.7      3.023      5.538
REMARK  0 active torsions:
REMARK  status: ('A' for Active; 'I' for Inactive)
REMARK       I    between atoms: C2_1  and  O2_21 
REMARK       I    between atoms: O6_3  and  C6_7 
REMARK       I    between atoms: C1_4  and  O3_17 
REMARK       I    between atoms: O1_5  and  C1_23 
REMARK       I    between atoms: C3_6  and  O3_9 
REMARK       I    between atoms: C6_7  and  C5_22 
REMARK       I    between atoms: C2_8  and  N2_19 
REMARK       I    between atoms: C3_10  and  O3_17 
REMARK       I    between atoms: O4_11  and  C4_15 
REMARK       I    between atoms: C6_16  and  C5_26 
REMARK       I    between atoms: C7_18  and  C8_24 
REMARK       I    between atoms: C7_18  and  N2_19 
ROOT
ATOM      1  C2  GAD d 809      -3.396  38.956  77.731  0.00  0.00     0.111 C 
ATOM      2  O6A GAD d 809      -1.998  39.989  72.682  0.00  0.00    -0.642 OA
ATOM      3  C1  GAD d 809      -2.148  38.335  77.083  0.00  0.00     0.165 C 
ATOM      4  C3  GAD d 809      -4.314  39.566  76.671  0.00  0.00     0.084 C 
ATOM      5  O3  GAD d 809      -4.874  40.804  77.148  0.00  0.00    -0.389 OA
ATOM      6  C4  GAD d 809      -3.669  39.581  75.249  0.00  0.00    -0.034 C 
ATOM      7  O5  GAD d 809      -1.619  39.472  76.360  0.00  0.00    -0.311 OA
ATOM      8  C6  GAD d 809      -1.504  39.917  73.861  0.00  0.00     0.233 C 
ATOM      9  O6B GAD d 809      -0.286  40.054  74.155  0.00  0.00    -0.642 OA
ATOM     10  O2  GAD d 809      -4.174  37.996  78.402  0.00  0.00    -0.388 OA
ATOM     11  C5  GAD d 809      -2.339  39.684  75.132  0.00  0.00     0.147 C 
ATOM     12  H   GAD d 809      -3.030  39.694  78.413  0.00  0.00     0.095 H 
ATOM     13  H   GAD d 809      -2.203  37.555  76.352  0.00  0.00     0.134 H 
ATOM     14  H   GAD d 809      -5.159  38.927  76.517  0.00  0.00     0.093 H 
ATOM     15  H   GAD d 809      -4.160  41.441  77.311  0.00  0.00     0.210 HD
ATOM     16  H   GAD d 809      -4.262  39.513  74.408  0.00  0.00     0.085 H 
ATOM     17  H   GAD d 809      -4.495  37.338  77.766  0.00  0.00     0.210 HD
ATOM     18  O6  NAG d 810       4.125  35.144  78.137  0.00  0.00    -0.398 OA
ATOM     19  O1  NAG d 810      -0.073  32.803  77.549  0.00  0.00    -0.369 OA
ATOM     20  C6  NAG d 810       3.222  36.145  78.467  0.00  0.00     0.043 C 
ATOM     21  C2  NAG d 810      -0.803  35.127  77.855  0.00  0.00     0.087 C 
ATOM     22  C3  NAG d 810      -0.451  36.544  77.477  0.00  0.00     0.093 C 
ATOM     23  O4  NAG d 810       1.279  38.196  77.894  0.00  0.00    -0.390 OA
ATOM     24  O5  NAG d 810       1.530  34.488  77.942  0.00  0.00    -0.349 OA
ATOM     25  C4  NAG d 810       0.891  36.845  78.134  0.00  0.00     0.089 C 
ATOM     26  O3  NAG d 810      -1.495  37.454  77.868  0.00  0.00    -0.348 OA
ATOM     27  C7  NAG d 810      -3.193  34.733  78.061  0.00  0.00     0.214 C 
ATOM     28  N2  NAG d 810      -2.101  34.834  77.316  0.00  0.00    -0.349 N 
ATOM     29  C5  NAG d 810       1.956  35.825  77.670  0.00  0.00     0.089 C 
ATOM     30  C1  NAG d 810       0.283  34.167  77.309  0.00  0.00     0.151 C 
ATOM     31  C8  NAG d 810      -4.511  34.735  77.302  0.00  0.00    -0.003 C 
ATOM     32  O7  NAG d 810      -3.121  34.628  79.274  0.00  0.00    -0.274 OA
ATOM     33  H   NAG d 810       4.957  35.289  78.613  0.00  0.00     0.209 HD
ATOM     34  H   NAG d 810      -0.918  32.608  77.113  0.00  0.00     0.212 HD
ATOM     35  H   NAG d 810       3.608  37.104  78.190  0.00  0.00     0.078 H 
ATOM     36  H   NAG d 810       3.034  36.181  79.520  0.00  0.00     0.078 H 
ATOM     37  H   NAG d 810      -0.836  35.001  78.917  0.00  0.00     0.084 H 
ATOM     38  H   NAG d 810      -0.364  36.666  76.418  0.00  0.00     0.091 H 
ATOM     39  H   NAG d 810       0.579  38.793  78.202  0.00  0.00     0.210 HD
ATOM     40  H   NAG d 810       0.797  36.738  79.194  0.00  0.00     0.091 H 
ATOM     41  H   NAG d 810      -2.185  34.702  76.344  0.00  0.00     0.163 HD
ATOM     42  H   NAG d 810       2.122  35.894  76.616  0.00  0.00     0.090 H 
ATOM     43  H   NAG d 810       0.372  34.289  76.250  0.00  0.00     0.132 H 
ATOM     44  H   NAG d 810      -4.319  34.838  76.255  0.00  0.00     0.040 H 
ATOM     45  H   NAG d 810      -5.113  35.553  77.637  0.00  0.00     0.040 H 
ATOM     46  H   NAG d 810      -5.027  33.814  77.482  0.00  0.00     0.040 H 
ENDROOT
TORSDOF 11
ENDMDL
MODEL 12
REMARK VINA RESULT:      -7.6      2.327      2.869
REMARK  0 active torsions:
REMARK  status: ('A' for Active; 'I' for Inactive)
REMARK       I    between atoms: C2_1  and  O2_21 
REMARK       I    between atoms: O6_3  and  C6_7 
REMARK       I    between atoms: C1_4  and  O3_17 
REMARK       I    between atoms: O1_5  and  C1_23 
REMARK       I    between atoms: C3_6  and  O3_9 
REMARK       I    between atoms: C6_7  and  C5_22 
REMARK       I    between atoms: C2_8  and  N2_19 
REMARK       I    between atoms: C3_10  and  O3_17 
REMARK       I    between atoms: O4_11  and  C4_15 
REMARK       I    between atoms: C6_16  and  C5_26 
REMARK       I    between atoms: C7_18  and  C8_24 
REMARK       I    between atoms: C7_18  and  N2_19 
ROOT
ATOM      1  C2  GAD d 809      -3.973  37.517  76.417  0.00  0.00     0.111 C 
ATOM      2  O6A GAD d 809      -5.377  36.457  81.457  0.00  0.00    -0.642 OA
ATOM      3  C1  GAD d 809      -2.934  37.238  77.514  0.00  0.00     0.165 C 
ATOM      4  C3  GAD d 809      -5.347  37.801  77.025  0.00  0.00     0.084 C 
ATOM      5  O3  GAD d 809      -6.381  37.191  76.230  0.00  0.00    -0.389 OA
ATOM      6  C4  GAD d 809      -5.391  37.540  78.564  0.00  0.00    -0.034 C 
ATOM      7  O5  GAD d 809      -3.561  36.135  78.211  0.00  0.00    -0.311 OA
ATOM      8  C6  GAD d 809      -4.604  36.039  80.526  0.00  0.00     0.233 C 
ATOM      9  O6B GAD d 809      -3.771  35.098  80.632  0.00  0.00    -0.642 OA
ATOM     10  O2  GAD d 809      -3.648  38.659  75.662  0.00  0.00    -0.388 OA
ATOM     11  C5  GAD d 809      -4.596  36.604  79.096  0.00  0.00     0.147 C 
ATOM     12  H   GAD d 809      -3.983  36.644  75.799  0.00  0.00     0.095 H 
ATOM     13  H   GAD d 809      -2.702  37.944  78.285  0.00  0.00     0.134 H 
ATOM     14  H   GAD d 809      -5.551  38.850  76.978  0.00  0.00     0.093 H 
ATOM     15  H   GAD d 809      -6.260  36.228  76.225  0.00  0.00     0.210 HD
ATOM     16  H   GAD d 809      -6.027  38.086  79.166  0.00  0.00     0.085 H 
ATOM     17  H   GAD d 809      -3.645  39.438  76.240  0.00  0.00     0.210 HD
ATOM     18  O6  NAG d 810       3.761  35.347  79.011  0.00  0.00    -0.398 OA
ATOM     19  O1  NAG d 810       2.257  39.922  78.501  0.00  0.00    -0.369 OA
ATOM     20  C6  NAG d 810       2.602  35.157  78.272  0.00  0.00     0.043 C 
ATOM     21  C2  NAG d 810       0.339  38.639  77.664  0.00  0.00     0.087 C 
ATOM     22  C3  NAG d 810      -0.478  37.402  77.942  0.00  0.00     0.093 C 
ATOM     23  O4  NAG d 810      -0.252  34.985  77.897  0.00  0.00    -0.390 OA
ATOM     24  O5  NAG d 810       2.368  37.566  78.432  0.00  0.00    -0.349 OA
ATOM     25  C4  NAG d 810       0.452  36.214  77.727  0.00  0.00     0.089 C 
ATOM     26  O3  NAG d 810      -1.654  37.365  77.112  0.00  0.00    -0.348 OA
ATOM     27  C7  NAG d 810      -0.955  40.479  76.741  0.00  0.00     0.214 C 
ATOM     28  N2  NAG d 810      -0.528  39.778  77.782  0.00  0.00    -0.349 N 
ATOM     29  C5  NAG d 810       1.690  36.328  78.646  0.00  0.00     0.089 C 
ATOM     30  C1  NAG d 810       1.523  38.704  78.658  0.00  0.00     0.151 C 
ATOM     31  C8  NAG d 810      -2.101  41.439  77.018  0.00  0.00    -0.003 C 
ATOM     32  O7  NAG d 810      -0.435  40.359  75.644  0.00  0.00    -0.274 OA
ATOM     33  H   NAG d 810       4.388  34.633  78.818  0.00  0.00     0.209 HD
ATOM     34  H   NAG d 810       1.668  40.677  78.658  0.00  0.00     0.212 HD
ATOM     35  H   NAG d 810       2.142  34.226  78.529  0.00  0.00     0.078 H 
ATOM     36  H   NAG d 810       2.800  35.124  77.221  0.00  0.00     0.078 H 
ATOM     37  H   NAG d 810       0.751  38.622  76.676  0.00  0.00     0.084 H 
ATOM     38  H   NAG d 810      -0.851  37.385  78.945  0.00  0.00     0.091 H 
ATOM     39  H   NAG d 810      -1.015  34.964  77.299  0.00  0.00     0.210 HD
ATOM     40  H   NAG d 810       0.809  36.223  76.718  0.00  0.00     0.091 H 
ATOM     41  H   NAG d 810      -0.820  40.052  78.681  0.00  0.00     0.163 HD
ATOM     42  H   NAG d 810       1.407  36.298  79.677  0.00  0.00     0.090 H 
ATOM     43  H   NAG d 810       1.152  38.686  79.662  0.00  0.00     0.132 H 
ATOM     44  H   NAG d 810      -2.386  41.366  78.047  0.00  0.00     0.040 H 
ATOM     45  H   NAG d 810      -2.935  41.186  76.398  0.00  0.00     0.040 H 
ATOM     46  H   NAG d 810      -1.787  42.440  76.805  0.00  0.00     0.040 H 
ENDROOT
TORSDOF 11
ENDMDL
MODEL 13
REMARK VINA RESULT:      -7.6      2.978      6.071
REMARK  0 active torsions:
REMARK  status: ('A' for Active; 'I' for Inactive)
REMARK       I    between atoms: C2_1  and  O2_21 
REMARK       I    between atoms: O6_3  and  C6_7 
REMARK       I    between atoms: C1_4  and  O3_17 
REMARK       I    between atoms: O1_5  and  C1_23 
REMARK       I    between atoms: C3_6  and  O3_9 
REMARK       I    between atoms: C6_7  and  C5_22 
REMARK       I    between atoms: C2_8  and  N2_19 
REMARK       I    between atoms: C3_10  and  O3_17 
REMARK       I    between atoms: O4_11  and  C4_15 
REMARK       I    between atoms: C6_16  and  C5_26 
REMARK       I    between atoms: C7_18  and  C8_24 
REMARK       I    between atoms: C7_18  and  N2_19 
ROOT
ATOM      1  C2  GAD d 809      -3.529  39.479  77.587  0.00  0.00     0.111 C 
ATOM      2  O6A GAD d 809      -2.280  40.291  72.460  0.00  0.00    -0.642 OA
ATOM      3  C1  GAD d 809      -2.837  38.404  76.733  0.00  0.00     0.165 C 
ATOM      4  C3  GAD d 809      -4.104  40.588  76.707  0.00  0.00     0.084 C 
ATOM      5  O3  GAD d 809      -3.910  41.872  77.330  0.00  0.00    -0.389 OA
ATOM      6  C4  GAD d 809      -3.677  40.456  75.211  0.00  0.00    -0.034 C 
ATOM      7  O5  GAD d 809      -1.874  39.207  76.009  0.00  0.00    -0.311 OA
ATOM      8  C6  GAD d 809      -1.784  39.840  73.550  0.00  0.00     0.233 C 
ATOM      9  O6B GAD d 809      -0.643  39.316  73.674  0.00  0.00    -0.642 OA
ATOM     10  O2  GAD d 809      -4.620  38.958  78.306  0.00  0.00    -0.388 OA
ATOM     11  C5  GAD d 809      -2.498  39.898  74.911  0.00  0.00     0.147 C 
ATOM     12  H   GAD d 809      -2.776  39.847  78.252  0.00  0.00     0.095 H 
ATOM     13  H   GAD d 809      -3.349  37.852  75.973  0.00  0.00     0.134 H 
ATOM     14  H   GAD d 809      -5.166  40.478  76.638  0.00  0.00     0.093 H 
ATOM     15  H   GAD d 809      -2.960  42.044  77.427  0.00  0.00     0.210 HD
ATOM     16  H   GAD d 809      -4.298  40.795  74.460  0.00  0.00     0.085 H 
ATOM     17  H   GAD d 809      -5.289  38.630  77.684  0.00  0.00     0.210 HD
ATOM     18  O6  NAG d 810       1.010  32.418  76.691  0.00  0.00    -0.398 OA
ATOM     19  O1  NAG d 810      -3.829  32.564  76.572  0.00  0.00    -0.369 OA
ATOM     20  C6  NAG d 810       0.777  33.686  77.205  0.00  0.00     0.043 C 
ATOM     21  C2  NAG d 810      -3.244  34.885  77.115  0.00  0.00     0.087 C 
ATOM     22  C3  NAG d 810      -2.258  35.975  76.774  0.00  0.00     0.093 C 
ATOM     23  O4  NAG d 810       0.102  36.484  77.036  0.00  0.00    -0.390 OA
ATOM     24  O5  NAG d 810      -1.563  33.167  76.830  0.00  0.00    -0.349 OA
ATOM     25  C4  NAG d 810      -0.894  35.486  77.249  0.00  0.00     0.089 C 
ATOM     26  O3  NAG d 810      -2.652  37.228  77.363  0.00  0.00    -0.348 OA
ATOM     27  C7  NAG d 810      -5.471  35.709  77.637  0.00  0.00     0.214 C 
ATOM     28  N2  NAG d 810      -4.555  35.345  76.751  0.00  0.00    -0.349 N 
ATOM     29  C5  NAG d 810      -0.545  34.137  76.579  0.00  0.00     0.089 C 
ATOM     30  C1  NAG d 810      -2.853  33.589  76.365  0.00  0.00     0.151 C 
ATOM     31  C8  NAG d 810      -6.669  36.458  77.076  0.00  0.00    -0.003 C 
ATOM     32  O7  NAG d 810      -5.349  35.434  78.819  0.00  0.00    -0.274 OA
ATOM     33  H   NAG d 810       1.841  32.071  77.051  0.00  0.00     0.209 HD
ATOM     34  H   NAG d 810      -4.692  32.869  76.251  0.00  0.00     0.212 HD
ATOM     35  H   NAG d 810       1.568  34.352  76.932  0.00  0.00     0.078 H 
ATOM     36  H   NAG d 810       0.732  33.681  78.274  0.00  0.00     0.078 H 
ATOM     37  H   NAG d 810      -3.237  34.663  78.162  0.00  0.00     0.084 H 
ATOM     38  H   NAG d 810      -2.220  36.166  75.722  0.00  0.00     0.091 H 
ATOM     39  H   NAG d 810      -0.165  37.306  77.475  0.00  0.00     0.210 HD
ATOM     40  H   NAG d 810      -0.930  35.311  78.304  0.00  0.00     0.091 H 
ATOM     41  H   NAG d 810      -4.784  35.392  75.795  0.00  0.00     0.163 HD
ATOM     42  H   NAG d 810      -0.466  34.244  75.518  0.00  0.00     0.090 H 
ATOM     43  H   NAG d 810      -2.814  33.779  75.312  0.00  0.00     0.132 H 
ATOM     44  H   NAG d 810      -6.550  36.580  76.020  0.00  0.00     0.040 H 
ATOM     45  H   NAG d 810      -6.737  37.419  77.540  0.00  0.00     0.040 H 
ATOM     46  H   NAG d 810      -7.562  35.902  77.273  0.00  0.00     0.040 H 
ENDROOT
TORSDOF 11
ENDMDL
MODEL 14
REMARK VINA RESULT:      -7.5      2.183      2.866
REMARK  0 active torsions:
REMARK  status: ('A' for Active; 'I' for Inactive)
REMARK       I    between atoms: C2_1  and  O2_21 
REMARK       I    between atoms: O6_3  and  C6_7 
REMARK       I    between atoms: C1_4  and  O3_17 
REMARK       I    between atoms: O1_5  and  C1_23 
REMARK       I    between atoms: C3_6  and  O3_9 
REMARK       I    between atoms: C6_7  and  C5_22 
REMARK       I    between atoms: C2_8  and  N2_19 
REMARK       I    between atoms: C3_10  and  O3_17 
REMARK       I    between atoms: O4_11  and  C4_15 
REMARK       I    between atoms: C6_16  and  C5_26 
REMARK       I    between atoms: C7_18  and  C8_24 
REMARK       I    between atoms: C7_18  and  N2_19 
ROOT
ATOM      1  C2  GAD d 809      -2.635  37.113  75.240  0.00  0.00     0.111 C 
ATOM      2  O6A GAD d 809      -5.059  34.469  79.194  0.00  0.00    -0.642 OA
ATOM      3  C1  GAD d 809      -1.966  36.890  76.605  0.00  0.00     0.165 C 
ATOM      4  C3  GAD d 809      -4.134  36.818  75.312  0.00  0.00     0.084 C 
ATOM      5  O3  GAD d 809      -4.569  36.148  74.114  0.00  0.00    -0.389 OA
ATOM      6  C4  GAD d 809      -4.560  36.183  76.673  0.00  0.00    -0.034 C 
ATOM      7  O5  GAD d 809      -2.333  35.514  76.868  0.00  0.00    -0.311 OA
ATOM      8  C6  GAD d 809      -3.937  34.543  78.582  0.00  0.00     0.233 C 
ATOM      9  O6B GAD d 809      -2.897  33.894  78.878  0.00  0.00    -0.642 OA
ATOM     10  O2  GAD d 809      -2.530  38.450  74.815  0.00  0.00    -0.388 OA
ATOM     11  C5  GAD d 809      -3.688  35.422  77.345  0.00  0.00     0.147 C 
ATOM     12  H   GAD d 809      -2.132  36.458  74.561  0.00  0.00     0.095 H 
ATOM     13  H   GAD d 809      -2.262  37.418  77.488  0.00  0.00     0.134 H 
ATOM     14  H   GAD d 809      -4.681  37.738  75.322  0.00  0.00     0.093 H 
ATOM     15  H   GAD d 809      -4.111  35.296  74.035  0.00  0.00     0.210 HD
ATOM     16  H   GAD d 809      -5.505  36.349  77.051  0.00  0.00     0.085 H 
ATOM     17  H   GAD d 809      -2.993  39.027  75.444  0.00  0.00     0.210 HD
ATOM     18  O6  NAG d 810       4.125  36.749  80.283  0.00  0.00    -0.398 OA
ATOM     19  O1  NAG d 810       1.297  40.653  79.817  0.00  0.00    -0.369 OA
ATOM     20  C6  NAG d 810       3.409  36.415  79.142  0.00  0.00     0.043 C 
ATOM     21  C2  NAG d 810       0.346  39.111  78.161  0.00  0.00     0.087 C 
ATOM     22  C3  NAG d 810      -0.007  37.659  77.951  0.00  0.00     0.093 C 
ATOM     23  O4  NAG d 810       1.087  35.507  77.693  0.00  0.00    -0.390 OA
ATOM     24  O5  NAG d 810       2.275  38.529  79.501  0.00  0.00    -0.349 OA
ATOM     25  C4  NAG d 810       1.310  36.891  77.958  0.00  0.00     0.089 C 
ATOM     26  O3  NAG d 810      -0.764  37.484  76.739  0.00  0.00    -0.348 OA
ATOM     27  C7  NAG d 810      -1.171  40.656  77.054  0.00  0.00     0.214 C 
ATOM     28  N2  NAG d 810      -0.867  39.877  78.082  0.00  0.00    -0.349 N 
ATOM     29  C5  NAG d 810       2.065  37.133  79.284  0.00  0.00     0.089 C 
ATOM     30  C1  NAG d 810       1.049  39.274  79.530  0.00  0.00     0.151 C 
ATOM     31  C8  NAG d 810      -2.613  41.135  76.994  0.00  0.00    -0.003 C 
ATOM     32  O7  NAG d 810      -0.327  40.972  76.231  0.00  0.00    -0.274 OA
ATOM     33  H   NAG d 810       4.995  36.322  80.255  0.00  0.00     0.209 HD
ATOM     34  H   NAG d 810       0.456  41.136  79.832  0.00  0.00     0.212 HD
ATOM     35  H   NAG d 810       3.265  35.356  79.086  0.00  0.00     0.078 H 
ATOM     36  H   NAG d 810       3.924  36.704  78.249  0.00  0.00     0.078 H 
ATOM     37  H   NAG d 810       1.023  39.462  77.410  0.00  0.00     0.084 H 
ATOM     38  H   NAG d 810      -0.642  37.285  78.726  0.00  0.00     0.091 H 
ATOM     39  H   NAG d 810       0.612  35.411  76.852  0.00  0.00     0.210 HD
ATOM     40  H   NAG d 810       1.935  37.256  77.170  0.00  0.00     0.091 H 
ATOM     41  H   NAG d 810      -1.504  39.820  78.830  0.00  0.00     0.163 HD
ATOM     42  H   NAG d 810       1.505  36.766  80.119  0.00  0.00     0.090 H 
ATOM     43  H   NAG d 810       0.416  38.899  80.307  0.00  0.00     0.132 H 
ATOM     44  H   NAG d 810      -3.158  40.728  77.819  0.00  0.00     0.040 H 
ATOM     45  H   NAG d 810      -3.058  40.809  76.077  0.00  0.00     0.040 H 
ATOM     46  H   NAG d 810      -2.636  42.204  77.042  0.00  0.00     0.040 H 
ENDROOT
TORSDOF 11
ENDMDL
MODEL 15
REMARK VINA RESULT:      -7.5      2.804      4.884
REMARK  0 active torsions:
REMARK  status: ('A' for Active; 'I' for Inactive)
REMARK       I    between atoms: C2_1  and  O2_21 
REMARK       I    between atoms: O6_3  and  C6_7 
REMARK       I    between atoms: C1_4  and  O3_17 
REMARK       I    between atoms: O1_5  and  C1_23 
REMARK       I    between atoms: C3_6  and  O3_9 
REMARK       I    between atoms: C6_7  and  C5_22 
REMARK       I    between atoms: C2_8  and  N2_19 
REMARK       I    between atoms: C3_10  and  O3_17 
REMARK       I    between atoms: O4_11  and  C4_15 
REMARK       I    between atoms: C6_16  and  C5_26 
REMARK       I    between atoms: C7_18  and  C8_24 
REMARK       I    between atoms: C7_18  and  N2_19 
ROOT
ATOM      1  C2  GAD d 809      -3.441  36.624  77.207  0.00  0.00     0.111 C 
ATOM      2  O6A GAD d 809      -1.984  39.878  73.233  0.00  0.00    -0.642 OA
ATOM      3  C1  GAD d 809      -2.015  37.186  77.090  0.00  0.00     0.165 C 
ATOM      4  C3  GAD d 809      -4.212  36.819  75.902  0.00  0.00     0.084 C 
ATOM      5  O3  GAD d 809      -5.579  37.181  76.178  0.00  0.00    -0.389 OA
ATOM      6  C4  GAD d 809      -3.442  37.701  74.870  0.00  0.00    -0.034 C 
ATOM      7  O5  GAD d 809      -2.290  38.556  76.710  0.00  0.00    -0.311 OA
ATOM      8  C6  GAD d 809      -1.903  39.756  74.504  0.00  0.00     0.233 C 
ATOM      9  O6B GAD d 809      -1.270  40.526  75.277  0.00  0.00    -0.642 OA
ATOM     10  O2  GAD d 809      -3.443  35.238  77.448  0.00  0.00    -0.388 OA
ATOM     11  C5  GAD d 809      -2.607  38.650  75.309  0.00  0.00     0.147 C 
ATOM     12  H   GAD d 809      -3.893  37.152  78.020  0.00  0.00     0.095 H 
ATOM     13  H   GAD d 809      -1.316  36.841  76.357  0.00  0.00     0.134 H 
ATOM     14  H   GAD d 809      -4.279  35.886  75.381  0.00  0.00     0.093 H 
ATOM     15  H   GAD d 809      -5.600  38.027  76.654  0.00  0.00     0.210 HD
ATOM     16  H   GAD d 809      -3.573  37.552  73.857  0.00  0.00     0.085 H 
ATOM     17  H   GAD d 809      -3.029  34.780  76.700  0.00  0.00     0.210 HD
ATOM     18  O6  NAG d 810       4.120  38.558  80.425  0.00  0.00    -0.398 OA
ATOM     19  O1  NAG d 810       3.156  34.452  78.046  0.00  0.00    -0.369 OA
ATOM     20  C6  NAG d 810       2.733  38.585  80.415  0.00  0.00     0.043 C 
ATOM     21  C2  NAG d 810       0.952  35.527  78.160  0.00  0.00     0.087 C 
ATOM     22  C3  NAG d 810       0.275  36.869  78.038  0.00  0.00     0.093 C 
ATOM     23  O4  NAG d 810       0.141  38.988  79.217  0.00  0.00    -0.390 OA
ATOM     24  O5  NAG d 810       2.921  36.522  79.153  0.00  0.00    -0.349 OA
ATOM     25  C4  NAG d 810       0.782  37.714  79.201  0.00  0.00     0.089 C 
ATOM     26  O3  NAG d 810      -1.157  36.723  78.021  0.00  0.00    -0.348 OA
ATOM     27  C7  NAG d 810      -0.398  33.673  77.351  0.00  0.00     0.214 C 
ATOM     28  N2  NAG d 810       0.437  34.676  77.123  0.00  0.00    -0.349 N 
ATOM     29  C5  NAG d 810       2.324  37.820  79.155  0.00  0.00     0.089 C 
ATOM     30  C1  NAG d 810       2.484  35.715  78.050  0.00  0.00     0.151 C 
ATOM     31  C8  NAG d 810      -1.079  33.090  76.123  0.00  0.00    -0.003 C 
ATOM     32  O7  NAG d 810      -0.581  33.249  78.481  0.00  0.00    -0.274 OA
ATOM     33  H   NAG d 810       4.447  39.031  81.206  0.00  0.00     0.209 HD
ATOM     34  H   NAG d 810       2.846  33.923  77.294  0.00  0.00     0.212 HD
ATOM     35  H   NAG d 810       2.377  39.594  80.373  0.00  0.00     0.078 H 
ATOM     36  H   NAG d 810       2.319  38.148  81.300  0.00  0.00     0.078 H 
ATOM     37  H   NAG d 810       0.752  35.071  79.107  0.00  0.00     0.084 H 
ATOM     38  H   NAG d 810       0.511  37.355  77.115  0.00  0.00     0.091 H 
ATOM     39  H   NAG d 810      -0.821  38.865  79.246  0.00  0.00     0.210 HD
ATOM     40  H   NAG d 810       0.529  37.234  80.123  0.00  0.00     0.091 H 
ATOM     41  H   NAG d 810       0.719  34.847  76.196  0.00  0.00     0.163 HD
ATOM     42  H   NAG d 810       2.649  38.317  78.265  0.00  0.00     0.090 H 
ATOM     43  H   NAG d 810       2.722  36.202  77.128  0.00  0.00     0.132 H 
ATOM     44  H   NAG d 810      -0.763  33.625  75.253  0.00  0.00     0.040 H 
ATOM     45  H   NAG d 810      -2.140  33.176  76.229  0.00  0.00     0.040 H 
ATOM     46  H   NAG d 810      -0.813  32.057  76.024  0.00  0.00     0.040 H 
ENDROOT
TORSDOF 11
ENDMDL
MODEL 16
REMARK VINA RESULT:      -7.5      3.829      7.024
REMARK  0 active torsions:
REMARK  status: ('A' for Active; 'I' for Inactive)
REMARK       I    between atoms: C2_1  and  O2_21 
REMARK       I    between atoms: O6_3  and  C6_7 
REMARK       I    between atoms: C1_4  and  O3_17 
REMARK       I    between atoms: O1_5  and  C1_23 
REMARK       I    between atoms: C3_6  and  O3_9 
REMARK       I    between atoms: C6_7  and  C5_22 
REMARK       I    between atoms: C2_8  and  N2_19 
REMARK       I    between atoms: C3_10  and  O3_17 
REMARK       I    between atoms: O4_11  and  C4_15 
REMARK       I    between atoms: C6_16  and  C5_26 
REMARK       I    between atoms: C7_18  and  C8_24 
REMARK       I    between atoms: C7_18  and  N2_19 
ROOT
ATOM      1  C2  GAD d 809       0.559  34.761  81.422  0.00  0.00     0.111 C 
ATOM      2  O6A GAD d 809       2.328  32.837  76.767  0.00  0.00    -0.642 OA
ATOM      3  C1  GAD d 809       0.591  35.613  80.143  0.00  0.00     0.165 C 
ATOM      4  C3  GAD d 809       1.403  33.497  81.256  0.00  0.00     0.084 C 
ATOM      5  O3  GAD d 809       0.751  32.375  81.882  0.00  0.00    -0.389 OA
ATOM      6  C4  GAD d 809       1.908  33.295  79.793  0.00  0.00    -0.034 C 
ATOM      7  O5  GAD d 809       0.120  34.656  79.164  0.00  0.00    -0.311 OA
ATOM      8  C6  GAD d 809       1.358  33.505  77.267  0.00  0.00     0.233 C 
ATOM      9  O6B GAD d 809       0.410  34.023  76.616  0.00  0.00    -0.642 OA
ATOM     10  O2  GAD d 809       1.107  35.443  82.523  0.00  0.00    -0.388 OA
ATOM     11  C5  GAD d 809       1.172  33.755  78.774  0.00  0.00     0.147 C 
ATOM     12  H   GAD d 809      -0.473  34.532  81.591  0.00  0.00     0.095 H 
ATOM     13  H   GAD d 809       1.498  35.996  79.726  0.00  0.00     0.134 H 
ATOM     14  H   GAD d 809       2.324  33.607  81.789  0.00  0.00     0.093 H 
ATOM     15  H   GAD d 809      -0.101  32.212  81.448  0.00  0.00     0.210 HD
ATOM     16  H   GAD d 809       2.802  32.812  79.613  0.00  0.00     0.085 H 
ATOM     17  H   GAD d 809       2.041  35.640  82.349  0.00  0.00     0.210 HD
ATOM     18  O6  NAG d 810      -1.879  41.382  76.788  0.00  0.00    -0.398 OA
ATOM     19  O1  NAG d 810       2.138  41.296  79.491  0.00  0.00    -0.369 OA
ATOM     20  C6  NAG d 810      -2.117  40.259  77.569  0.00  0.00     0.043 C 
ATOM     21  C2  NAG d 810       1.097  39.138  80.023  0.00  0.00     0.087 C 
ATOM     22  C3  NAG d 810       0.360  37.984  79.390  0.00  0.00     0.093 C 
ATOM     23  O4  NAG d 810      -1.777  37.503  78.344  0.00  0.00    -0.390 OA
ATOM     24  O5  NAG d 810       0.069  40.725  78.513  0.00  0.00    -0.349 OA
ATOM     25  C4  NAG d 810      -0.970  38.541  78.898  0.00  0.00     0.089 C 
ATOM     26  O3  NAG d 810       0.215  36.895  80.320  0.00  0.00    -0.348 OA
ATOM     27  C7  NAG d 810       2.539  38.484  81.869  0.00  0.00     0.214 C 
ATOM     28  N2  NAG d 810       2.326  38.633  80.569  0.00  0.00    -0.349 N 
ATOM     29  C5  NAG d 810      -0.732  39.706  77.911  0.00  0.00     0.089 C 
ATOM     30  C1  NAG d 810       1.342  40.234  78.958  0.00  0.00     0.151 C 
ATOM     31  C8  NAG d 810       3.754  37.652  82.247  0.00  0.00    -0.003 C 
ATOM     32  O7  NAG d 810       1.805  39.007  82.692  0.00  0.00    -0.274 OA
ATOM     33  H   NAG d 810      -2.725  41.785  76.535  0.00  0.00     0.209 HD
ATOM     34  H   NAG d 810       2.992  40.943  79.786  0.00  0.00     0.212 HD
ATOM     35  H   NAG d 810      -2.685  39.536  77.022  0.00  0.00     0.078 H 
ATOM     36  H   NAG d 810      -2.681  40.496  78.447  0.00  0.00     0.078 H 
ATOM     37  H   NAG d 810       0.528  39.581  80.813  0.00  0.00     0.084 H 
ATOM     38  H   NAG d 810       0.900  37.568  78.565  0.00  0.00     0.091 H 
ATOM     39  H   NAG d 810      -1.896  36.800  79.001  0.00  0.00     0.210 HD
ATOM     40  H   NAG d 810      -1.515  38.940  79.728  0.00  0.00     0.091 H 
ATOM     41  H   NAG d 810       3.046  38.384  79.946  0.00  0.00     0.163 HD
ATOM     42  H   NAG d 810      -0.211  39.371  77.038  0.00  0.00     0.090 H 
ATOM     43  H   NAG d 810       1.880  39.820  78.132  0.00  0.00     0.132 H 
ATOM     44  H   NAG d 810       4.236  37.302  81.359  0.00  0.00     0.040 H 
ATOM     45  H   NAG d 810       3.442  36.815  82.837  0.00  0.00     0.040 H 
ATOM     46  H   NAG d 810       4.436  38.253  82.812  0.00  0.00     0.040 H 
ENDROOT
TORSDOF 11
ENDMDL
MODEL 17
REMARK VINA RESULT:      -7.5      1.608      6.150
REMARK  0 active torsions:
REMARK  status: ('A' for Active; 'I' for Inactive)
REMARK       I    between atoms: C2_1  and  O2_21 
REMARK       I    between atoms: O6_3  and  C6_7 
REMARK       I    between atoms: C1_4  and  O3_17 
REMARK       I    between atoms: O1_5  and  C1_23 
REMARK       I    between atoms: C3_6  and  O3_9 
REMARK       I    between atoms: C6_7  and  C5_22 
REMARK       I    between atoms: C2_8  and  N2_19 
REMARK       I    between atoms: C3_10  and  O3_17 
REMARK       I    between atoms: O4_11  and  C4_15 
REMARK       I    between atoms: C6_16  and  C5_26 
REMARK       I    between atoms: C7_18  and  C8_24 
REMARK       I    between atoms: C7_18  and  N2_19 
ROOT
ATOM      1  C2  GAD d 809      -0.967  40.708  77.837  0.00  0.00     0.111 C 
ATOM      2  O6A GAD d 809       1.618  36.438  79.732  0.00  0.00    -0.642 OA
ATOM      3  C1  GAD d 809      -1.563  39.293  77.768  0.00  0.00     0.165 C 
ATOM      4  C3  GAD d 809       0.527  40.655  78.160  0.00  0.00     0.084 C 
ATOM      5  O3  GAD d 809       0.880  41.719  79.066  0.00  0.00    -0.389 OA
ATOM      6  C4  GAD d 809       1.015  39.220  78.530  0.00  0.00    -0.034 C 
ATOM      7  O5  GAD d 809      -1.211  38.783  79.077  0.00  0.00    -0.311 OA
ATOM      8  C6  GAD d 809       0.466  36.995  79.744  0.00  0.00     0.233 C 
ATOM      9  O6B GAD d 809      -0.570  36.525  80.289  0.00  0.00    -0.642 OA
ATOM     10  O2  GAD d 809      -1.067  41.382  76.607  0.00  0.00    -0.388 OA
ATOM     11  C5  GAD d 809       0.166  38.367  79.117  0.00  0.00     0.147 C 
ATOM     12  H   GAD d 809      -1.521  41.218  78.597  0.00  0.00     0.095 H 
ATOM     13  H   GAD d 809      -1.207  38.548  77.087  0.00  0.00     0.134 H 
ATOM     14  H   GAD d 809       1.093  40.854  77.274  0.00  0.00     0.093 H 
ATOM     15  H   GAD d 809       0.400  41.605  79.901  0.00  0.00     0.210 HD
ATOM     16  H   GAD d 809       1.984  38.930  78.323  0.00  0.00     0.085 H 
ATOM     17  H   GAD d 809      -0.558  40.904  75.934  0.00  0.00     0.210 HD
ATOM     18  O6  NAG d 810      -7.440  35.356  76.993  0.00  0.00    -0.398 OA
ATOM     19  O1  NAG d 810      -4.561  36.725  73.348  0.00  0.00    -0.369 OA
ATOM     20  C6  NAG d 810      -6.796  36.444  77.567  0.00  0.00     0.043 C 
ATOM     21  C2  NAG d 810      -3.736  38.091  75.213  0.00  0.00     0.087 C 
ATOM     22  C3  NAG d 810      -3.427  38.028  76.689  0.00  0.00     0.093 C 
ATOM     23  O4  NAG d 810      -4.579  37.801  78.814  0.00  0.00    -0.390 OA
ATOM     24  O5  NAG d 810      -5.600  36.566  75.460  0.00  0.00    -0.349 OA
ATOM     25  C4  NAG d 810      -4.757  37.803  77.398  0.00  0.00     0.089 C 
ATOM     26  O3  NAG d 810      -2.743  39.218  77.121  0.00  0.00    -0.348 OA
ATOM     27  C7  NAG d 810      -2.252  39.556  73.963  0.00  0.00     0.214 C 
ATOM     28  N2  NAG d 810      -2.514  38.380  74.516  0.00  0.00    -0.349 N 
ATOM     29  C5  NAG d 810      -5.432  36.514  76.878  0.00  0.00     0.089 C 
ATOM     30  C1  NAG d 810      -4.358  36.747  74.763  0.00  0.00     0.151 C 
ATOM     31  C8  NAG d 810      -0.806  39.783  73.552  0.00  0.00    -0.003 C 
ATOM     32  O7  NAG d 810      -3.133  40.381  73.789  0.00  0.00    -0.274 OA
ATOM     33  H   NAG d 810      -8.319  35.255  77.389  0.00  0.00     0.209 HD
ATOM     34  H   NAG d 810      -3.710  36.848  72.897  0.00  0.00     0.212 HD
ATOM     35  H   NAG d 810      -6.678  36.297  78.620  0.00  0.00     0.078 H 
ATOM     36  H   NAG d 810      -7.354  37.348  77.442  0.00  0.00     0.078 H 
ATOM     37  H   NAG d 810      -4.447  38.861  74.994  0.00  0.00     0.084 H 
ATOM     38  H   NAG d 810      -2.758  37.227  76.923  0.00  0.00     0.091 H 
ATOM     39  H   NAG d 810      -4.154  38.629  79.087  0.00  0.00     0.210 HD
ATOM     40  H   NAG d 810      -5.418  38.614  77.175  0.00  0.00     0.091 H 
ATOM     41  H   NAG d 810      -1.837  37.669  74.446  0.00  0.00     0.163 HD
ATOM     42  H   NAG d 810      -4.834  35.653  77.092  0.00  0.00     0.090 H 
ATOM     43  H   NAG d 810      -3.690  35.944  74.999  0.00  0.00     0.132 H 
ATOM     44  H   NAG d 810      -0.224  38.922  73.806  0.00  0.00     0.040 H 
ATOM     45  H   NAG d 810      -0.420  40.639  74.064  0.00  0.00     0.040 H 
ATOM     46  H   NAG d 810      -0.757  39.947  72.495  0.00  0.00     0.040 H 
ENDROOT
TORSDOF 11
ENDMDL
MODEL 18
REMARK VINA RESULT:      -7.4      2.971      6.356
REMARK  0 active torsions:
REMARK  status: ('A' for Active; 'I' for Inactive)
REMARK       I    between atoms: C2_1  and  O2_21 
REMARK       I    between atoms: O6_3  and  C6_7 
REMARK       I    between atoms: C1_4  and  O3_17 
REMARK       I    between atoms: O1_5  and  C1_23 
REMARK       I    between atoms: C3_6  and  O3_9 
REMARK       I    between atoms: C6_7  and  C5_22 
REMARK       I    between atoms: C2_8  and  N2_19 
REMARK       I    between atoms: C3_10  and  O3_17 
REMARK       I    between atoms: O4_11  and  C4_15 
REMARK       I    between atoms: C6_16  and  C5_26 
REMARK       I    between atoms: C7_18  and  C8_24 
REMARK       I    between atoms: C7_18  and  N2_19 
ROOT
ATOM      1  C2  GAD d 809      -4.430  40.522  77.738  0.00  0.00     0.111 C 
ATOM      2  O6A GAD d 809      -2.595  40.279  72.730  0.00  0.00    -0.642 OA
ATOM      3  C1  GAD d 809      -4.039  39.193  77.073  0.00  0.00     0.165 C 
ATOM      4  C3  GAD d 809      -4.565  41.634  76.696  0.00  0.00     0.084 C 
ATOM      5  O3  GAD d 809      -4.033  42.869  77.212  0.00  0.00    -0.389 OA
ATOM      6  C4  GAD d 809      -4.084  41.194  75.278  0.00  0.00    -0.034 C 
ATOM      7  O5  GAD d 809      -2.822  39.576  76.389  0.00  0.00    -0.311 OA
ATOM      8  C6  GAD d 809      -2.349  39.840  73.906  0.00  0.00     0.233 C 
ATOM      9  O6B GAD d 809      -1.438  39.021  74.208  0.00  0.00    -0.642 OA
ATOM     10  O2  GAD d 809      -5.682  40.444  78.375  0.00  0.00    -0.388 OA
ATOM     11  C5  GAD d 809      -3.114  40.278  75.167  0.00  0.00     0.147 C 
ATOM     12  H   GAD d 809      -3.655  40.731  78.445  0.00  0.00     0.095 H 
ATOM     13  H   GAD d 809      -4.635  38.727  76.316  0.00  0.00     0.134 H 
ATOM     14  H   GAD d 809      -5.600  41.837  76.519  0.00  0.00     0.093 H 
ATOM     15  H   GAD d 809      -3.087  42.762  77.399  0.00  0.00     0.210 HD
ATOM     16  H   GAD d 809      -4.509  41.606  74.433  0.00  0.00     0.085 H 
ATOM     17  H   GAD d 809      -6.368  40.255  77.716  0.00  0.00     0.210 HD
ATOM     18  O6  NAG d 810      -2.234  32.377  78.035  0.00  0.00    -0.398 OA
ATOM     19  O1  NAG d 810      -6.767  33.940  77.359  0.00  0.00    -0.369 OA
ATOM     20  C6  NAG d 810      -2.104  33.711  78.397  0.00  0.00     0.043 C 
ATOM     21  C2  NAG d 810      -5.539  36.031  77.741  0.00  0.00     0.087 C 
ATOM     22  C3  NAG d 810      -4.242  36.726  77.411  0.00  0.00     0.093 C 
ATOM     23  O4  NAG d 810      -1.868  36.539  77.887  0.00  0.00    -0.390 OA
ATOM     24  O5  NAG d 810      -4.453  33.869  77.812  0.00  0.00    -0.349 OA
ATOM     25  C4  NAG d 810      -3.137  35.917  78.081  0.00  0.00     0.089 C 
ATOM     26  O3  NAG d 810      -4.276  38.103  77.829  0.00  0.00    -0.348 OA
ATOM     27  C7  NAG d 810      -7.438  37.538  77.927  0.00  0.00     0.214 C 
ATOM     28  N2  NAG d 810      -6.612  36.810  77.189  0.00  0.00    -0.349 N 
ATOM     29  C5  NAG d 810      -3.169  34.453  77.586  0.00  0.00     0.089 C 
ATOM     30  C1  NAG d 810      -5.510  34.594  77.166  0.00  0.00     0.151 C 
ATOM     31  C8  NAG d 810      -8.299  38.534  77.166  0.00  0.00    -0.003 C 
ATOM     32  O7  NAG d 810      -7.500  37.390  79.137  0.00  0.00    -0.274 OA
ATOM     33  H   NAG d 810      -1.581  31.847  78.519  0.00  0.00     0.209 HD
ATOM     34  H   NAG d 810      -7.466  34.445  76.915  0.00  0.00     0.212 HD
ATOM     35  H   NAG d 810      -1.127  34.072  78.152  0.00  0.00     0.078 H 
ATOM     36  H   NAG d 810      -2.232  33.853  79.450  0.00  0.00     0.078 H 
ATOM     37  H   NAG d 810      -5.683  35.950  78.798  0.00  0.00     0.084 H 
ATOM     38  H   NAG d 810      -4.065  36.765  76.356  0.00  0.00     0.091 H 
ATOM     39  H   NAG d 810      -1.902  37.452  78.213  0.00  0.00     0.210 HD
ATOM     40  H   NAG d 810      -3.307  35.894  79.137  0.00  0.00     0.091 H 
ATOM     41  H   NAG d 810      -6.741  36.804  76.213  0.00  0.00     0.163 HD
ATOM     42  H   NAG d 810      -2.979  34.398  76.535  0.00  0.00     0.090 H 
ATOM     43  H   NAG d 810      -5.332  34.631  76.112  0.00  0.00     0.132 H 
ATOM     44  H   NAG d 810      -8.066  38.482  76.123  0.00  0.00     0.040 H 
ATOM     45  H   NAG d 810      -8.103  39.522  77.527  0.00  0.00     0.040 H 
ATOM     46  H   NAG d 810      -9.332  38.298  77.314  0.00  0.00     0.040 H 
ENDROOT
TORSDOF 11
ENDMDL
MODEL 19
REMARK VINA RESULT:      -7.4      3.568      5.819
REMARK  0 active torsions:
REMARK  status: ('A' for Active; 'I' for Inactive)
REMARK       I    between atoms: C2_1  and  O2_21 
REMARK       I    between atoms: O6_3  and  C6_7 
REMARK       I    between atoms: C1_4  and  O3_17 
REMARK       I    between atoms: O1_5  and  C1_23 
REMARK       I    between atoms: C3_6  and  O3_9 
REMARK       I    between atoms: C6_7  and  C5_22 
REMARK       I    between atoms: C2_8  and  N2_19 
REMARK       I    between atoms: C3_10  and  O3_17 
REMARK       I    between atoms: O4_11  and  C4_15 
REMARK       I    between atoms: C6_16  and  C5_26 
REMARK       I    between atoms: C7_18  and  C8_24 
REMARK       I    between atoms: C7_18  and  N2_19 
ROOT
ATOM      1  C2  GAD d 809      -2.384  35.731  80.854  0.00  0.00     0.111 C 
ATOM      2  O6A GAD d 809      -2.001  33.810  75.888  0.00  0.00    -0.642 OA
ATOM      3  C1  GAD d 809      -1.496  36.390  79.788  0.00  0.00     0.165 C 
ATOM      4  C3  GAD d 809      -2.810  34.328  80.418  0.00  0.00     0.084 C 
ATOM      5  O3  GAD d 809      -4.179  34.083  80.792  0.00  0.00    -0.389 OA
ATOM      6  C4  GAD d 809      -2.411  34.007  78.944  0.00  0.00    -0.034 C 
ATOM      7  O5  GAD d 809      -2.360  36.318  78.628  0.00  0.00    -0.311 OA
ATOM      8  C6  GAD d 809      -2.167  34.907  76.524  0.00  0.00     0.233 C 
ATOM      9  O6B GAD d 809      -2.243  36.053  76.002  0.00  0.00    -0.642 OA
ATOM     10  O2  GAD d 809      -1.704  35.560  82.074  0.00  0.00    -0.388 OA
ATOM     11  C5  GAD d 809      -2.340  35.000  78.050  0.00  0.00     0.147 C 
ATOM     12  H   GAD d 809      -3.224  36.383  80.975  0.00  0.00     0.095 H 
ATOM     13  H   GAD d 809      -0.572  35.962  79.459  0.00  0.00     0.134 H 
ATOM     14  H   GAD d 809      -2.246  33.597  80.958  0.00  0.00     0.093 H 
ATOM     15  H   GAD d 809      -4.758  34.715  80.336  0.00  0.00     0.210 HD
ATOM     16  H   GAD d 809      -2.202  33.037  78.660  0.00  0.00     0.085 H 
ATOM     17  H   GAD d 809      -0.949  34.966  81.942  0.00  0.00     0.210 HD
ATOM     18  O6  NAG d 810       1.985  42.256  77.757  0.00  0.00    -0.398 OA
ATOM     19  O1  NAG d 810       3.943  38.674  80.363  0.00  0.00    -0.369 OA
ATOM     20  C6  NAG d 810       0.844  41.663  78.280  0.00  0.00     0.043 C 
ATOM     21  C2  NAG d 810       1.551  38.125  80.424  0.00  0.00     0.087 C 
ATOM     22  C3  NAG d 810       0.314  38.098  79.561  0.00  0.00     0.093 C 
ATOM     23  O4  NAG d 810      -1.199  39.634  78.444  0.00  0.00    -0.390 OA
ATOM     24  O5  NAG d 810       2.391  40.093  79.293  0.00  0.00    -0.349 OA
ATOM     25  C4  NAG d 810       0.005  39.548  79.205  0.00  0.00     0.089 C 
ATOM     26  O3  NAG d 810      -0.769  37.433  80.237  0.00  0.00    -0.348 OA
ATOM     27  C7  NAG d 810       1.628  36.348  82.081  0.00  0.00     0.214 C 
ATOM     28  N2  NAG d 810       1.828  36.780  80.844  0.00  0.00    -0.349 N 
ATOM     29  C5  NAG d 810       1.214  40.193  78.490  0.00  0.00     0.089 C 
ATOM     30  C1  NAG d 810       2.723  38.735  79.618  0.00  0.00     0.151 C 
ATOM     31  C8  NAG d 810       1.672  34.839  82.268  0.00  0.00    -0.003 C 
ATOM     32  O7  NAG d 810       1.441  37.129  83.000  0.00  0.00    -0.274 OA
ATOM     33  H   NAG d 810       1.816  43.198  77.600  0.00  0.00     0.209 HD
ATOM     34  H   NAG d 810       4.148  37.749  80.572  0.00  0.00     0.212 HD
ATOM     35  H   NAG d 810       0.028  41.750  77.593  0.00  0.00     0.078 H 
ATOM     36  H   NAG d 810       0.533  42.131  79.191  0.00  0.00     0.078 H 
ATOM     37  H   NAG d 810       1.410  38.734  81.293  0.00  0.00     0.084 H 
ATOM     38  H   NAG d 810       0.463  37.535  78.664  0.00  0.00     0.091 H 
ATOM     39  H   NAG d 810      -1.922  39.217  78.936  0.00  0.00     0.210 HD
ATOM     40  H   NAG d 810      -0.161  40.104  80.103  0.00  0.00     0.091 H 
ATOM     41  H   NAG d 810       2.183  36.147  80.180  0.00  0.00     0.163 HD
ATOM     42  H   NAG d 810       1.422  39.700  77.564  0.00  0.00     0.090 H 
ATOM     43  H   NAG d 810       2.873  38.174  78.720  0.00  0.00     0.132 H 
ATOM     44  H   NAG d 810       1.848  34.369  81.323  0.00  0.00     0.040 H 
ATOM     45  H   NAG d 810       0.738  34.502  82.665  0.00  0.00     0.040 H 
ATOM     46  H   NAG d 810       2.462  34.586  82.945  0.00  0.00     0.040 H 
ENDROOT
TORSDOF 11
ENDMDL
MODEL 20
REMARK VINA RESULT:      -7.4      2.687      3.539
REMARK  0 active torsions:
REMARK  status: ('A' for Active; 'I' for Inactive)
REMARK       I    between atoms: C2_1  and  O2_21 
REMARK       I    between atoms: O6_3  and  C6_7 
REMARK       I    between atoms: C1_4  and  O3_17 
REMARK       I    between atoms: O1_5  and  C1_23 
REMARK       I    between atoms: C3_6  and  O3_9 
REMARK       I    between atoms: C6_7  and  C5_22 
REMARK       I    between atoms: C2_8  and  N2_19 
REMARK       I    between atoms: C3_10  and  O3_17 
REMARK       I    between atoms: O4_11  and  C4_15 
REMARK       I    between atoms: C6_16  and  C5_26 
REMARK       I    between atoms: C7_18  and  C8_24 
REMARK       I    between atoms: C7_18  and  N2_19 
ROOT
ATOM      1  C2  GAD d 809      -4.506  37.500  76.673  0.00  0.00     0.111 C 
ATOM      2  O6A GAD d 809      -5.159  36.332  81.841  0.00  0.00    -0.642 OA
ATOM      3  C1  GAD d 809      -3.380  36.890  77.523  0.00  0.00     0.165 C 
ATOM      4  C3  GAD d 809      -5.631  38.033  77.560  0.00  0.00     0.084 C 
ATOM      5  O3  GAD d 809      -6.913  37.752  76.965  0.00  0.00    -0.389 OA
ATOM      6  C4  GAD d 809      -5.450  37.650  79.062  0.00  0.00    -0.034 C 
ATOM      7  O5  GAD d 809      -4.115  35.902  78.283  0.00  0.00    -0.311 OA
ATOM      8  C6  GAD d 809      -4.699  35.835  80.755  0.00  0.00     0.233 C 
ATOM      9  O6B GAD d 809      -4.114  34.722  80.647  0.00  0.00    -0.642 OA
ATOM     10  O2  GAD d 809      -4.060  38.601  75.920  0.00  0.00    -0.388 OA
ATOM     11  C5  GAD d 809      -4.821  36.512  79.379  0.00  0.00     0.147 C 
ATOM     12  H   GAD d 809      -4.843  36.712  76.032  0.00  0.00     0.095 H 
ATOM     13  H   GAD d 809      -2.844  37.450  78.261  0.00  0.00     0.134 H 
ATOM     14  H   GAD d 809      -5.580  39.101  77.602  0.00  0.00     0.093 H 
ATOM     15  H   GAD d 809      -7.033  36.792  76.893  0.00  0.00     0.210 HD
ATOM     16  H   GAD d 809      -5.810  38.269  79.805  0.00  0.00     0.085 H 
ATOM     17  H   GAD d 809      -3.760  39.302  76.519  0.00  0.00     0.210 HD
ATOM     18  O6  NAG d 810       2.813  33.386  77.542  0.00  0.00    -0.398 OA
ATOM     19  O1  NAG d 810       2.397  38.211  77.553  0.00  0.00    -0.369 OA
ATOM     20  C6  NAG d 810       1.526  33.535  77.047  0.00  0.00     0.043 C 
ATOM     21  C2  NAG d 810       0.104  37.484  77.066  0.00  0.00     0.087 C 
ATOM     22  C3  NAG d 810      -0.923  36.447  77.450  0.00  0.00     0.093 C 
ATOM     23  O4  NAG d 810      -1.303  34.057  77.252  0.00  0.00    -0.390 OA
ATOM     24  O5  NAG d 810       1.918  35.909  77.357  0.00  0.00    -0.349 OA
ATOM     25  C4  NAG d 810      -0.366  35.102  76.997  0.00  0.00     0.089 C 
ATOM     26  O3  NAG d 810      -2.206  36.756  76.875  0.00  0.00    -0.348 OA
ATOM     27  C7  NAG d 810      -0.853  39.648  76.509  0.00  0.00     0.214 C 
ATOM     28  N2  NAG d 810      -0.423  38.775  77.408  0.00  0.00    -0.349 N 
ATOM     29  C5  NAG d 810       1.011  34.844  77.650  0.00  0.00     0.089 C 
ATOM     30  C1  NAG d 810       1.433  37.184  77.801  0.00  0.00     0.151 C 
ATOM     31  C8  NAG d 810      -1.659  40.816  77.056  0.00  0.00    -0.003 C 
ATOM     32  O7  NAG d 810      -0.592  39.514  75.324  0.00  0.00    -0.274 OA
ATOM     33  H   NAG d 810       3.201  32.567  77.195  0.00  0.00     0.209 HD
ATOM     34  H   NAG d 810       2.049  39.063  77.859  0.00  0.00     0.212 HD
ATOM     35  H   NAG d 810       0.910  32.715  77.350  0.00  0.00     0.078 H 
ATOM     36  H   NAG d 810       1.510  33.555  75.977  0.00  0.00     0.078 H 
ATOM     37  H   NAG d 810       0.308  37.464  76.016  0.00  0.00     0.084 H 
ATOM     38  H   NAG d 810      -1.094  36.424  78.505  0.00  0.00     0.091 H 
ATOM     39  H   NAG d 810      -2.146  34.267  76.822  0.00  0.00     0.210 HD
ATOM     40  H   NAG d 810      -0.212  35.122  75.939  0.00  0.00     0.091 H 
ATOM     41  H   NAG d 810      -0.467  39.025  78.360  0.00  0.00     0.163 HD
ATOM     42  H   NAG d 810       0.928  34.785  78.715  0.00  0.00     0.090 H 
ATOM     43  H   NAG d 810       1.262  37.160  78.857  0.00  0.00     0.132 H 
ATOM     44  H   NAG d 810      -1.756  40.716  78.116  0.00  0.00     0.040 H 
ATOM     45  H   NAG d 810      -2.631  40.819  76.607  0.00  0.00     0.040 H 
ATOM     46  H   NAG d 810      -1.158  41.734  76.828  0.00  0.00     0.040 H 
ENDROOT
TORSDOF 11
ENDMDL
MODEL 21
REMARK VINA RESULT:      -7.3      2.483      5.130
REMARK  0 active torsions:
REMARK  status: ('A' for Active; 'I' for Inactive)
REMARK       I    between atoms: C2_1  and  O2_21 
REMARK       I    between atoms: O6_3  and  C6_7 
REMARK       I    between atoms: C1_4  and  O3_17 
REMARK       I    between atoms: O1_5  and  C1_23 
REMARK       I    between atoms: C3_6  and  O3_9 
REMARK       I    between atoms: C6_7  and  C5_22 
REMARK       I    between atoms: C2_8  and  N2_19 
REMARK       I    between atoms: C3_10  and  O3_17 
REMARK       I    between atoms: O4_11  and  C4_15 
REMARK       I    between atoms: C6_16  and  C5_26 
REMARK       I    between atoms: C7_18  and  C8_24 
REMARK       I    between atoms: C7_18  and  N2_19 
ROOT
ATOM      1  C2  GAD d 809      -3.522  38.678  74.952  0.00  0.00     0.111 C 
ATOM      2  O6A GAD d 809       0.116  38.758  71.045  0.00  0.00    -0.642 OA
ATOM      3  C1  GAD d 809      -2.059  39.075  75.204  0.00  0.00     0.165 C 
ATOM      4  C3  GAD d 809      -3.675  37.993  73.594  0.00  0.00     0.084 C 
ATOM      5  O3  GAD d 809      -4.895  38.417  72.955  0.00  0.00    -0.389 OA
ATOM      6  C4  GAD d 809      -2.371  38.052  72.737  0.00  0.00    -0.034 C 
ATOM      7  O5  GAD d 809      -1.795  39.898  74.043  0.00  0.00    -0.311 OA
ATOM      8  C6  GAD d 809      -0.314  39.461  72.025  0.00  0.00     0.233 C 
ATOM      9  O6B GAD d 809       0.172  40.560  72.408  0.00  0.00    -0.642 OA
ATOM     10  O2  GAD d 809      -3.986  37.749  75.901  0.00  0.00    -0.388 OA
ATOM     11  C5  GAD d 809      -1.535  39.087  72.882  0.00  0.00     0.147 C 
ATOM     12  H   GAD d 809      -4.082  39.588  75.006  0.00  0.00     0.095 H 
ATOM     13  H   GAD d 809      -1.260  38.364  75.215  0.00  0.00     0.134 H 
ATOM     14  H   GAD d 809      -3.794  36.939  73.734  0.00  0.00     0.093 H 
ATOM     15  H   GAD d 809      -4.861  39.373  72.794  0.00  0.00     0.210 HD
ATOM     16  H   GAD d 809      -2.155  37.299  72.066  0.00  0.00     0.085 H 
ATOM     17  H   GAD d 809      -3.466  36.933  75.836  0.00  0.00     0.210 HD
ATOM     18  O6  NAG d 810       2.540  42.379  79.515  0.00  0.00    -0.398 OA
ATOM     19  O1  NAG d 810       1.452  37.667  79.766  0.00  0.00    -0.369 OA
ATOM     20  C6  NAG d 810       1.316  42.361  78.860  0.00  0.00     0.043 C 
ATOM     21  C2  NAG d 810      -0.261  38.523  78.230  0.00  0.00     0.087 C 
ATOM     22  C3  NAG d 810      -0.457  39.477  77.079  0.00  0.00     0.093 C 
ATOM     23  O4  NAG d 810      -0.439  41.863  76.628  0.00  0.00    -0.390 OA
ATOM     24  O5  NAG d 810       1.393  39.968  79.247  0.00  0.00    -0.349 OA
ATOM     25  C4  NAG d 810      -0.206  40.876  77.631  0.00  0.00     0.089 C 
ATOM     26  O3  NAG d 810      -1.764  39.319  76.497  0.00  0.00    -0.348 OA
ATOM     27  C7  NAG d 810      -1.664  36.540  78.109  0.00  0.00     0.214 C 
ATOM     28  N2  NAG d 810      -0.566  37.199  77.765  0.00  0.00    -0.349 N 
ATOM     29  C5  NAG d 810       1.211  40.965  78.241  0.00  0.00     0.089 C 
ATOM     30  C1  NAG d 810       1.194  38.637  78.748  0.00  0.00     0.151 C 
ATOM     31  C8  NAG d 810      -1.974  35.301  77.285  0.00  0.00    -0.003 C 
ATOM     32  O7  NAG d 810      -2.357  36.913  79.041  0.00  0.00    -0.274 OA
ATOM     33  H   NAG d 810       2.669  43.244  79.933  0.00  0.00     0.209 HD
ATOM     34  H   NAG d 810       1.312  36.776  79.407  0.00  0.00     0.212 HD
ATOM     35  H   NAG d 810       1.287  43.112  78.099  0.00  0.00     0.078 H 
ATOM     36  H   NAG d 810       0.504  42.565  79.527  0.00  0.00     0.078 H 
ATOM     37  H   NAG d 810      -0.910  38.757  79.048  0.00  0.00     0.084 H 
ATOM     38  H   NAG d 810       0.224  39.283  76.277  0.00  0.00     0.091 H 
ATOM     39  H   NAG d 810      -1.339  41.763  76.279  0.00  0.00     0.210 HD
ATOM     40  H   NAG d 810      -0.901  41.073  78.420  0.00  0.00     0.091 H 
ATOM     41  H   NAG d 810       0.073  36.758  77.160  0.00  0.00     0.163 HD
ATOM     42  H   NAG d 810       1.962  40.803  77.497  0.00  0.00     0.090 H 
ATOM     43  H   NAG d 810       1.876  38.445  77.947  0.00  0.00     0.132 H 
ATOM     44  H   NAG d 810      -1.227  35.180  76.529  0.00  0.00     0.040 H 
ATOM     45  H   NAG d 810      -2.934  35.409  76.826  0.00  0.00     0.040 H 
ATOM     46  H   NAG d 810      -1.979  34.441  77.923  0.00  0.00     0.040 H 
ENDROOT
TORSDOF 11
ENDMDL
MODEL 22
REMARK VINA RESULT:      -7.2      2.629      4.186
REMARK  0 active torsions:
REMARK  status: ('A' for Active; 'I' for Inactive)
REMARK       I    between atoms: C2_1  and  O2_21 
REMARK       I    between atoms: O6_3  and  C6_7 
REMARK       I    between atoms: C1_4  and  O3_17 
REMARK       I    between atoms: O1_5  and  C1_23 
REMARK       I    between atoms: C3_6  and  O3_9 
REMARK       I    between atoms: C6_7  and  C5_22 
REMARK       I    between atoms: C2_8  and  N2_19 
REMARK       I    between atoms: C3_10  and  O3_17 
REMARK       I    between atoms: O4_11  and  C4_15 
REMARK       I    between atoms: C6_16  and  C5_26 
REMARK       I    between atoms: C7_18  and  C8_24 
REMARK       I    between atoms: C7_18  and  N2_19 
ROOT
ATOM      1  C2  GAD d 809      -0.882  34.842  76.934  0.00  0.00     0.111 C 
ATOM      2  O6A GAD d 809      -2.023  34.927  82.149  0.00  0.00    -0.642 OA
ATOM      3  C1  GAD d 809      -1.077  36.155  77.708  0.00  0.00     0.165 C 
ATOM      4  C3  GAD d 809      -1.402  33.652  77.741  0.00  0.00     0.084 C 
ATOM      5  O3  GAD d 809      -0.524  32.521  77.585  0.00  0.00    -0.389 OA
ATOM      6  C4  GAD d 809      -1.805  34.039  79.198  0.00  0.00    -0.034 C 
ATOM      7  O5  GAD d 809      -0.368  35.859  78.935  0.00  0.00    -0.311 OA
ATOM      8  C6  GAD d 809      -1.250  35.472  81.287  0.00  0.00     0.233 C 
ATOM      9  O6B GAD d 809      -0.433  36.404  81.520  0.00  0.00    -0.642 OA
ATOM     10  O2  GAD d 809      -1.605  34.830  75.728  0.00  0.00    -0.388 OA
ATOM     11  C5  GAD d 809      -1.170  35.044  79.811  0.00  0.00     0.147 C 
ATOM     12  H   GAD d 809       0.169  34.769  76.749  0.00  0.00     0.095 H 
ATOM     13  H   GAD d 809      -2.038  36.500  78.032  0.00  0.00     0.134 H 
ATOM     14  H   GAD d 809      -2.338  33.326  77.337  0.00  0.00     0.093 H 
ATOM     15  H   GAD d 809       0.355  32.743  77.932  0.00  0.00     0.210 HD
ATOM     16  H   GAD d 809      -2.556  33.524  79.685  0.00  0.00     0.085 H 
ATOM     17  H   GAD d 809      -2.554  34.896  75.918  0.00  0.00     0.210 HD
ATOM     18  O6  NAG d 810       0.066  43.177  77.874  0.00  0.00    -0.398 OA
ATOM     19  O1  NAG d 810      -3.893  41.091  76.023  0.00  0.00    -0.369 OA
ATOM     20  C6  NAG d 810       0.538  41.895  77.635  0.00  0.00     0.043 C 
ATOM     21  C2  NAG d 810      -2.391  39.177  76.351  0.00  0.00     0.087 C 
ATOM     22  C3  NAG d 810      -1.387  38.604  77.320  0.00  0.00     0.093 C 
ATOM     23  O4  NAG d 810       0.831  39.079  78.185  0.00  0.00    -0.390 OA
ATOM     24  O5  NAG d 810      -1.721  41.443  76.875  0.00  0.00    -0.349 OA
ATOM     25  C4  NAG d 810      -0.211  39.573  77.345  0.00  0.00     0.089 C 
ATOM     26  O3  NAG d 810      -1.016  37.265  76.945  0.00  0.00    -0.348 OA
ATOM     27  C7  NAG d 810      -3.690  37.490  75.176  0.00  0.00     0.214 C 
ATOM     28  N2  NAG d 810      -3.482  38.249  76.243  0.00  0.00    -0.349 N 
ATOM     29  C5  NAG d 810      -0.688  40.986  77.750  0.00  0.00     0.089 C 
ATOM     30  C1  NAG d 810      -2.856  40.564  76.856  0.00  0.00     0.151 C 
ATOM     31  C8  NAG d 810      -4.686  36.356  75.358  0.00  0.00    -0.003 C 
ATOM     32  O7  NAG d 810      -3.121  37.716  74.120  0.00  0.00    -0.274 OA
ATOM     33  H   NAG d 810       0.801  43.808  77.815  0.00  0.00     0.209 HD
ATOM     34  H   NAG d 810      -4.649  40.483  76.025  0.00  0.00     0.212 HD
ATOM     35  H   NAG d 810       1.275  41.624  78.362  0.00  0.00     0.078 H 
ATOM     36  H   NAG d 810       1.006  41.814  76.675  0.00  0.00     0.078 H 
ATOM     37  H   NAG d 810      -1.963  39.317  75.380  0.00  0.00     0.084 H 
ATOM     38  H   NAG d 810      -1.792  38.510  78.306  0.00  0.00     0.091 H 
ATOM     39  H   NAG d 810       1.093  38.194  77.888  0.00  0.00     0.210 HD
ATOM     40  H   NAG d 810       0.202  39.652  76.361  0.00  0.00     0.091 H 
ATOM     41  H   NAG d 810      -4.106  38.172  77.000  0.00  0.00     0.163 HD
ATOM     42  H   NAG d 810      -1.091  40.987  78.740  0.00  0.00     0.090 H 
ATOM     43  H   NAG d 810      -3.259  40.472  77.842  0.00  0.00     0.132 H 
ATOM     44  H   NAG d 810      -5.049  36.359  76.364  0.00  0.00     0.040 H 
ATOM     45  H   NAG d 810      -4.204  35.423  75.155  0.00  0.00     0.040 H 
ATOM     46  H   NAG d 810      -5.506  36.489  74.682  0.00  0.00     0.040 H 
ENDROOT
TORSDOF 11
ENDMDL
MODEL 23
REMARK VINA RESULT:      -7.2      2.446      3.895
REMARK  0 active torsions:
REMARK  status: ('A' for Active; 'I' for Inactive)
REMARK       I    between atoms: C2_1  and  O2_21 
REMARK       I    between atoms: O6_3  and  C6_7 
REMARK       I    between atoms: C1_4  and  O3_17 
REMARK       I    between atoms: O1_5  and  C1_23 
REMARK       I    between atoms: C3_6  and  O3_9 
REMARK       I    between atoms: C6_7  and  C5_22 
REMARK       I    between atoms: C2_8  and  N2_19 
REMARK       I    between atoms: C3_10  and  O3_17 
REMARK       I    between atoms: O4_11  and  C4_15 
REMARK       I    between atoms: C6_16  and  C5_26 
REMARK       I    between atoms: C7_18  and  C8_24 
REMARK       I    between atoms: C7_18  and  N2_19 
ROOT
ATOM      1  C2  GAD d 809      -2.035  37.694  76.254  0.00  0.00     0.111 C 
ATOM      2  O6A GAD d 809      -6.510  37.696  79.165  0.00  0.00    -0.642 OA
ATOM      3  C1  GAD d 809      -2.046  37.292  77.738  0.00  0.00     0.165 C 
ATOM      4  C3  GAD d 809      -3.333  38.406  75.872  0.00  0.00     0.084 C 
ATOM      5  O3  GAD d 809      -3.760  37.995  74.559  0.00  0.00    -0.389 OA
ATOM      6  C4  GAD d 809      -4.401  38.366  77.009  0.00  0.00    -0.034 C 
ATOM      7  O5  GAD d 809      -3.252  36.493  77.796  0.00  0.00    -0.311 OA
ATOM      8  C6  GAD d 809      -5.486  36.973  78.909  0.00  0.00     0.233 C 
ATOM      9  O6B GAD d 809      -5.214  35.867  79.450  0.00  0.00    -0.642 OA
ATOM     10  O2  GAD d 809      -1.001  38.603  75.963  0.00  0.00    -0.388 OA
ATOM     11  C5  GAD d 809      -4.424  37.328  77.854  0.00  0.00     0.147 C 
ATOM     12  H   GAD d 809      -1.904  36.782  75.709  0.00  0.00     0.095 H 
ATOM     13  H   GAD d 809      -2.159  38.004  78.529  0.00  0.00     0.134 H 
ATOM     14  H   GAD d 809      -3.153  39.457  75.782  0.00  0.00     0.093 H 
ATOM     15  H   GAD d 809      -3.943  37.042  74.562  0.00  0.00     0.210 HD
ATOM     16  H   GAD d 809      -5.085  39.132  77.108  0.00  0.00     0.085 H 
ATOM     17  H   GAD d 809      -1.139  39.421  76.466  0.00  0.00     0.210 HD
ATOM     18  O6  NAG d 810       1.341  33.905  83.000  0.00  0.00    -0.398 OA
ATOM     19  O1  NAG d 810       1.870  38.610  81.985  0.00  0.00    -0.369 OA
ATOM     20  C6  NAG d 810       0.907  33.935  81.682  0.00  0.00     0.043 C 
ATOM     21  C2  NAG d 810       0.636  37.784  80.031  0.00  0.00     0.087 C 
ATOM     22  C3  NAG d 810      -0.484  36.854  79.637  0.00  0.00     0.093 C 
ATOM     23  O4  NAG d 810      -0.980  34.478  79.570  0.00  0.00    -0.390 OA
ATOM     24  O5  NAG d 810       1.324  36.320  81.832  0.00  0.00    -0.349 OA
ATOM     25  C4  NAG d 810      -0.012  35.444  79.975  0.00  0.00     0.089 C 
ATOM     26  O3  NAG d 810      -0.829  37.023  78.250  0.00  0.00    -0.348 OA
ATOM     27  C7  NAG d 810       0.798  39.768  78.634  0.00  0.00     0.214 C 
ATOM     28  N2  NAG d 810       0.257  39.118  79.655  0.00  0.00    -0.349 N 
ATOM     29  C5  NAG d 810       0.344  35.343  81.476  0.00  0.00     0.089 C 
ATOM     30  C1  NAG d 810       0.892  37.661  81.553  0.00  0.00     0.151 C 
ATOM     31  C8  NAG d 810       0.065  41.024  78.190  0.00  0.00    -0.003 C 
ATOM     32  O7  NAG d 810       1.828  39.375  78.111  0.00  0.00    -0.274 OA
ATOM     33  H   NAG d 810       1.713  33.031  83.198  0.00  0.00     0.209 HD
ATOM     34  H   NAG d 810       1.559  39.508  81.788  0.00  0.00     0.212 HD
ATOM     35  H   NAG d 810       0.147  33.200  81.520  0.00  0.00     0.078 H 
ATOM     36  H   NAG d 810       1.699  33.717  80.996  0.00  0.00     0.078 H 
ATOM     37  H   NAG d 810       1.548  37.533  79.531  0.00  0.00     0.084 H 
ATOM     38  H   NAG d 810      -1.387  37.065  80.171  0.00  0.00     0.091 H 
ATOM     39  H   NAG d 810      -1.166  34.584  78.624  0.00  0.00     0.210 HD
ATOM     40  H   NAG d 810       0.881  35.230  79.427  0.00  0.00     0.091 H 
ATOM     41  H   NAG d 810      -0.440  39.571  80.181  0.00  0.00     0.163 HD
ATOM     42  H   NAG d 810      -0.515  35.521  82.088  0.00  0.00     0.090 H 
ATOM     43  H   NAG d 810      -0.010  37.870  82.088  0.00  0.00     0.132 H 
ATOM     44  H   NAG d 810      -0.806  41.161  78.796  0.00  0.00     0.040 H 
ATOM     45  H   NAG d 810      -0.225  40.924  77.165  0.00  0.00     0.040 H 
ATOM     46  H   NAG d 810       0.711  41.871  78.298  0.00  0.00     0.040 H 
ENDROOT
TORSDOF 11
ENDMDL
MODEL 24
REMARK VINA RESULT:      -7.2      3.057      5.041
REMARK  0 active torsions:
REMARK  status: ('A' for Active; 'I' for Inactive)
REMARK       I    between atoms: C2_1  and  O2_21 
REMARK       I    between atoms: O6_3  and  C6_7 
REMARK       I    between atoms: C1_4  and  O3_17 
REMARK       I    between atoms: O1_5  and  C1_23 
REMARK       I    between atoms: C3_6  and  O3_9 
REMARK       I    between atoms: C6_7  and  C5_22 
REMARK       I    between atoms: C2_8  and  N2_19 
REMARK       I    between atoms: C3_10  and  O3_17 
REMARK       I    between atoms: O4_11  and  C4_15 
REMARK       I    between atoms: C6_16  and  C5_26 
REMARK       I    between atoms: C7_18  and  C8_24 
REMARK       I    between atoms: C7_18  and  N2_19 
ROOT
ATOM      1  C2  GAD d 809       0.752  35.348  77.772  0.00  0.00     0.111 C 
ATOM      2  O6A GAD d 809      -0.357  35.226  82.993  0.00  0.00    -0.642 OA
ATOM      3  C1  GAD d 809       0.577  36.630  78.602  0.00  0.00     0.165 C 
ATOM      4  C3  GAD d 809       0.222  34.131  78.531  0.00  0.00     0.084 C 
ATOM      5  O3  GAD d 809       1.086  32.997  78.322  0.00  0.00    -0.389 OA
ATOM      6  C4  GAD d 809      -0.168  34.461  80.006  0.00  0.00    -0.034 C 
ATOM      7  O5  GAD d 809       1.289  36.273  79.811  0.00  0.00    -0.311 OA
ATOM      8  C6  GAD d 809       0.417  35.798  82.149  0.00  0.00     0.233 C 
ATOM      9  O6B GAD d 809       1.247  36.710  82.416  0.00  0.00    -0.642 OA
ATOM     10  O2  GAD d 809       0.022  35.395  76.570  0.00  0.00    -0.388 OA
ATOM     11  C5  GAD d 809       0.483  35.432  80.657  0.00  0.00     0.147 C 
ATOM     12  H   GAD d 809       1.801  35.271  77.577  0.00  0.00     0.095 H 
ATOM     13  H   GAD d 809      -0.377  36.971  78.945  0.00  0.00     0.134 H 
ATOM     14  H   GAD d 809      -0.720  33.833  78.120  0.00  0.00     0.093 H 
ATOM     15  H   GAD d 809       1.969  33.194  78.673  0.00  0.00     0.210 HD
ATOM     16  H   GAD d 809      -0.922  33.935  80.475  0.00  0.00     0.085 H 
ATOM     17  H   GAD d 809      -0.925  35.464  76.770  0.00  0.00     0.210 HD
ATOM     18  O6  NAG d 810       1.805  43.624  79.054  0.00  0.00    -0.398 OA
ATOM     19  O1  NAG d 810      -2.189  41.664  77.143  0.00  0.00    -0.369 OA
ATOM     20  C6  NAG d 810       2.261  42.347  78.758  0.00  0.00     0.043 C 
ATOM     21  C2  NAG d 810      -0.708  39.721  77.380  0.00  0.00     0.087 C 
ATOM     22  C3  NAG d 810       0.294  39.096  78.319  0.00  0.00     0.093 C 
ATOM     23  O4  NAG d 810       2.523  39.508  79.188  0.00  0.00    -0.390 OA
ATOM     24  O5  NAG d 810      -0.008  41.954  77.995  0.00  0.00    -0.349 OA
ATOM     25  C4  NAG d 810       1.482  40.049  78.376  0.00  0.00     0.089 C 
ATOM     26  O3  NAG d 810       0.647  37.769  77.885  0.00  0.00    -0.348 OA
ATOM     27  C7  NAG d 810      -2.034  38.100  76.144  0.00  0.00     0.214 C 
ATOM     28  N2  NAG d 810      -1.811  38.811  77.241  0.00  0.00    -0.349 N 
ATOM     29  C5  NAG d 810       1.024  41.449  78.843  0.00  0.00     0.089 C 
ATOM     30  C1  NAG d 810      -1.153  41.091  77.946  0.00  0.00     0.151 C 
ATOM     31  C8  NAG d 810      -3.043  36.971  76.285  0.00  0.00    -0.003 C 
ATOM     32  O7  NAG d 810      -1.469  38.364  75.095  0.00  0.00    -0.274 OA
ATOM     33  H   NAG d 810       2.547  44.249  79.017  0.00  0.00     0.209 HD
ATOM     34  H   NAG d 810      -2.952  41.065  77.124  0.00  0.00     0.212 HD
ATOM     35  H   NAG d 810       2.998  42.038  79.469  0.00  0.00     0.078 H 
ATOM     36  H   NAG d 810       2.722  42.302  77.794  0.00  0.00     0.078 H 
ATOM     37  H   NAG d 810      -0.284  39.896  76.414  0.00  0.00     0.084 H 
ATOM     38  H   NAG d 810      -0.106  38.965  79.302  0.00  0.00     0.091 H 
ATOM     39  H   NAG d 810       2.773  38.633  78.853  0.00  0.00     0.210 HD
ATOM     40  H   NAG d 810       1.890  40.164  77.394  0.00  0.00     0.091 H 
ATOM     41  H   NAG d 810      -2.432  38.710  77.997  0.00  0.00     0.163 HD
ATOM     42  H   NAG d 810       0.627  41.413  79.836  0.00  0.00     0.090 H 
ATOM     43  H   NAG d 810      -1.552  40.962  78.931  0.00  0.00     0.132 H 
ATOM     44  H   NAG d 810      -3.400  36.936  77.293  0.00  0.00     0.040 H 
ATOM     45  H   NAG d 810      -2.574  36.042  76.040  0.00  0.00     0.040 H 
ATOM     46  H   NAG d 810      -3.865  37.142  75.621  0.00  0.00     0.040 H 
ENDROOT
TORSDOF 11
ENDMDL
MODEL 25
REMARK VINA RESULT:      -7.2      2.327      4.406
REMARK  0 active torsions:
REMARK  status: ('A' for Active; 'I' for Inactive)
REMARK       I    between atoms: C2_1  and  O2_21 
REMARK       I    between atoms: O6_3  and  C6_7 
REMARK       I    between atoms: C1_4  and  O3_17 
REMARK       I    between atoms: O1_5  and  C1_23 
REMARK       I    between atoms: C3_6  and  O3_9 
REMARK       I    between atoms: C6_7  and  C5_22 
REMARK       I    between atoms: C2_8  and  N2_19 
REMARK       I    between atoms: C3_10  and  O3_17 
REMARK       I    between atoms: O4_11  and  C4_15 
REMARK       I    between atoms: C6_16  and  C5_26 
REMARK       I    between atoms: C7_18  and  C8_24 
REMARK       I    between atoms: C7_18  and  N2_19 
ROOT
ATOM      1  C2  GAD d 809      -3.574  36.801  77.548  0.00  0.00     0.111 C 
ATOM      2  O6A GAD d 809      -3.184  38.631  72.548  0.00  0.00    -0.642 OA
ATOM      3  C1  GAD d 809      -2.421  37.711  77.097  0.00  0.00     0.165 C 
ATOM      4  C3  GAD d 809      -4.324  36.233  76.342  0.00  0.00     0.084 C 
ATOM      5  O3  GAD d 809      -5.741  36.205  76.604  0.00  0.00    -0.389 OA
ATOM      6  C4  GAD d 809      -3.866  36.869  74.992  0.00  0.00    -0.034 C 
ATOM      7  O5  GAD d 809      -3.132  38.671  76.280  0.00  0.00    -0.311 OA
ATOM      8  C6  GAD d 809      -3.106  39.022  73.764  0.00  0.00     0.233 C 
ATOM      9  O6B GAD d 809      -2.797  40.185  74.141  0.00  0.00    -0.642 OA
ATOM     10  O2  GAD d 809      -3.113  35.685  78.269  0.00  0.00    -0.388 OA
ATOM     11  C5  GAD d 809      -3.419  38.130  74.977  0.00  0.00     0.147 C 
ATOM     12  H   GAD d 809      -4.204  37.413  78.158  0.00  0.00     0.095 H 
ATOM     13  H   GAD d 809      -1.623  37.367  76.472  0.00  0.00     0.134 H 
ATOM     14  H   GAD d 809      -4.054  35.208  76.201  0.00  0.00     0.093 H 
ATOM     15  H   GAD d 809      -6.062  37.109  76.744  0.00  0.00     0.210 HD
ATOM     16  H   GAD d 809      -3.908  36.321  74.118  0.00  0.00     0.085 H 
ATOM     17  H   GAD d 809      -2.545  35.143  77.699  0.00  0.00     0.210 HD
ATOM     18  O6  NAG d 810       2.774  42.145  79.095  0.00  0.00    -0.398 OA
ATOM     19  O1  NAG d 810       3.338  37.378  78.456  0.00  0.00    -0.369 OA
ATOM     20  C6  NAG d 810       1.461  41.711  79.213  0.00  0.00     0.043 C 
ATOM     21  C2  NAG d 810       0.898  37.634  78.393  0.00  0.00     0.087 C 
ATOM     22  C3  NAG d 810      -0.191  38.535  77.865  0.00  0.00     0.093 C 
ATOM     23  O4  NAG d 810      -1.074  40.770  78.211  0.00  0.00    -0.390 OA
ATOM     24  O5  NAG d 810       2.379  39.512  78.764  0.00  0.00    -0.349 OA
ATOM     25  C4  NAG d 810      -0.037  39.867  78.591  0.00  0.00     0.089 C 
ATOM     26  O3  NAG d 810      -1.487  37.934  78.043  0.00  0.00    -0.348 OA
ATOM     27  C7  NAG d 810       0.284  35.282  78.442  0.00  0.00     0.214 C 
ATOM     28  N2  NAG d 810       0.736  36.342  77.787  0.00  0.00    -0.349 N 
ATOM     29  C5  NAG d 810       1.377  40.445  78.358  0.00  0.00     0.089 C 
ATOM     30  C1  NAG d 810       2.278  38.258  78.073  0.00  0.00     0.151 C 
ATOM     31  C8  NAG d 810      -0.119  34.097  77.578  0.00  0.00    -0.003 C 
ATOM     32  O7  NAG d 810       0.220  35.273  79.660  0.00  0.00    -0.274 OA
ATOM     33  H   NAG d 810       2.896  42.952  79.618  0.00  0.00     0.209 HD
ATOM     34  H   NAG d 810       3.250  36.538  77.979  0.00  0.00     0.212 HD
ATOM     35  H   NAG d 810       0.786  42.456  78.847  0.00  0.00     0.078 H 
ATOM     36  H   NAG d 810       1.193  41.524  80.232  0.00  0.00     0.078 H 
ATOM     37  H   NAG d 810       0.835  37.524  79.456  0.00  0.00     0.084 H 
ATOM     38  H   NAG d 810      -0.105  38.692  76.811  0.00  0.00     0.091 H 
ATOM     39  H   NAG d 810      -1.937  40.361  78.378  0.00  0.00     0.210 HD
ATOM     40  H   NAG d 810      -0.141  39.709  79.644  0.00  0.00     0.091 H 
ATOM     41  H   NAG d 810       0.972  36.239  76.837  0.00  0.00     0.163 HD
ATOM     42  H   NAG d 810       1.542  40.653  77.322  0.00  0.00     0.090 H 
ATOM     43  H   NAG d 810       2.365  38.417  77.018  0.00  0.00     0.132 H 
ATOM     44  H   NAG d 810       0.024  34.342  76.547  0.00  0.00     0.040 H 
ATOM     45  H   NAG d 810      -1.149  33.865  77.750  0.00  0.00     0.040 H 
ATOM     46  H   NAG d 810       0.485  33.250  77.831  0.00  0.00     0.040 H 
ENDROOT
TORSDOF 11
ENDMDL
MODEL 26
REMARK VINA RESULT:      -7.1      2.784      6.684
REMARK  0 active torsions:
REMARK  status: ('A' for Active; 'I' for Inactive)
REMARK       I    between atoms: C2_1  and  O2_21 
REMARK       I    between atoms: O6_3  and  C6_7 
REMARK       I    between atoms: C1_4  and  O3_17 
REMARK       I    between atoms: O1_5  and  C1_23 
REMARK       I    between atoms: C3_6  and  O3_9 
REMARK       I    between atoms: C6_7  and  C5_22 
REMARK       I    between atoms: C2_8  and  N2_19 
REMARK       I    between atoms: C3_10  and  O3_17 
REMARK       I    between atoms: O4_11  and  C4_15 
REMARK       I    between atoms: C6_16  and  C5_26 
REMARK       I    between atoms: C7_18  and  C8_24 
REMARK       I    between atoms: C7_18  and  N2_19 
ROOT
ATOM      1  C2  GAD d 809       1.765  35.730  77.727  0.00  0.00     0.111 C 
ATOM      2  O6A GAD d 809       1.725  38.945  81.988  0.00  0.00    -0.642 OA
ATOM      3  C1  GAD d 809       0.715  36.837  77.907  0.00  0.00     0.165 C 
ATOM      4  C3  GAD d 809       2.505  35.462  79.038  0.00  0.00     0.084 C 
ATOM      5  O3  GAD d 809       3.903  35.224  78.783  0.00  0.00    -0.389 OA
ATOM      6  C4  GAD d 809       2.156  36.499  80.151  0.00  0.00    -0.034 C 
ATOM      7  O5  GAD d 809       1.539  37.918  78.404  0.00  0.00    -0.311 OA
ATOM      8  C6  GAD d 809       1.638  38.977  80.712  0.00  0.00     0.233 C 
ATOM      9  O6B GAD d 809       1.420  40.008  80.017  0.00  0.00    -0.642 OA
ATOM     10  O2  GAD d 809       1.179  34.504  77.363  0.00  0.00    -0.388 OA
ATOM     11  C5  GAD d 809       1.824  37.749  79.805  0.00  0.00     0.147 C 
ATOM     12  H   GAD d 809       2.425  36.078  76.960  0.00  0.00     0.095 H 
ATOM     13  H   GAD d 809      -0.087  36.766  78.612  0.00  0.00     0.134 H 
ATOM     14  H   GAD d 809       2.149  34.552  79.472  0.00  0.00     0.093 H 
ATOM     15  H   GAD d 809       4.299  36.015  78.384  0.00  0.00     0.210 HD
ATOM     16  H   GAD d 809       2.181  36.224  81.145  0.00  0.00     0.085 H 
ATOM     17  H   GAD d 809       0.586  34.206  78.071  0.00  0.00     0.210 HD
ATOM     18  O6  NAG d 810      -4.133  40.991  74.762  0.00  0.00    -0.398 OA
ATOM     19  O1  NAG d 810      -5.097  36.685  76.756  0.00  0.00    -0.369 OA
ATOM     20  C6  NAG d 810      -2.869  40.418  74.762  0.00  0.00     0.043 C 
ATOM     21  C2  NAG d 810      -2.643  36.712  76.720  0.00  0.00     0.087 C 
ATOM     22  C3  NAG d 810      -1.459  37.618  76.954  0.00  0.00     0.093 C 
ATOM     23  O4  NAG d 810      -0.393  39.564  75.969  0.00  0.00    -0.390 OA
ATOM     24  O5  NAG d 810      -3.963  38.538  75.836  0.00  0.00    -0.349 OA
ATOM     25  C4  NAG d 810      -1.520  38.694  75.876  0.00  0.00     0.089 C 
ATOM     26  O3  NAG d 810      -0.229  36.869  76.946  0.00  0.00    -0.348 OA
ATOM     27  C7  NAG d 810      -2.244  34.397  77.347  0.00  0.00     0.214 C 
ATOM     28  N2  NAG d 810      -2.575  35.639  77.672  0.00  0.00    -0.349 N 
ATOM     29  C5  NAG d 810      -2.867  39.447  75.946  0.00  0.00     0.089 C 
ATOM     30  C1  NAG d 810      -3.949  37.531  76.859  0.00  0.00     0.151 C 
ATOM     31  C8  NAG d 810      -1.917  33.476  78.512  0.00  0.00    -0.003 C 
ATOM     32  O7  NAG d 810      -2.226  34.033  76.183  0.00  0.00    -0.274 OA
ATOM     33  H   NAG d 810      -4.202  41.622  74.029  0.00  0.00     0.209 HD
ATOM     34  H   NAG d 810      -5.067  36.013  77.456  0.00  0.00     0.212 HD
ATOM     35  H   NAG d 810      -2.117  41.168  74.891  0.00  0.00     0.078 H 
ATOM     36  H   NAG d 810      -2.656  39.922  73.838  0.00  0.00     0.078 H 
ATOM     37  H   NAG d 810      -2.629  36.297  75.733  0.00  0.00     0.084 H 
ATOM     38  H   NAG d 810      -1.492  38.078  77.919  0.00  0.00     0.091 H 
ATOM     39  H   NAG d 810       0.423  39.043  75.920  0.00  0.00     0.210 HD
ATOM     40  H   NAG d 810      -1.469  38.231  74.913  0.00  0.00     0.091 H 
ATOM     41  H   NAG d 810      -2.784  35.836  78.613  0.00  0.00     0.163 HD
ATOM     42  H   NAG d 810      -2.974  39.959  76.879  0.00  0.00     0.090 H 
ATOM     43  H   NAG d 810      -3.982  37.994  77.823  0.00  0.00     0.132 H 
ATOM     44  H   NAG d 810      -1.999  34.020  79.430  0.00  0.00     0.040 H 
ATOM     45  H   NAG d 810      -0.919  33.107  78.405  0.00  0.00     0.040 H 
ATOM     46  H   NAG d 810      -2.603  32.655  78.521  0.00  0.00     0.040 H 
ENDROOT
TORSDOF 11
ENDMDL
MODEL 27
REMARK VINA RESULT:      -7.1      2.882      4.599
REMARK  0 active torsions:
REMARK  status: ('A' for Active; 'I' for Inactive)
REMARK       I    between atoms: C2_1  and  O2_21 
REMARK       I    between atoms: O6_3  and  C6_7 
REMARK       I    between atoms: C1_4  and  O3_17 
REMARK       I    between atoms: O1_5  and  C1_23 
REMARK       I    between atoms: C3_6  and  O3_9 
REMARK       I    between atoms: C6_7  and  C5_22 
REMARK       I    between atoms: C2_8  and  N2_19 
REMARK       I    between atoms: C3_10  and  O3_17 
REMARK       I    between atoms: O4_11  and  C4_15 
REMARK       I    between atoms: C6_16  and  C5_26 
REMARK       I    between atoms: C7_18  and  C8_24 
REMARK       I    between atoms: C7_18  and  N2_19 
ROOT
ATOM      1  C2  GAD d 809      -3.872  35.512  77.289  0.00  0.00     0.111 C 
ATOM      2  O6A GAD d 809      -3.325  38.859  73.165  0.00  0.00    -0.642 OA
ATOM      3  C1  GAD d 809      -2.609  36.364  77.088  0.00  0.00     0.165 C 
ATOM      4  C3  GAD d 809      -4.721  35.487  76.017  0.00  0.00     0.084 C 
ATOM      5  O3  GAD d 809      -6.121  35.555  76.349  0.00  0.00    -0.389 OA
ATOM      6  C4  GAD d 809      -4.204  36.477  74.926  0.00  0.00    -0.034 C 
ATOM      7  O5  GAD d 809      -3.192  37.627  76.687  0.00  0.00    -0.311 OA
ATOM      8  C6  GAD d 809      -3.166  38.803  74.434  0.00  0.00     0.233 C 
ATOM      9  O6B GAD d 809      -2.685  39.719  75.155  0.00  0.00    -0.642 OA
ATOM     10  O2  GAD d 809      -3.562  34.168  77.565  0.00  0.00    -0.388 OA
ATOM     11  C5  GAD d 809      -3.579  37.600  75.300  0.00  0.00     0.147 C 
ATOM     12  H   GAD d 809      -4.395  35.958  78.108  0.00  0.00     0.095 H 
ATOM     13  H   GAD d 809      -1.882  36.153  76.332  0.00  0.00     0.134 H 
ATOM     14  H   GAD d 809      -4.604  34.544  75.525  0.00  0.00     0.093 H 
ATOM     15  H   GAD d 809      -6.306  36.392  76.803  0.00  0.00     0.210 HD
ATOM     16  H   GAD d 809      -4.342  36.268  73.925  0.00  0.00     0.085 H 
ATOM     17  H   GAD d 809      -3.089  33.783  76.811  0.00  0.00     0.210 HD
ATOM     18  O6  NAG d 810       3.210  39.153  80.088  0.00  0.00    -0.398 OA
ATOM     19  O1  NAG d 810       3.068  34.852  77.867  0.00  0.00    -0.369 OA
ATOM     20  C6  NAG d 810       1.851  38.878  80.144  0.00  0.00     0.043 C 
ATOM     21  C2  NAG d 810       0.689  35.427  78.058  0.00  0.00     0.087 C 
ATOM     22  C3  NAG d 810      -0.269  36.586  77.934  0.00  0.00     0.093 C 
ATOM     23  O4  NAG d 810      -0.813  38.666  79.061  0.00  0.00    -0.390 OA
ATOM     24  O5  NAG d 810       2.433  36.861  78.929  0.00  0.00    -0.349 OA
ATOM     25  C4  NAG d 810       0.090  37.562  79.048  0.00  0.00     0.089 C 
ATOM     26  O3  NAG d 810      -1.634  36.132  77.989  0.00  0.00    -0.348 OA
ATOM     27  C7  NAG d 810      -0.256  33.297  77.364  0.00  0.00     0.214 C 
ATOM     28  N2  NAG d 810       0.331  34.449  77.069  0.00  0.00    -0.349 N 
ATOM     29  C5  NAG d 810       1.568  37.997  78.925  0.00  0.00     0.089 C 
ATOM     30  C1  NAG d 810       2.138  35.939  77.870  0.00  0.00     0.151 C 
ATOM     31  C8  NAG d 810      -0.843  32.536  76.186  0.00  0.00    -0.003 C 
ATOM     32  O7  NAG d 810      -0.295  32.884  78.512  0.00  0.00    -0.274 OA
ATOM     33  H   NAG d 810       3.458  39.713  80.841  0.00  0.00     0.209 HD
ATOM     34  H   NAG d 810       2.851  34.242  77.144  0.00  0.00     0.212 HD
ATOM     35  H   NAG d 810       1.283  39.783  80.093  0.00  0.00     0.078 H 
ATOM     36  H   NAG d 810       1.579  38.394  81.059  0.00  0.00     0.078 H 
ATOM     37  H   NAG d 810       0.633  34.973  79.025  0.00  0.00     0.084 H 
ATOM     38  H   NAG d 810      -0.182  37.078  76.988  0.00  0.00     0.091 H 
ATOM     39  H   NAG d 810      -1.722  38.339  79.140  0.00  0.00     0.210 HD
ATOM     40  H   NAG d 810      -0.014  37.072  79.994  0.00  0.00     0.091 H 
ATOM     41  H   NAG d 810       0.530  34.643  76.125  0.00  0.00     0.163 HD
ATOM     42  H   NAG d 810       1.740  38.521  78.008  0.00  0.00     0.090 H 
ATOM     43  H   NAG d 810       2.226  36.433  76.925  0.00  0.00     0.132 H 
ATOM     44  H   NAG d 810      -0.687  33.095  75.287  0.00  0.00     0.040 H 
ATOM     45  H   NAG d 810      -1.892  32.394  76.340  0.00  0.00     0.040 H 
ATOM     46  H   NAG d 810      -0.362  31.583  76.101  0.00  0.00     0.040 H 
ENDROOT
TORSDOF 11
ENDMDL
MODEL 28
REMARK VINA RESULT:      -7.1      2.399      7.073
REMARK  0 active torsions:
REMARK  status: ('A' for Active; 'I' for Inactive)
REMARK       I    between atoms: C2_1  and  O2_21 
REMARK       I    between atoms: O6_3  and  C6_7 
REMARK       I    between atoms: C1_4  and  O3_17 
REMARK       I    between atoms: O1_5  and  C1_23 
REMARK       I    between atoms: C3_6  and  O3_9 
REMARK       I    between atoms: C6_7  and  C5_22 
REMARK       I    between atoms: C2_8  and  N2_19 
REMARK       I    between atoms: C3_10  and  O3_17 
REMARK       I    between atoms: O4_11  and  C4_15 
REMARK       I    between atoms: C6_16  and  C5_26 
REMARK       I    between atoms: C7_18  and  C8_24 
REMARK       I    between atoms: C7_18  and  N2_19 
ROOT
ATOM      1  C2  GAD d 809      -0.083  36.302  77.474  0.00  0.00     0.111 C 
ATOM      2  O6A GAD d 809      -0.795  41.557  76.860  0.00  0.00    -0.642 OA
ATOM      3  C1  GAD d 809      -1.447  36.906  77.105  0.00  0.00     0.165 C 
ATOM      4  C3  GAD d 809       0.874  37.384  77.975  0.00  0.00     0.084 C 
ATOM      5  O3  GAD d 809       2.205  37.143  77.478  0.00  0.00    -0.389 OA
ATOM      6  C4  GAD d 809       0.303  38.826  77.797  0.00  0.00    -0.034 C 
ATOM      7  O5  GAD d 809      -1.052  37.905  76.135  0.00  0.00    -0.311 OA
ATOM      8  C6  GAD d 809      -1.061  40.440  76.295  0.00  0.00     0.233 C 
ATOM      9  O6B GAD d 809      -1.757  40.293  75.253  0.00  0.00    -0.642 OA
ATOM     10  O2  GAD d 809      -0.186  35.370  78.523  0.00  0.00    -0.388 OA
ATOM     11  C5  GAD d 809      -0.535  39.081  76.785  0.00  0.00     0.147 C 
ATOM     12  H   GAD d 809       0.277  35.833  76.582  0.00  0.00     0.095 H 
ATOM     13  H   GAD d 809      -2.053  37.440  77.807  0.00  0.00     0.134 H 
ATOM     14  H   GAD d 809       0.966  37.318  79.039  0.00  0.00     0.093 H 
ATOM     15  H   GAD d 809       2.201  37.186  76.509  0.00  0.00     0.210 HD
ATOM     16  H   GAD d 809       0.569  39.576  78.453  0.00  0.00     0.085 H 
ATOM     17  H   GAD d 809      -0.513  35.815  79.320  0.00  0.00     0.210 HD
ATOM     18  O6  NAG d 810      -7.913  35.739  74.371  0.00  0.00    -0.398 OA
ATOM     19  O1  NAG d 810      -6.835  35.425  79.082  0.00  0.00    -0.369 OA
ATOM     20  C6  NAG d 810      -6.539  35.557  74.310  0.00  0.00     0.043 C 
ATOM     21  C2  NAG d 810      -4.616  35.572  78.041  0.00  0.00     0.087 C 
ATOM     22  C3  NAG d 810      -3.861  36.281  76.944  0.00  0.00     0.093 C 
ATOM     23  O4  NAG d 810      -3.787  36.392  74.520  0.00  0.00    -0.390 OA
ATOM     24  O5  NAG d 810      -6.653  35.554  76.733  0.00  0.00    -0.349 OA
ATOM     25  C4  NAG d 810      -4.484  35.828  75.629  0.00  0.00     0.089 C 
ATOM     26  O3  NAG d 810      -2.450  36.008  77.032  0.00  0.00    -0.348 OA
ATOM     27  C7  NAG d 810      -3.263  35.074  79.998  0.00  0.00     0.214 C 
ATOM     28  N2  NAG d 810      -4.005  35.916  79.294  0.00  0.00    -0.349 N 
ATOM     29  C5  NAG d 810      -5.996  36.149  75.613  0.00  0.00     0.089 C 
ATOM     30  C1  NAG d 810      -6.106  35.988  77.987  0.00  0.00     0.151 C 
ATOM     31  C8  NAG d 810      -2.446  35.694  81.120  0.00  0.00    -0.003 C 
ATOM     32  O7  NAG d 810      -3.263  33.878  79.755  0.00  0.00    -0.274 OA
ATOM     33  H   NAG d 810      -8.322  35.382  73.568  0.00  0.00     0.209 HD
ATOM     34  H   NAG d 810      -6.449  35.731  79.918  0.00  0.00     0.212 HD
ATOM     35  H   NAG d 810      -6.130  36.071  73.465  0.00  0.00     0.078 H 
ATOM     36  H   NAG d 810      -6.277  34.525  74.200  0.00  0.00     0.078 H 
ATOM     37  H   NAG d 810      -4.577  34.509  77.920  0.00  0.00     0.084 H 
ATOM     38  H   NAG d 810      -3.939  37.345  77.028  0.00  0.00     0.091 H 
ATOM     39  H   NAG d 810      -2.846  36.161  74.578  0.00  0.00     0.210 HD
ATOM     40  H   NAG d 810      -4.389  34.766  75.541  0.00  0.00     0.091 H 
ATOM     41  H   NAG d 810      -4.144  36.824  79.648  0.00  0.00     0.163 HD
ATOM     42  H   NAG d 810      -6.166  37.204  75.671  0.00  0.00     0.090 H 
ATOM     43  H   NAG d 810      -6.186  37.052  78.069  0.00  0.00     0.132 H 
ATOM     44  H   NAG d 810      -2.608  36.751  81.136  0.00  0.00     0.040 H 
ATOM     45  H   NAG d 810      -1.408  35.495  80.958  0.00  0.00     0.040 H 
ATOM     46  H   NAG d 810      -2.748  35.272  82.057  0.00  0.00     0.040 H 
ENDROOT
TORSDOF 11
ENDMDL
MODEL 29
REMARK VINA RESULT:      -7.1      1.844      6.290
REMARK  0 active torsions:
REMARK  status: ('A' for Active; 'I' for Inactive)
REMARK       I    between atoms: C2_1  and  O2_21 
REMARK       I    between atoms: O6_3  and  C6_7 
REMARK       I    between atoms: C1_4  and  O3_17 
REMARK       I    between atoms: O1_5  and  C1_23 
REMARK       I    between atoms: C3_6  and  O3_9 
REMARK       I    between atoms: C6_7  and  C5_22 
REMARK       I    between atoms: C2_8  and  N2_19 
REMARK       I    between atoms: C3_10  and  O3_17 
REMARK       I    between atoms: O4_11  and  C4_15 
REMARK       I    between atoms: C6_16  and  C5_26 
REMARK       I    between atoms: C7_18  and  C8_24 
REMARK       I    between atoms: C7_18  and  N2_19 
ROOT
ATOM      1  C2  GAD d 809      -0.491  40.222  78.575  0.00  0.00     0.111 C 
ATOM      2  O6A GAD d 809       2.644  36.001  79.502  0.00  0.00    -0.642 OA
ATOM      3  C1  GAD d 809      -0.983  38.779  78.380  0.00  0.00     0.165 C 
ATOM      4  C3  GAD d 809       1.032  40.267  78.696  0.00  0.00     0.084 C 
ATOM      5  O3  GAD d 809       1.426  41.230  79.692  0.00  0.00    -0.389 OA
ATOM      6  C4  GAD d 809       1.673  38.847  78.793  0.00  0.00    -0.034 C 
ATOM      7  O5  GAD d 809      -0.417  38.137  79.548  0.00  0.00    -0.311 OA
ATOM      8  C6  GAD d 809       1.465  36.441  79.738  0.00  0.00     0.233 C 
ATOM      9  O6B GAD d 809       0.552  35.809  80.336  0.00  0.00    -0.642 OA
ATOM     10  O2  GAD d 809      -0.810  41.039  77.475  0.00  0.00    -0.388 OA
ATOM     11  C5  GAD d 809       0.980  37.849  79.355  0.00  0.00     0.147 C 
ATOM     12  H   GAD d 809      -0.972  40.574  79.463  0.00  0.00     0.095 H 
ATOM     13  H   GAD d 809      -0.669  38.166  77.561  0.00  0.00     0.134 H 
ATOM     14  H   GAD d 809       1.455  40.632  77.784  0.00  0.00     0.093 H 
ATOM     15  H   GAD d 809       1.075  40.964  80.557  0.00  0.00     0.210 HD
ATOM     16  H   GAD d 809       2.623  38.678  78.427  0.00  0.00     0.085 H 
ATOM     17  H   GAD d 809      -0.364  40.703  76.682  0.00  0.00     0.210 HD
ATOM     18  O6  NAG d 810      -6.598  34.445  77.798  0.00  0.00    -0.398 OA
ATOM     19  O1  NAG d 810      -4.358  36.544  74.052  0.00  0.00    -0.369 OA
ATOM     20  C6  NAG d 810      -5.965  35.504  78.435  0.00  0.00     0.043 C 
ATOM     21  C2  NAG d 810      -3.390  37.724  75.974  0.00  0.00     0.087 C 
ATOM     22  C3  NAG d 810      -2.877  37.498  77.375  0.00  0.00     0.093 C 
ATOM     23  O4  NAG d 810      -3.706  36.887  79.574  0.00  0.00    -0.390 OA
ATOM     24  O5  NAG d 810      -5.082  36.013  76.234  0.00  0.00    -0.349 OA
ATOM     25  C4  NAG d 810      -4.076  37.058  78.207  0.00  0.00     0.089 C 
ATOM     26  O3  NAG d 810      -2.231  38.679  77.883  0.00  0.00    -0.348 OA
ATOM     27  C7  NAG d 810      -2.206  39.473  74.769  0.00  0.00     0.214 C 
ATOM     28  N2  NAG d 810      -2.301  38.215  75.178  0.00  0.00    -0.349 N 
ATOM     29  C5  NAG d 810      -4.717  35.791  77.597  0.00  0.00     0.089 C 
ATOM     30  C1  NAG d 810      -3.965  36.398  75.419  0.00  0.00     0.151 C 
ATOM     31  C8  NAG d 810      -0.852  39.886  74.215  0.00  0.00    -0.003 C 
ATOM     32  O7  NAG d 810      -3.163  40.228  74.826  0.00  0.00    -0.274 OA
ATOM     33  H   NAG d 810      -7.404  34.212  78.283  0.00  0.00     0.209 HD
ATOM     34  H   NAG d 810      -3.589  36.804  73.520  0.00  0.00     0.212 HD
ATOM     35  H   NAG d 810      -5.692  35.232  79.433  0.00  0.00     0.078 H 
ATOM     36  H   NAG d 810      -6.601  36.361  78.511  0.00  0.00     0.078 H 
ATOM     37  H   NAG d 810      -4.180  38.447  75.958  0.00  0.00     0.084 H 
ATOM     38  H   NAG d 810      -2.124  36.739  77.407  0.00  0.00     0.091 H 
ATOM     39  H   NAG d 810      -3.311  37.708  79.907  0.00  0.00     0.210 HD
ATOM     40  H   NAG d 810      -4.821  37.826  78.186  0.00  0.00     0.091 H 
ATOM     41  H   NAG d 810      -1.588  37.586  74.922  0.00  0.00     0.163 HD
ATOM     42  H   NAG d 810      -4.033  34.969  77.609  0.00  0.00     0.090 H 
ATOM     43  H   NAG d 810      -3.213  35.638  75.453  0.00  0.00     0.132 H 
ATOM     44  H   NAG d 810      -0.177  39.057  74.270  0.00  0.00     0.040 H 
ATOM     45  H   NAG d 810      -0.464  40.699  74.792  0.00  0.00     0.040 H 
ATOM     46  H   NAG d 810      -0.961  40.191  73.195  0.00  0.00     0.040 H 
ENDROOT
TORSDOF 11
ENDMDL
MODEL 30
REMARK VINA RESULT:      -7.1      3.026      5.845
REMARK  0 active torsions:
REMARK  status: ('A' for Active; 'I' for Inactive)
REMARK       I    between atoms: C2_1  and  O2_21 
REMARK       I    between atoms: O6_3  and  C6_7 
REMARK       I    between atoms: C1_4  and  O3_17 
REMARK       I    between atoms: O1_5  and  C1_23 
REMARK       I    between atoms: C3_6  and  O3_9 
REMARK       I    between atoms: C6_7  and  C5_22 
REMARK       I    between atoms: C2_8  and  N2_19 
REMARK       I    between atoms: C3_10  and  O3_17 
REMARK       I    between atoms: O4_11  and  C4_15 
REMARK       I    between atoms: C6_16  and  C5_26 
REMARK       I    between atoms: C7_18  and  C8_24 
REMARK       I    between atoms: C7_18  and  N2_19 
ROOT
ATOM      1  C2  GAD d 809      -0.607  38.508  76.533  0.00  0.00     0.111 C 
ATOM      2  O6A GAD d 809      -4.484  41.993  77.684  0.00  0.00    -0.642 OA
ATOM      3  C1  GAD d 809      -1.703  38.202  77.566  0.00  0.00     0.165 C 
ATOM      4  C3  GAD d 809      -0.580  39.998  76.193  0.00  0.00     0.084 C 
ATOM      5  O3  GAD d 809      -0.337  40.185  74.785  0.00  0.00    -0.389 OA
ATOM      6  C4  GAD d 809      -1.778  40.782  76.814  0.00  0.00    -0.034 C 
ATOM      7  O5  GAD d 809      -2.872  38.722  76.888  0.00  0.00    -0.311 OA
ATOM      8  C6  GAD d 809      -4.302  40.756  77.412  0.00  0.00     0.233 C 
ATOM      9  O6B GAD d 809      -5.196  39.867  77.404  0.00  0.00    -0.642 OA
ATOM     10  O2  GAD d 809       0.677  38.205  77.022  0.00  0.00    -0.388 OA
ATOM     11  C5  GAD d 809      -2.944  40.155  77.009  0.00  0.00     0.147 C 
ATOM     12  H   GAD d 809      -0.840  37.908  75.678  0.00  0.00     0.095 H 
ATOM     13  H   GAD d 809      -1.730  38.658  78.533  0.00  0.00     0.134 H 
ATOM     14  H   GAD d 809       0.255  40.462  76.675  0.00  0.00     0.093 H 
ATOM     15  H   GAD d 809      -1.061  39.786  74.276  0.00  0.00     0.210 HD
ATOM     16  H   GAD d 809      -1.673  41.775  77.073  0.00  0.00     0.085 H 
ATOM     17  H   GAD d 809       0.867  38.760  77.795  0.00  0.00     0.210 HD
ATOM     18  O6  NAG d 810      -5.154  33.188  81.253  0.00  0.00    -0.398 OA
ATOM     19  O1  NAG d 810      -1.216  35.523  82.830  0.00  0.00    -0.369 OA
ATOM     20  C6  NAG d 810      -4.621  33.635  80.052  0.00  0.00     0.043 C 
ATOM     21  C2  NAG d 810      -1.299  36.166  80.462  0.00  0.00     0.087 C 
ATOM     22  C3  NAG d 810      -2.260  36.566  79.371  0.00  0.00     0.093 C 
ATOM     23  O4  NAG d 810      -4.041  35.606  78.029  0.00  0.00    -0.390 OA
ATOM     24  O5  NAG d 810      -2.919  34.660  81.444  0.00  0.00    -0.349 OA
ATOM     25  C4  NAG d 810      -3.140  35.351  79.105  0.00  0.00     0.089 C 
ATOM     26  O3  NAG d 810      -1.551  37.025  78.205  0.00  0.00    -0.348 OA
ATOM     27  C7  NAG d 810       0.869  37.256  80.306  0.00  0.00     0.214 C 
ATOM     28  N2  NAG d 810      -0.400  37.265  80.686  0.00  0.00    -0.349 N 
ATOM     29  C5  NAG d 810      -3.861  34.916  80.401  0.00  0.00     0.089 C 
ATOM     30  C1  NAG d 810      -2.097  35.799  81.737  0.00  0.00     0.151 C 
ATOM     31  C8  NAG d 810       1.576  38.602  80.337  0.00  0.00    -0.003 C 
ATOM     32  O7  NAG d 810       1.422  36.220  79.974  0.00  0.00    -0.274 OA
ATOM     33  H   NAG d 810      -5.653  32.370  81.100  0.00  0.00     0.209 HD
ATOM     34  H   NAG d 810      -0.671  36.305  83.011  0.00  0.00     0.212 HD
ATOM     35  H   NAG d 810      -5.400  33.840  79.348  0.00  0.00     0.078 H 
ATOM     36  H   NAG d 810      -3.983  32.902  79.602  0.00  0.00     0.078 H 
ATOM     37  H   NAG d 810      -0.726  35.306  80.185  0.00  0.00     0.084 H 
ATOM     38  H   NAG d 810      -2.873  37.394  79.661  0.00  0.00     0.091 H 
ATOM     39  H   NAG d 810      -3.540  35.874  77.244  0.00  0.00     0.210 HD
ATOM     40  H   NAG d 810      -2.525  34.530  78.799  0.00  0.00     0.091 H 
ATOM     41  H   NAG d 810      -0.745  38.064  81.145  0.00  0.00     0.163 HD
ATOM     42  H   NAG d 810      -4.517  35.684  80.752  0.00  0.00     0.090 H 
ATOM     43  H   NAG d 810      -2.712  36.625  82.027  0.00  0.00     0.132 H 
ATOM     44  H   NAG d 810       0.889  39.357  80.659  0.00  0.00     0.040 H 
ATOM     45  H   NAG d 810       1.933  38.840  79.357  0.00  0.00     0.040 H 
ATOM     46  H   NAG d 810       2.401  38.556  81.017  0.00  0.00     0.040 H 
ENDROOT
TORSDOF 11
ENDMDL
MODEL 31
REMARK VINA RESULT:      -7.0      2.857      6.246
REMARK  0 active torsions:
REMARK  status: ('A' for Active; 'I' for Inactive)
REMARK       I    between atoms: C2_1  and  O2_21 
REMARK       I    between atoms: O6_3  and  C6_7 
REMARK       I    between atoms: C1_4  and  O3_17 
REMARK       I    between atoms: O1_5  and  C1_23 
REMARK       I    between atoms: C3_6  and  O3_9 
REMARK       I    between atoms: C6_7  and  C5_22 
REMARK       I    between atoms: C2_8  and  N2_19 
REMARK       I    between atoms: C3_10  and  O3_17 
REMARK       I    between atoms: O4_11  and  C4_15 
REMARK       I    between atoms: C6_16  and  C5_26 
REMARK       I    between atoms: C7_18  and  C8_24 
REMARK       I    between atoms: C7_18  and  N2_19 
ROOT
ATOM      1  C2  GAD d 809      -3.542  38.149  74.252  0.00  0.00     0.111 C 
ATOM      2  O6A GAD d 809      -1.679  41.965  77.487  0.00  0.00    -0.642 OA
ATOM      3  C1  GAD d 809      -4.008  38.285  75.710  0.00  0.00     0.165 C 
ATOM      4  C3  GAD d 809      -2.278  38.973  74.004  0.00  0.00     0.084 C 
ATOM      5  O3  GAD d 809      -2.337  39.599  72.708  0.00  0.00    -0.389 OA
ATOM      6  C4  GAD d 809      -1.904  39.885  75.215  0.00  0.00    -0.034 C 
ATOM      7  O5  GAD d 809      -4.152  39.721  75.819  0.00  0.00    -0.311 OA
ATOM      8  C6  GAD d 809      -2.774  41.415  77.119  0.00  0.00     0.233 C 
ATOM      9  O6B GAD d 809      -3.918  41.674  77.583  0.00  0.00    -0.642 OA
ATOM     10  O2  GAD d 809      -3.201  36.822  73.930  0.00  0.00    -0.388 OA
ATOM     11  C5  GAD d 809      -2.874  40.357  76.007  0.00  0.00     0.147 C 
ATOM     12  H   GAD d 809      -4.362  38.487  73.654  0.00  0.00     0.095 H 
ATOM     13  H   GAD d 809      -3.391  38.015  76.542  0.00  0.00     0.134 H 
ATOM     14  H   GAD d 809      -1.430  38.323  73.953  0.00  0.00     0.093 H 
ATOM     15  H   GAD d 809      -3.090  40.210  72.678  0.00  0.00     0.210 HD
ATOM     16  H   GAD d 809      -0.918  40.121  75.403  0.00  0.00     0.085 H 
ATOM     17  H   GAD d 809      -2.457  36.537  74.482  0.00  0.00     0.210 HD
ATOM     18  O6  NAG d 810      -8.991  36.672  80.528  0.00  0.00    -0.398 OA
ATOM     19  O1  NAG d 810      -5.014  34.031  79.712  0.00  0.00    -0.369 OA
ATOM     20  C6  NAG d 810      -8.657  37.096  79.250  0.00  0.00     0.043 C 
ATOM     21  C2  NAG d 810      -5.010  35.592  77.818  0.00  0.00     0.087 C 
ATOM     22  C3  NAG d 810      -5.275  37.034  77.463  0.00  0.00     0.093 C 
ATOM     23  O4  NAG d 810      -7.130  38.593  77.315  0.00  0.00    -0.390 OA
ATOM     24  O5  NAG d 810      -6.763  35.599  79.486  0.00  0.00    -0.349 OA
ATOM     25  C4  NAG d 810      -6.763  37.268  77.694  0.00  0.00     0.089 C 
ATOM     26  O3  NAG d 810      -4.854  37.318  76.116  0.00  0.00    -0.348 OA
ATOM     27  C7  NAG d 810      -3.228  34.574  76.513  0.00  0.00     0.214 C 
ATOM     28  N2  NAG d 810      -3.629  35.313  77.538  0.00  0.00    -0.349 N 
ATOM     29  C5  NAG d 810      -7.137  36.938  79.157  0.00  0.00     0.089 C 
ATOM     30  C1  NAG d 810      -5.359  35.359  79.308  0.00  0.00     0.151 C 
ATOM     31  C8  NAG d 810      -1.745  34.646  76.188  0.00  0.00    -0.003 C 
ATOM     32  O7  NAG d 810      -4.014  33.874  75.895  0.00  0.00    -0.274 OA
ATOM     33  H   NAG d 810      -9.950  36.748  80.653  0.00  0.00     0.209 HD
ATOM     34  H   NAG d 810      -4.063  33.891  79.584  0.00  0.00     0.212 HD
ATOM     35  H   NAG d 810      -8.936  38.120  79.109  0.00  0.00     0.078 H 
ATOM     36  H   NAG d 810      -9.164  36.531  78.496  0.00  0.00     0.078 H 
ATOM     37  H   NAG d 810      -5.618  34.928  77.239  0.00  0.00     0.084 H 
ATOM     38  H   NAG d 810      -4.709  37.707  78.073  0.00  0.00     0.091 H 
ATOM     39  H   NAG d 810      -6.874  38.748  76.393  0.00  0.00     0.210 HD
ATOM     40  H   NAG d 810      -7.326  36.605  77.070  0.00  0.00     0.091 H 
ATOM     41  H   NAG d 810      -2.946  35.691  78.137  0.00  0.00     0.163 HD
ATOM     42  H   NAG d 810      -6.628  37.584  79.840  0.00  0.00     0.090 H 
ATOM     43  H   NAG d 810      -4.796  36.032  79.919  0.00  0.00     0.132 H 
ATOM     44  H   NAG d 810      -1.265  35.323  76.864  0.00  0.00     0.040 H 
ATOM     45  H   NAG d 810      -1.616  34.993  75.185  0.00  0.00     0.040 H 
ATOM     46  H   NAG d 810      -1.310  33.673  76.289  0.00  0.00     0.040 H 
ENDROOT
TORSDOF 11
ENDMDL
MODEL 32
REMARK VINA RESULT:      -7.0      2.588      6.341
REMARK  0 active torsions:
REMARK  status: ('A' for Active; 'I' for Inactive)
REMARK       I    between atoms: C2_1  and  O2_21 
REMARK       I    between atoms: O6_3  and  C6_7 
REMARK       I    between atoms: C1_4  and  O3_17 
REMARK       I    between atoms: O1_5  and  C1_23 
REMARK       I    between atoms: C3_6  and  O3_9 
REMARK       I    between atoms: C6_7  and  C5_22 
REMARK       I    between atoms: C2_8  and  N2_19 
REMARK       I    between atoms: C3_10  and  O3_17 
REMARK       I    between atoms: O4_11  and  C4_15 
REMARK       I    between atoms: C6_16  and  C5_26 
REMARK       I    between atoms: C7_18  and  C8_24 
REMARK       I    between atoms: C7_18  and  N2_19 
ROOT
ATOM      1  C2  GAD d 809      -1.592  38.435  76.006  0.00  0.00     0.111 C 
ATOM      2  O6A GAD d 809      -3.460  43.217  77.470  0.00  0.00    -0.642 OA
ATOM      3  C1  GAD d 809      -2.849  38.591  76.875  0.00  0.00     0.165 C 
ATOM      4  C3  GAD d 809      -0.802  39.743  75.950  0.00  0.00     0.084 C 
ATOM      5  O3  GAD d 809      -0.279  39.953  74.624  0.00  0.00    -0.389 OA
ATOM      6  C4  GAD d 809      -1.562  40.936  76.608  0.00  0.00    -0.034 C 
ATOM      7  O5  GAD d 809      -3.503  39.702  76.215  0.00  0.00    -0.311 OA
ATOM      8  C6  GAD d 809      -3.850  42.096  76.990  0.00  0.00     0.233 C 
ATOM      9  O6B GAD d 809      -5.046  41.778  76.748  0.00  0.00    -0.642 OA
ATOM     10  O2  GAD d 809      -0.705  37.477  76.531  0.00  0.00    -0.388 OA
ATOM     11  C5  GAD d 809      -2.900  40.954  76.592  0.00  0.00     0.147 C 
ATOM     12  H   GAD d 809      -1.943  38.139  75.040  0.00  0.00     0.095 H 
ATOM     13  H   GAD d 809      -2.809  38.879  77.905  0.00  0.00     0.134 H 
ATOM     14  H   GAD d 809       0.064  39.667  76.574  0.00  0.00     0.093 H 
ATOM     15  H   GAD d 809      -1.013  40.033  73.995  0.00  0.00     0.210 HD
ATOM     16  H   GAD d 809      -1.038  41.706  77.054  0.00  0.00     0.085 H 
ATOM     17  H   GAD d 809      -0.399  37.764  77.405  0.00  0.00     0.210 HD
ATOM     18  O6  NAG d 810      -8.814  35.553  79.291  0.00  0.00    -0.398 OA
ATOM     19  O1  NAG d 810      -4.548  35.408  81.578  0.00  0.00    -0.369 OA
ATOM     20  C6  NAG d 810      -7.948  35.817  78.239  0.00  0.00     0.043 C 
ATOM     21  C2  NAG d 810      -3.934  36.289  79.370  0.00  0.00     0.087 C 
ATOM     22  C3  NAG d 810      -4.399  37.244  78.298  0.00  0.00     0.093 C 
ATOM     23  O4  NAG d 810      -6.183  37.468  76.667  0.00  0.00    -0.390 OA
ATOM     24  O5  NAG d 810      -6.210  35.682  79.926  0.00  0.00    -0.349 OA
ATOM     25  C4  NAG d 810      -5.698  36.669  77.744  0.00  0.00     0.089 C 
ATOM     26  O3  NAG d 810      -3.382  37.427  77.296  0.00  0.00    -0.348 OA
ATOM     27  C7  NAG d 810      -1.516  36.166  79.589  0.00  0.00     0.214 C 
ATOM     28  N2  NAG d 810      -2.669  36.759  79.863  0.00  0.00    -0.349 N 
ATOM     29  C5  NAG d 810      -6.735  36.498  78.877  0.00  0.00     0.089 C 
ATOM     30  C1  NAG d 810      -5.002  36.216  80.488  0.00  0.00     0.151 C 
ATOM     31  C8  NAG d 810      -0.267  36.968  79.923  0.00  0.00    -0.003 C 
ATOM     32  O7  NAG d 810      -1.481  35.042  79.116  0.00  0.00    -0.274 OA
ATOM     33  H   NAG d 810      -9.611  35.117  78.951  0.00  0.00     0.209 HD
ATOM     34  H   NAG d 810      -3.732  35.787  81.942  0.00  0.00     0.212 HD
ATOM     35  H   NAG d 810      -8.411  36.467  77.526  0.00  0.00     0.078 H 
ATOM     36  H   NAG d 810      -7.676  34.926  77.713  0.00  0.00     0.078 H 
ATOM     37  H   NAG d 810      -3.806  35.299  78.985  0.00  0.00     0.084 H 
ATOM     38  H   NAG d 810      -4.580  38.224  78.686  0.00  0.00     0.091 H 
ATOM     39  H   NAG d 810      -5.497  37.544  75.986  0.00  0.00     0.210 HD
ATOM     40  H   NAG d 810      -5.510  35.696  77.342  0.00  0.00     0.091 H 
ATOM     41  H   NAG d 810      -2.659  37.561  80.432  0.00  0.00     0.163 HD
ATOM     42  H   NAG d 810      -6.991  37.441  79.311  0.00  0.00     0.090 H 
ATOM     43  H   NAG d 810      -5.185  37.196  80.876  0.00  0.00     0.132 H 
ATOM     44  H   NAG d 810      -0.551  37.918  80.324  0.00  0.00     0.040 H 
ATOM     45  H   NAG d 810       0.311  37.113  79.035  0.00  0.00     0.040 H 
ATOM     46  H   NAG d 810       0.315  36.435  80.646  0.00  0.00     0.040 H 
ENDROOT
TORSDOF 11
ENDMDL
MODEL 33
REMARK VINA RESULT:      -7.0      2.479      6.498
REMARK  0 active torsions:
REMARK  status: ('A' for Active; 'I' for Inactive)
REMARK       I    between atoms: C2_1  and  O2_21 
REMARK       I    between atoms: O6_3  and  C6_7 
REMARK       I    between atoms: C1_4  and  O3_17 
REMARK       I    between atoms: O1_5  and  C1_23 
REMARK       I    between atoms: C3_6  and  O3_9 
REMARK       I    between atoms: C6_7  and  C5_22 
REMARK       I    between atoms: C2_8  and  N2_19 
REMARK       I    between atoms: C3_10  and  O3_17 
REMARK       I    between atoms: O4_11  and  C4_15 
REMARK       I    between atoms: C6_16  and  C5_26 
REMARK       I    between atoms: C7_18  and  C8_24 
REMARK       I    between atoms: C7_18  and  N2_19 
ROOT
ATOM      1  C2  GAD d 809      -0.951  37.506  78.496  0.00  0.00     0.111 C 
ATOM      2  O6A GAD d 809       1.575  33.267  76.459  0.00  0.00    -0.642 OA
ATOM      3  C1  GAD d 809      -1.605  36.588  77.451  0.00  0.00     0.165 C 
ATOM      4  C3  GAD d 809       0.556  37.259  78.573  0.00  0.00     0.084 C 
ATOM      5  O3  GAD d 809       1.003  37.319  79.941  0.00  0.00    -0.389 OA
ATOM      6  C4  GAD d 809       1.009  36.024  77.733  0.00  0.00    -0.034 C 
ATOM      7  O5  GAD d 809      -1.196  35.286  77.935  0.00  0.00    -0.311 OA
ATOM      8  C6  GAD d 809       0.448  33.614  76.956  0.00  0.00     0.233 C 
ATOM      9  O6B GAD d 809      -0.571  32.877  77.049  0.00  0.00    -0.642 OA
ATOM     10  O2  GAD d 809      -1.099  38.866  78.168  0.00  0.00    -0.388 OA
ATOM     11  C5  GAD d 809       0.165  35.000  77.561  0.00  0.00     0.147 C 
ATOM     12  H   GAD d 809      -1.439  37.283  79.422  0.00  0.00     0.095 H 
ATOM     13  H   GAD d 809      -1.319  36.591  76.419  0.00  0.00     0.134 H 
ATOM     14  H   GAD d 809       1.075  38.055  78.082  0.00  0.00     0.093 H 
ATOM     15  H   GAD d 809       0.570  36.619  80.454  0.00  0.00     0.210 HD
ATOM     16  H   GAD d 809       1.952  35.996  77.314  0.00  0.00     0.085 H 
ATOM     17  H   GAD d 809      -0.649  39.046  77.328  0.00  0.00     0.210 HD
ATOM     18  O6  NAG d 810      -7.665  34.388  74.438  0.00  0.00    -0.398 OA
ATOM     19  O1  NAG d 810      -4.958  38.048  72.787  0.00  0.00    -0.369 OA
ATOM     20  C6  NAG d 810      -6.947  34.714  75.580  0.00  0.00     0.043 C 
ATOM     21  C2  NAG d 810      -3.972  37.615  74.993  0.00  0.00     0.087 C 
ATOM     22  C3  NAG d 810      -3.577  36.493  75.921  0.00  0.00     0.093 C 
ATOM     23  O4  NAG d 810      -4.609  34.755  77.267  0.00  0.00    -0.390 OA
ATOM     24  O5  NAG d 810      -5.875  36.368  74.167  0.00  0.00    -0.349 OA
ATOM     25  C4  NAG d 810      -4.870  35.794  76.326  0.00  0.00     0.089 C 
ATOM     26  O3  NAG d 810      -2.823  36.992  77.041  0.00  0.00    -0.348 OA
ATOM     27  C7  NAG d 810      -2.509  39.553  75.124  0.00  0.00     0.214 C 
ATOM     28  N2  NAG d 810      -2.783  38.345  74.652  0.00  0.00    -0.349 N 
ATOM     29  C5  NAG d 810      -5.624  35.293  75.073  0.00  0.00     0.089 C 
ATOM     30  C1  NAG d 810      -4.670  37.025  73.744  0.00  0.00     0.151 C 
ATOM     31  C8  NAG d 810      -1.082  40.035  74.914  0.00  0.00    -0.003 C 
ATOM     32  O7  NAG d 810      -3.367  40.225  75.674  0.00  0.00    -0.274 OA
ATOM     33  H   NAG d 810      -8.522  34.013  74.692  0.00  0.00     0.209 HD
ATOM     34  H   NAG d 810      -4.132  38.478  72.516  0.00  0.00     0.212 HD
ATOM     35  H   NAG d 810      -6.772  33.842  76.175  0.00  0.00     0.078 H 
ATOM     36  H   NAG d 810      -7.476  35.409  76.200  0.00  0.00     0.078 H 
ATOM     37  H   NAG d 810      -4.663  38.285  75.460  0.00  0.00     0.084 H 
ATOM     38  H   NAG d 810      -2.927  35.789  75.445  0.00  0.00     0.091 H 
ATOM     39  H   NAG d 810      -4.137  35.122  78.031  0.00  0.00     0.210 HD
ATOM     40  H   NAG d 810      -5.512  36.496  76.817  0.00  0.00     0.091 H 
ATOM     41  H   NAG d 810      -2.139  37.928  74.035  0.00  0.00     0.163 HD
ATOM     42  H   NAG d 810      -5.048  34.563  74.544  0.00  0.00     0.090 H 
ATOM     43  H   NAG d 810      -4.021  36.320  73.268  0.00  0.00     0.132 H 
ATOM     44  H   NAG d 810      -0.520  39.275  74.413  0.00  0.00     0.040 H 
ATOM     45  H   NAG d 810      -0.634  40.244  75.862  0.00  0.00     0.040 H 
ATOM     46  H   NAG d 810      -1.090  40.924  74.318  0.00  0.00     0.040 H 
ENDROOT
TORSDOF 11
ENDMDL
MODEL 34
REMARK VINA RESULT:      -7.0      2.624      6.257
REMARK  0 active torsions:
REMARK  status: ('A' for Active; 'I' for Inactive)
REMARK       I    between atoms: C2_1  and  O2_21 
REMARK       I    between atoms: O6_3  and  C6_7 
REMARK       I    between atoms: C1_4  and  O3_17 
REMARK       I    between atoms: O1_5  and  C1_23 
REMARK       I    between atoms: C3_6  and  O3_9 
REMARK       I    between atoms: C6_7  and  C5_22 
REMARK       I    between atoms: C2_8  and  N2_19 
REMARK       I    between atoms: C3_10  and  O3_17 
REMARK       I    between atoms: O4_11  and  C4_15 
REMARK       I    between atoms: C6_16  and  C5_26 
REMARK       I    between atoms: C7_18  and  C8_24 
REMARK       I    between atoms: C7_18  and  N2_19 
ROOT
ATOM      1  C2  GAD d 809       0.061  36.331  77.373  0.00  0.00     0.111 C 
ATOM      2  O6A GAD d 809       1.853  38.848  81.727  0.00  0.00    -0.642 OA
ATOM      3  C1  GAD d 809      -0.644  37.568  77.952  0.00  0.00     0.165 C 
ATOM      4  C3  GAD d 809       1.055  35.750  78.379  0.00  0.00     0.084 C 
ATOM      5  O3  GAD d 809       2.248  35.309  77.703  0.00  0.00    -0.389 OA
ATOM      6  C4  GAD d 809       1.246  36.658  79.633  0.00  0.00    -0.034 C 
ATOM      7  O5  GAD d 809       0.492  38.403  78.279  0.00  0.00    -0.311 OA
ATOM      8  C6  GAD d 809       1.432  39.081  80.541  0.00  0.00     0.233 C 
ATOM      9  O6B GAD d 809       1.256  40.223  80.036  0.00  0.00    -0.642 OA
ATOM     10  O2  GAD d 809      -0.846  35.294  77.090  0.00  0.00    -0.388 OA
ATOM     11  C5  GAD d 809       1.103  37.984  79.514  0.00  0.00     0.147 C 
ATOM     12  H   GAD d 809       0.546  36.666  76.480  0.00  0.00     0.095 H 
ATOM     13  H   GAD d 809      -1.221  37.537  78.852  0.00  0.00     0.134 H 
ATOM     14  H   GAD d 809       0.647  34.862  78.815  0.00  0.00     0.093 H 
ATOM     15  H   GAD d 809       2.679  36.068  77.278  0.00  0.00     0.210 HD
ATOM     16  H   GAD d 809       1.481  36.241  80.547  0.00  0.00     0.085 H 
ATOM     17  H   GAD d 809      -1.274  35.005  77.911  0.00  0.00     0.210 HD
ATOM     18  O6  NAG d 810      -5.176  42.923  76.757  0.00  0.00    -0.398 OA
ATOM     19  O1  NAG d 810      -6.447  38.609  78.554  0.00  0.00    -0.369 OA
ATOM     20  C6  NAG d 810      -4.110  42.143  76.334  0.00  0.00     0.043 C 
ATOM     21  C2  NAG d 810      -4.146  38.210  77.799  0.00  0.00     0.087 C 
ATOM     22  C3  NAG d 810      -2.780  38.849  77.755  0.00  0.00     0.093 C 
ATOM     23  O4  NAG d 810      -1.637  40.700  76.677  0.00  0.00    -0.390 OA
ATOM     24  O5  NAG d 810      -5.242  40.348  77.510  0.00  0.00    -0.349 OA
ATOM     25  C4  NAG d 810      -2.903  40.064  76.843  0.00  0.00     0.089 C 
ATOM     26  O3  NAG d 810      -1.785  37.905  77.318  0.00  0.00    -0.348 OA
ATOM     27  C7  NAG d 810      -4.088  35.795  78.072  0.00  0.00     0.214 C 
ATOM     28  N2  NAG d 810      -4.050  37.014  78.589  0.00  0.00    -0.349 N 
ATOM     29  C5  NAG d 810      -3.991  41.025  77.373  0.00  0.00     0.089 C 
ATOM     30  C1  NAG d 810      -5.163  39.217  78.389  0.00  0.00     0.151 C 
ATOM     31  C8  NAG d 810      -3.659  34.671  79.002  0.00  0.00    -0.003 C 
ATOM     32  O7  NAG d 810      -4.464  35.606  76.926  0.00  0.00    -0.274 OA
ATOM     33  H   NAG d 810      -5.307  43.656  76.136  0.00  0.00     0.209 HD
ATOM     34  H   NAG d 810      -6.371  37.848  79.150  0.00  0.00     0.212 HD
ATOM     35  H   NAG d 810      -3.211  42.722  76.302  0.00  0.00     0.078 H 
ATOM     36  H   NAG d 810      -4.264  41.757  75.348  0.00  0.00     0.078 H 
ATOM     37  H   NAG d 810      -4.488  37.947  76.820  0.00  0.00     0.084 H 
ATOM     38  H   NAG d 810      -2.453  39.162  78.724  0.00  0.00     0.091 H 
ATOM     39  H   NAG d 810      -0.993  40.056  76.344  0.00  0.00     0.210 HD
ATOM     40  H   NAG d 810      -3.214  39.746  75.870  0.00  0.00     0.091 H 
ATOM     41  H   NAG d 810      -3.951  37.106  79.564  0.00  0.00     0.163 HD
ATOM     42  H   NAG d 810      -3.732  41.406  78.338  0.00  0.00     0.090 H 
ATOM     43  H   NAG d 810      -4.836  39.532  79.358  0.00  0.00     0.132 H 
ATOM     44  H   NAG d 810      -3.374  35.081  79.948  0.00  0.00     0.040 H 
ATOM     45  H   NAG d 810      -2.828  34.151  78.573  0.00  0.00     0.040 H 
ATOM     46  H   NAG d 810      -4.474  33.990  79.139  0.00  0.00     0.040 H 
ENDROOT
TORSDOF 11
ENDMDL
MODEL 35
REMARK VINA RESULT:      -7.0      2.907      5.655
REMARK  0 active torsions:
REMARK  status: ('A' for Active; 'I' for Inactive)
REMARK       I    between atoms: C2_1  and  O2_21 
REMARK       I    between atoms: O6_3  and  C6_7 
REMARK       I    between atoms: C1_4  and  O3_17 
REMARK       I    between atoms: O1_5  and  C1_23 
REMARK       I    between atoms: C3_6  and  O3_9 
REMARK       I    between atoms: C6_7  and  C5_22 
REMARK       I    between atoms: C2_8  and  N2_19 
REMARK       I    between atoms: C3_10  and  O3_17 
REMARK       I    between atoms: O4_11  and  C4_15 
REMARK       I    between atoms: C6_16  and  C5_26 
REMARK       I    between atoms: C7_18  and  C8_24 
REMARK       I    between atoms: C7_18  and  N2_19 
ROOT
ATOM      1  C2  GAD d 809      -0.560  35.803  80.482  0.00  0.00     0.111 C 
ATOM      2  O6A GAD d 809      -0.755  33.075  75.896  0.00  0.00    -0.642 OA
ATOM      3  C1  GAD d 809      -0.982  36.458  79.157  0.00  0.00     0.165 C 
ATOM      4  C3  GAD d 809       0.112  34.452  80.232  0.00  0.00     0.084 C 
ATOM      5  O3  GAD d 809      -0.296  33.499  81.233  0.00  0.00    -0.389 OA
ATOM      6  C4  GAD d 809       0.018  33.997  78.742  0.00  0.00    -0.034 C 
ATOM      7  O5  GAD d 809      -1.824  35.422  78.595  0.00  0.00    -0.311 OA
ATOM      8  C6  GAD d 809      -1.438  33.899  76.599  0.00  0.00     0.233 C 
ATOM      9  O6B GAD d 809      -2.542  34.409  76.263  0.00  0.00    -0.642 OA
ATOM     10  O2  GAD d 809       0.389  36.578  81.173  0.00  0.00    -0.388 OA
ATOM     11  C5  GAD d 809      -1.031  34.376  78.003  0.00  0.00     0.147 C 
ATOM     12  H   GAD d 809      -1.458  35.702  81.054  0.00  0.00     0.095 H 
ATOM     13  H   GAD d 809      -0.286  36.688  78.378  0.00  0.00     0.134 H 
ATOM     14  H   GAD d 809       1.169  34.547  80.363  0.00  0.00     0.093 H 
ATOM     15  H   GAD d 809      -1.254  33.360  81.176  0.00  0.00     0.210 HD
ATOM     16  H   GAD d 809       0.759  33.408  78.330  0.00  0.00     0.085 H 
ATOM     17  H   GAD d 809       1.194  36.656  80.638  0.00  0.00     0.210 HD
ATOM     18  O6  NAG d 810      -4.323  41.905  76.026  0.00  0.00    -0.398 OA
ATOM     19  O1  NAG d 810       0.412  41.813  77.038  0.00  0.00    -0.369 OA
ATOM     20  C6  NAG d 810      -4.289  40.933  77.016  0.00  0.00     0.043 C 
ATOM     21  C2  NAG d 810      -0.429  39.864  78.270  0.00  0.00     0.087 C 
ATOM     22  C3  NAG d 810      -1.393  38.709  78.155  0.00  0.00     0.093 C 
ATOM     23  O4  NAG d 810      -3.783  38.295  78.063  0.00  0.00    -0.390 OA
ATOM     24  O5  NAG d 810      -1.893  41.313  76.999  0.00  0.00    -0.349 OA
ATOM     25  C4  NAG d 810      -2.789  39.317  78.099  0.00  0.00     0.089 C 
ATOM     26  O3  NAG d 810      -1.216  37.782  79.242  0.00  0.00    -0.348 OA
ATOM     27  C7  NAG d 810       1.578  39.342  79.538  0.00  0.00     0.214 C 
ATOM     28  N2  NAG d 810       0.895  39.324  78.402  0.00  0.00    -0.349 N 
ATOM     29  C5  NAG d 810      -2.899  40.302  76.913  0.00  0.00     0.089 C 
ATOM     30  C1  NAG d 810      -0.565  40.769  77.021  0.00  0.00     0.151 C 
ATOM     31  C8  NAG d 810       2.814  38.457  79.578  0.00  0.00    -0.003 C 
ATOM     32  O7  NAG d 810       1.230  40.044  80.473  0.00  0.00    -0.274 OA
ATOM     33  H   NAG d 810      -5.186  42.348  76.038  0.00  0.00     0.209 HD
ATOM     34  H   NAG d 810       1.301  41.425  77.053  0.00  0.00     0.212 HD
ATOM     35  H   NAG d 810      -5.048  40.199  76.847  0.00  0.00     0.078 H 
ATOM     36  H   NAG d 810      -4.470  41.346  77.987  0.00  0.00     0.078 H 
ATOM     37  H   NAG d 810      -0.641  40.468  79.127  0.00  0.00     0.084 H 
ATOM     38  H   NAG d 810      -1.221  38.130  77.272  0.00  0.00     0.091 H 
ATOM     39  H   NAG d 810      -3.671  37.707  78.826  0.00  0.00     0.210 HD
ATOM     40  H   NAG d 810      -2.964  39.881  78.992  0.00  0.00     0.091 H 
ATOM     41  H   NAG d 810       1.317  38.920  77.610  0.00  0.00     0.163 HD
ATOM     42  H   NAG d 810      -2.760  39.798  75.980  0.00  0.00     0.090 H 
ATOM     43  H   NAG d 810      -0.395  40.191  76.137  0.00  0.00     0.132 H 
ATOM     44  H   NAG d 810       2.912  37.940  78.647  0.00  0.00     0.040 H 
ATOM     45  H   NAG d 810       2.718  37.747  80.372  0.00  0.00     0.040 H 
ATOM     46  H   NAG d 810       3.681  39.063  79.743  0.00  0.00     0.040 H 
ENDROOT
TORSDOF 11
ENDMDL
MODEL 36
REMARK VINA RESULT:      -7.0      2.406      3.367
REMARK  0 active torsions:
REMARK  status: ('A' for Active; 'I' for Inactive)
REMARK       I    between atoms: C2_1  and  O2_21 
REMARK       I    between atoms: O6_3  and  C6_7 
REMARK       I    between atoms: C1_4  and  O3_17 
REMARK       I    between atoms: O1_5  and  C1_23 
REMARK       I    between atoms: C3_6  and  O3_9 
REMARK       I    between atoms: C6_7  and  C5_22 
REMARK       I    between atoms: C2_8  and  N2_19 
REMARK       I    between atoms: C3_10  and  O3_17 
REMARK       I    between atoms: O4_11  and  C4_15 
REMARK       I    between atoms: C6_16  and  C5_26 
REMARK       I    between atoms: C7_18  and  C8_24 
REMARK       I    between atoms: C7_18  and  N2_19 
ROOT
ATOM      1  C2  GAD d 809      -3.305  36.267  77.738  0.00  0.00     0.111 C 
ATOM      2  O6A GAD d 809      -5.377  36.545  82.650  0.00  0.00    -0.642 OA
ATOM      3  C1  GAD d 809      -2.442  36.565  78.975  0.00  0.00     0.165 C 
ATOM      4  C3  GAD d 809      -4.791  36.430  78.058  0.00  0.00     0.084 C 
ATOM      5  O3  GAD d 809      -5.558  35.401  77.404  0.00  0.00    -0.389 OA
ATOM      6  C4  GAD d 809      -5.061  36.654  79.579  0.00  0.00    -0.034 C 
ATOM      7  O5  GAD d 809      -2.995  35.626  79.927  0.00  0.00    -0.311 OA
ATOM      8  C6  GAD d 809      -4.397  36.032  82.007  0.00  0.00     0.233 C 
ATOM      9  O6B GAD d 809      -3.454  35.367  82.516  0.00  0.00    -0.642 OA
ATOM     10  O2  GAD d 809      -3.041  37.162  76.685  0.00  0.00    -0.388 OA
ATOM     11  C5  GAD d 809      -4.230  36.117  80.481  0.00  0.00     0.147 C 
ATOM     12  H   GAD d 809      -3.065  35.264  77.454  0.00  0.00     0.095 H 
ATOM     13  H   GAD d 809      -2.465  37.506  79.484  0.00  0.00     0.134 H 
ATOM     14  H   GAD d 809      -5.151  37.346  77.638  0.00  0.00     0.093 H 
ATOM     15  H   GAD d 809      -5.285  34.532  77.737  0.00  0.00     0.210 HD
ATOM     16  H   GAD d 809      -5.872  37.213  79.887  0.00  0.00     0.085 H 
ATOM     17  H   GAD d 809      -3.265  38.064  76.964  0.00  0.00     0.210 HD
ATOM     18  O6  NAG d 810       4.105  36.677  81.761  0.00  0.00    -0.398 OA
ATOM     19  O1  NAG d 810       1.994  40.448  79.576  0.00  0.00    -0.369 OA
ATOM     20  C6  NAG d 810       3.139  36.030  81.005  0.00  0.00     0.043 C 
ATOM     21  C2  NAG d 810       0.485  38.597  79.010  0.00  0.00     0.087 C 
ATOM     22  C3  NAG d 810      -0.158  37.364  79.595  0.00  0.00     0.093 C 
ATOM     23  O4  NAG d 810       0.460  35.155  80.392  0.00  0.00    -0.390 OA
ATOM     24  O5  NAG d 810       2.495  38.265  80.317  0.00  0.00    -0.349 OA
ATOM     25  C4  NAG d 810       0.975  36.390  79.898  0.00  0.00     0.089 C 
ATOM     26  O3  NAG d 810      -1.149  36.827  78.700  0.00  0.00    -0.348 OA
ATOM     27  C7  NAG d 810      -0.908  39.748  77.383  0.00  0.00     0.214 C 
ATOM     28  N2  NAG d 810      -0.562  39.509  78.640  0.00  0.00    -0.349 N 
ATOM     29  C5  NAG d 810       1.998  37.040  80.858  0.00  0.00     0.089 C 
ATOM     30  C1  NAG d 810       1.451  39.213  80.051  0.00  0.00     0.151 C 
ATOM     31  C8  NAG d 810      -2.225  40.484  77.191  0.00  0.00    -0.003 C 
ATOM     32  O7  NAG d 810      -0.192  39.407  76.456  0.00  0.00    -0.274 OA
ATOM     33  H   NAG d 810       4.863  36.086  81.892  0.00  0.00     0.209 HD
ATOM     34  H   NAG d 810       1.273  41.074  79.403  0.00  0.00     0.212 HD
ATOM     35  H   NAG d 810       2.797  35.149  81.507  0.00  0.00     0.078 H 
ATOM     36  H   NAG d 810       3.520  35.716  80.055  0.00  0.00     0.078 H 
ATOM     37  H   NAG d 810       1.060  38.364  78.139  0.00  0.00     0.084 H 
ATOM     38  H   NAG d 810      -0.692  37.580  80.496  0.00  0.00     0.091 H 
ATOM     39  H   NAG d 810      -0.174  34.792  79.754  0.00  0.00     0.210 HD
ATOM     40  H   NAG d 810       1.497  36.163  78.992  0.00  0.00     0.091 H 
ATOM     41  H   NAG d 810      -1.047  39.979  79.356  0.00  0.00     0.163 HD
ATOM     42  H   NAG d 810       1.549  37.271  81.800  0.00  0.00     0.090 H 
ATOM     43  H   NAG d 810       0.918  39.429  80.953  0.00  0.00     0.132 H 
ATOM     44  H   NAG d 810      -2.669  40.674  78.145  0.00  0.00     0.040 H 
ATOM     45  H   NAG d 810      -2.886  39.883  76.603  0.00  0.00     0.040 H 
ATOM     46  H   NAG d 810      -2.044  41.413  76.690  0.00  0.00     0.040 H 
ENDROOT
TORSDOF 11
ENDMDL
MODEL 37
REMARK VINA RESULT:      -7.0      2.858      5.030
REMARK  0 active torsions:
REMARK  status: ('A' for Active; 'I' for Inactive)
REMARK       I    between atoms: C2_1  and  O2_21 
REMARK       I    between atoms: O6_3  and  C6_7 
REMARK       I    between atoms: C1_4  and  O3_17 
REMARK       I    between atoms: O1_5  and  C1_23 
REMARK       I    between atoms: C3_6  and  O3_9 
REMARK       I    between atoms: C6_7  and  C5_22 
REMARK       I    between atoms: C2_8  and  N2_19 
REMARK       I    between atoms: C3_10  and  O3_17 
REMARK       I    between atoms: O4_11  and  C4_15 
REMARK       I    between atoms: C6_16  and  C5_26 
REMARK       I    between atoms: C7_18  and  C8_24 
REMARK       I    between atoms: C7_18  and  N2_19 
ROOT
ATOM      1  C2  GAD d 809      -0.019  34.551  76.989  0.00  0.00     0.111 C 
ATOM      2  O6A GAD d 809      -0.150  34.593  82.326  0.00  0.00    -0.642 OA
ATOM      3  C1  GAD d 809      -0.331  35.825  77.790  0.00  0.00     0.165 C 
ATOM      4  C3  GAD d 809      -0.122  33.310  77.876  0.00  0.00     0.084 C 
ATOM      5  O3  GAD d 809       0.925  32.375  77.551  0.00  0.00    -0.389 OA
ATOM      6  C4  GAD d 809      -0.314  33.660  79.385  0.00  0.00    -0.034 C 
ATOM      7  O5  GAD d 809       0.642  35.722  78.857  0.00  0.00    -0.311 OA
ATOM      8  C6  GAD d 809       0.318  35.251  81.333  0.00  0.00     0.233 C 
ATOM      9  O6B GAD d 809       0.955  36.337  81.407  0.00  0.00    -0.642 OA
ATOM     10  O2  GAD d 809      -0.938  34.349  75.943  0.00  0.00    -0.388 OA
ATOM     11  C5  GAD d 809       0.205  34.795  79.868  0.00  0.00     0.147 C 
ATOM     12  H   GAD d 809       0.970  34.685  76.605  0.00  0.00     0.095 H 
ATOM     13  H   GAD d 809      -1.263  35.979  78.292  0.00  0.00     0.134 H 
ATOM     14  H   GAD d 809      -1.030  32.787  77.659  0.00  0.00     0.093 H 
ATOM     15  H   GAD d 809       1.788  32.783  77.724  0.00  0.00     0.210 HD
ATOM     16  H   GAD d 809      -0.838  33.023  80.005  0.00  0.00     0.085 H 
ATOM     17  H   GAD d 809      -1.827  34.229  76.312  0.00  0.00     0.210 HD
ATOM     18  O6  NAG d 810      -0.645  42.934  77.755  0.00  0.00    -0.398 OA
ATOM     19  O1  NAG d 810      -4.366  40.024  76.691  0.00  0.00    -0.369 OA
ATOM     20  C6  NAG d 810       0.027  41.765  77.425  0.00  0.00     0.043 C 
ATOM     21  C2  NAG d 810      -2.469  38.466  76.719  0.00  0.00     0.087 C 
ATOM     22  C3  NAG d 810      -1.204  38.144  77.476  0.00  0.00     0.093 C 
ATOM     23  O4  NAG d 810       0.991  39.090  77.900  0.00  0.00    -0.390 OA
ATOM     24  O5  NAG d 810      -2.192  40.838  77.112  0.00  0.00    -0.349 OA
ATOM     25  C4  NAG d 810      -0.269  39.331  77.278  0.00  0.00     0.089 C 
ATOM     26  O3  NAG d 810      -0.644  36.895  77.033  0.00  0.00    -0.348 OA
ATOM     27  C7  NAG d 810      -3.591  36.510  75.810  0.00  0.00     0.214 C 
ATOM     28  N2  NAG d 810      -3.346  37.334  76.819  0.00  0.00    -0.349 N 
ATOM     29  C5  NAG d 810      -0.942  40.632  77.771  0.00  0.00     0.089 C 
ATOM     30  C1  NAG d 810      -3.105  39.749  77.308  0.00  0.00     0.151 C 
ATOM     31  C8  NAG d 810      -4.280  35.205  76.176  0.00  0.00    -0.003 C 
ATOM     32  O7  NAG d 810      -3.290  36.808  74.665  0.00  0.00    -0.274 OA
ATOM     33  H   NAG d 810      -0.080  43.698  77.558  0.00  0.00     0.209 HD
ATOM     34  H   NAG d 810      -4.967  39.276  76.836  0.00  0.00     0.212 HD
ATOM     35  H   NAG d 810       0.927  41.676  77.997  0.00  0.00     0.078 H 
ATOM     36  H   NAG d 810       0.313  41.746  76.394  0.00  0.00     0.078 H 
ATOM     37  H   NAG d 810      -2.269  38.655  75.684  0.00  0.00     0.084 H 
ATOM     38  H   NAG d 810      -1.388  38.006  78.521  0.00  0.00     0.091 H 
ATOM     39  H   NAG d 810       1.369  38.265  77.557  0.00  0.00     0.210 HD
ATOM     40  H   NAG d 810      -0.074  39.456  76.233  0.00  0.00     0.091 H 
ATOM     41  H   NAG d 810      -3.788  37.160  77.681  0.00  0.00     0.163 HD
ATOM     42  H   NAG d 810      -1.143  40.588  78.821  0.00  0.00     0.090 H 
ATOM     43  H   NAG d 810      -3.288  39.612  78.353  0.00  0.00     0.132 H 
ATOM     44  H   NAG d 810      -4.440  35.171  77.233  0.00  0.00     0.040 H 
ATOM     45  H   NAG d 810      -3.664  34.382  75.882  0.00  0.00     0.040 H 
ATOM     46  H   NAG d 810      -5.222  35.145  75.670  0.00  0.00     0.040 H 
ENDROOT
TORSDOF 11
ENDMDL
MODEL 38
REMARK VINA RESULT:      -6.9      2.396      7.061
REMARK  0 active torsions:
REMARK  status: ('A' for Active; 'I' for Inactive)
REMARK       I    between atoms: C2_1  and  O2_21 
REMARK       I    between atoms: O6_3  and  C6_7 
REMARK       I    between atoms: C1_4  and  O3_17 
REMARK       I    between atoms: O1_5  and  C1_23 
REMARK       I    between atoms: C3_6  and  O3_9 
REMARK       I    between atoms: C6_7  and  C5_22 
REMARK       I    between atoms: C2_8  and  N2_19 
REMARK       I    between atoms: C3_10  and  O3_17 
REMARK       I    between atoms: O4_11  and  C4_15 
REMARK       I    between atoms: C6_16  and  C5_26 
REMARK       I    between atoms: C7_18  and  C8_24 
REMARK       I    between atoms: C7_18  and  N2_19 
ROOT
ATOM      1  C2  GAD d 809       1.150  37.256  77.993  0.00  0.00     0.111 C 
ATOM      2  O6A GAD d 809      -0.234  42.410  78.125  0.00  0.00    -0.642 OA
ATOM      3  C1  GAD d 809      -0.290  37.724  77.730  0.00  0.00     0.165 C 
ATOM      4  C3  GAD d 809       1.980  38.373  78.627  0.00  0.00     0.084 C 
ATOM      5  O3  GAD d 809       3.314  38.375  78.083  0.00  0.00    -0.389 OA
ATOM      6  C4  GAD d 809       1.227  39.741  78.658  0.00  0.00    -0.034 C 
ATOM      7  O5  GAD d 809      -0.053  38.888  76.903  0.00  0.00    -0.311 OA
ATOM      8  C6  GAD d 809      -0.375  41.356  77.414  0.00  0.00     0.233 C 
ATOM      9  O6B GAD d 809      -1.079  41.264  76.371  0.00  0.00    -0.642 OA
ATOM     10  O2  GAD d 809       1.197  36.184  78.903  0.00  0.00    -0.388 OA
ATOM     11  C5  GAD d 809       0.332  40.021  77.703  0.00  0.00     0.147 C 
ATOM     12  H   GAD d 809       1.538  36.963  77.040  0.00  0.00     0.095 H 
ATOM     13  H   GAD d 809      -0.935  38.075  78.507  0.00  0.00     0.134 H 
ATOM     14  H   GAD d 809       2.112  38.176  79.670  0.00  0.00     0.093 H 
ATOM     15  H   GAD d 809       3.275  38.550  77.130  0.00  0.00     0.210 HD
ATOM     16  H   GAD d 809       1.417  40.422  79.409  0.00  0.00     0.085 H 
ATOM     17  H   GAD d 809       0.842  36.471  79.759  0.00  0.00     0.210 HD
ATOM     18  O6  NAG d 810      -6.640  36.119  74.947  0.00  0.00    -0.398 OA
ATOM     19  O1  NAG d 810      -5.385  35.308  79.553  0.00  0.00    -0.369 OA
ATOM     20  C6  NAG d 810      -5.256  36.126  74.843  0.00  0.00     0.043 C 
ATOM     21  C2  NAG d 810      -3.236  35.879  78.513  0.00  0.00     0.087 C 
ATOM     22  C3  NAG d 810      -2.610  36.822  77.516  0.00  0.00     0.093 C 
ATOM     23  O4  NAG d 810      -2.625  37.270  75.130  0.00  0.00    -0.390 OA
ATOM     24  O5  NAG d 810      -5.294  35.778  77.243  0.00  0.00    -0.349 OA
ATOM     25  C4  NAG d 810      -3.211  36.476  76.159  0.00  0.00     0.089 C 
ATOM     26  O3  NAG d 810      -1.174  36.723  77.546  0.00  0.00    -0.348 OA
ATOM     27  C7  NAG d 810      -1.770  35.297  80.364  0.00  0.00     0.214 C 
ATOM     28  N2  NAG d 810      -2.634  36.125  79.794  0.00  0.00    -0.349 N 
ATOM     29  C5  NAG d 810      -4.751  36.599  76.208  0.00  0.00     0.089 C 
ATOM     30  C1  NAG d 810      -4.767  36.104  78.538  0.00  0.00     0.151 C 
ATOM     31  C8  NAG d 810      -1.003  35.858  81.551  0.00  0.00    -0.003 C 
ATOM     32  O7  NAG d 810      -1.628  34.155  79.957  0.00  0.00    -0.274 OA
ATOM     33  H   NAG d 810      -7.026  35.825  74.107  0.00  0.00     0.209 HD
ATOM     34  H   NAG d 810      -5.015  35.543  80.419  0.00  0.00     0.212 HD
ATOM     35  H   NAG d 810      -4.941  36.798  74.072  0.00  0.00     0.078 H 
ATOM     36  H   NAG d 810      -4.870  35.161  74.587  0.00  0.00     0.078 H 
ATOM     37  H   NAG d 810      -3.067  34.857  78.246  0.00  0.00     0.084 H 
ATOM     38  H   NAG d 810      -2.818  37.846  77.747  0.00  0.00     0.091 H 
ATOM     39  H   NAG d 810      -1.662  37.157  75.143  0.00  0.00     0.210 HD
ATOM     40  H   NAG d 810      -2.987  35.457  75.923  0.00  0.00     0.091 H 
ATOM     41  H   NAG d 810      -2.875  36.951  80.272  0.00  0.00     0.163 HD
ATOM     42  H   NAG d 810      -5.050  37.605  76.415  0.00  0.00     0.090 H 
ATOM     43  H   NAG d 810      -4.977  37.127  78.768  0.00  0.00     0.132 H 
ATOM     44  H   NAG d 810      -1.296  36.874  81.716  0.00  0.00     0.040 H 
ATOM     45  H   NAG d 810       0.046  35.818  81.348  0.00  0.00     0.040 H 
ATOM     46  H   NAG d 810      -1.221  35.277  82.423  0.00  0.00     0.040 H 
ENDROOT
TORSDOF 11
ENDMDL
MODEL 39
REMARK VINA RESULT:      -6.9      2.472      7.228
REMARK  0 active torsions:
REMARK  status: ('A' for Active; 'I' for Inactive)
REMARK       I    between atoms: C2_1  and  O2_21 
REMARK       I    between atoms: O6_3  and  C6_7 
REMARK       I    between atoms: C1_4  and  O3_17 
REMARK       I    between atoms: O1_5  and  C1_23 
REMARK       I    between atoms: C3_6  and  O3_9 
REMARK       I    between atoms: C6_7  and  C5_22 
REMARK       I    between atoms: C2_8  and  N2_19 
REMARK       I    between atoms: C3_10  and  O3_17 
REMARK       I    between atoms: O4_11  and  C4_15 
REMARK       I    between atoms: C6_16  and  C5_26 
REMARK       I    between atoms: C7_18  and  C8_24 
REMARK       I    between atoms: C7_18  and  N2_19 
ROOT
ATOM      1  C2  GAD d 809      -2.134  35.567  76.948  0.00  0.00     0.111 C 
ATOM      2  O6A GAD d 809      -1.084  40.697  75.909  0.00  0.00    -0.642 OA
ATOM      3  C1  GAD d 809      -3.240  36.572  76.588  0.00  0.00     0.165 C 
ATOM      4  C3  GAD d 809      -0.837  36.290  77.309  0.00  0.00     0.084 C 
ATOM      5  O3  GAD d 809       0.297  35.578  76.777  0.00  0.00    -0.389 OA
ATOM      6  C4  GAD d 809      -0.902  37.825  77.031  0.00  0.00    -0.034 C 
ATOM      7  O5  GAD d 809      -2.602  37.310  75.518  0.00  0.00    -0.311 OA
ATOM      8  C6  GAD d 809      -1.749  39.702  75.456  0.00  0.00     0.233 C 
ATOM      9  O6B GAD d 809      -2.526  39.730  74.462  0.00  0.00    -0.642 OA
ATOM     10  O2  GAD d 809      -2.470  34.798  78.078  0.00  0.00    -0.388 OA
ATOM     11  C5  GAD d 809      -1.676  38.281  76.039  0.00  0.00     0.147 C 
ATOM     12  H   GAD d 809      -2.018  34.945  76.086  0.00  0.00     0.095 H 
ATOM     13  H   GAD d 809      -3.579  37.327  77.267  0.00  0.00     0.134 H 
ATOM     14  H   GAD d 809      -0.697  36.269  78.370  0.00  0.00     0.093 H 
ATOM     15  H   GAD d 809       0.239  35.555  75.809  0.00  0.00     0.210 HD
ATOM     16  H   GAD d 809      -0.354  38.482  77.607  0.00  0.00     0.085 H 
ATOM     17  H   GAD d 809      -2.570  35.381  78.847  0.00  0.00     0.210 HD
ATOM     18  O6  NAG d 810      -9.900  37.493  74.256  0.00  0.00    -0.398 OA
ATOM     19  O1  NAG d 810      -8.656  37.149  78.924  0.00  0.00    -0.369 OA
ATOM     20  C6  NAG d 810      -8.674  36.852  74.150  0.00  0.00     0.043 C 
ATOM     21  C2  NAG d 810      -6.597  36.462  77.776  0.00  0.00     0.087 C 
ATOM     22  C3  NAG d 810      -5.728  36.797  76.590  0.00  0.00     0.093 C 
ATOM     23  O4  NAG d 810      -5.794  36.712  74.164  0.00  0.00    -0.390 OA
ATOM     24  O5  NAG d 810      -8.609  37.051  76.567  0.00  0.00    -0.349 OA
ATOM     25  C4  NAG d 810      -6.559  36.495  75.348  0.00  0.00     0.089 C 
ATOM     26  O3  NAG d 810      -4.488  36.067  76.639  0.00  0.00    -0.348 OA
ATOM     27  C7  NAG d 810      -5.353  35.666  79.708  0.00  0.00     0.214 C 
ATOM     28  N2  NAG d 810      -5.818  36.662  78.966  0.00  0.00    -0.349 N 
ATOM     29  C5  NAG d 810      -7.872  37.310  75.371  0.00  0.00     0.089 C 
ATOM     30  C1  NAG d 810      -7.861  37.356  77.753  0.00  0.00     0.151 C 
ATOM     31  C8  NAG d 810      -4.298  36.046  80.734  0.00  0.00    -0.003 C 
ATOM     32  O7  NAG d 810      -5.773  34.528  79.571  0.00  0.00    -0.274 OA
ATOM     33  H   NAG d 810     -10.461  37.244  73.506  0.00  0.00     0.209 HD
ATOM     34  H   NAG d 810      -8.132  37.361  79.712  0.00  0.00     0.212 HD
ATOM     35  H   NAG d 810      -8.177  37.138  73.246  0.00  0.00     0.078 H 
ATOM     36  H   NAG d 810      -8.782  35.787  74.119  0.00  0.00     0.078 H 
ATOM     37  H   NAG d 810      -6.925  35.444  77.748  0.00  0.00     0.084 H 
ATOM     38  H   NAG d 810      -5.439  37.827  76.583  0.00  0.00     0.091 H 
ATOM     39  H   NAG d 810      -4.984  36.180  74.201  0.00  0.00     0.210 HD
ATOM     40  H   NAG d 810      -6.832  35.461  75.349  0.00  0.00     0.091 H 
ATOM     41  H   NAG d 810      -5.619  37.584  79.245  0.00  0.00     0.163 HD
ATOM     42  H   NAG d 810      -7.674  38.360  75.344  0.00  0.00     0.090 H 
ATOM     43  H   NAG d 810      -7.573  38.386  77.744  0.00  0.00     0.132 H 
ATOM     44  H   NAG d 810      -4.095  37.094  80.665  0.00  0.00     0.040 H 
ATOM     45  H   NAG d 810      -3.401  35.495  80.544  0.00  0.00     0.040 H 
ATOM     46  H   NAG d 810      -4.657  35.816  81.717  0.00  0.00     0.040 H 
ENDROOT
TORSDOF 11
ENDMDL
MODEL 40
REMARK VINA RESULT:      -6.8      2.693      5.475
REMARK  0 active torsions:
REMARK  status: ('A' for Active; 'I' for Inactive)
REMARK       I    between atoms: C2_1  and  O2_21 
REMARK       I    between atoms: O6_3  and  C6_7 
REMARK       I    between atoms: C1_4  and  O3_17 
REMARK       I    between atoms: O1_5  and  C1_23 
REMARK       I    between atoms: C3_6  and  O3_9 
REMARK       I    between atoms: C6_7  and  C5_22 
REMARK       I    between atoms: C2_8  and  N2_19 
REMARK       I    between atoms: C3_10  and  O3_17 
REMARK       I    between atoms: O4_11  and  C4_15 
REMARK       I    between atoms: C6_16  and  C5_26 
REMARK       I    between atoms: C7_18  and  C8_24 
REMARK       I    between atoms: C7_18  and  N2_19 
ROOT
ATOM      1  C2  GAD d 809      -3.952  39.747  77.642  0.00  0.00     0.111 C 
ATOM      2  O6A GAD d 809       0.799  42.054  76.864  0.00  0.00    -0.642 OA
ATOM      3  C1  GAD d 809      -2.635  38.961  77.737  0.00  0.00     0.165 C 
ATOM      4  C3  GAD d 809      -3.732  41.100  76.966  0.00  0.00     0.084 C 
ATOM      5  O3  GAD d 809      -4.522  42.116  77.613  0.00  0.00    -0.389 OA
ATOM      6  C4  GAD d 809      -2.222  41.420  76.732  0.00  0.00    -0.034 C 
ATOM      7  O5  GAD d 809      -1.804  39.904  78.456  0.00  0.00    -0.311 OA
ATOM      8  C6  GAD d 809       0.192  41.264  77.667  0.00  0.00     0.233 C 
ATOM      9  O6B GAD d 809       0.715  40.676  78.653  0.00  0.00    -0.642 OA
ATOM     10  O2  GAD d 809      -4.908  39.079  76.855  0.00  0.00    -0.388 OA
ATOM     11  C5  GAD d 809      -1.307  40.929  77.576  0.00  0.00     0.147 C 
ATOM     12  H   GAD d 809      -4.297  39.855  78.649  0.00  0.00     0.095 H 
ATOM     13  H   GAD d 809      -2.056  38.696  76.878  0.00  0.00     0.134 H 
ATOM     14  H   GAD d 809      -4.103  41.066  75.963  0.00  0.00     0.093 H 
ATOM     15  H   GAD d 809      -4.239  42.206  78.537  0.00  0.00     0.210 HD
ATOM     16  H   GAD d 809      -1.931  42.004  75.932  0.00  0.00     0.085 H 
ATOM     17  H   GAD d 809      -4.576  38.991  75.948  0.00  0.00     0.210 HD
ATOM     18  O6  NAG d 810       0.631  33.114  80.144  0.00  0.00    -0.398 OA
ATOM     19  O1  NAG d 810      -1.397  33.511  75.765  0.00  0.00    -0.369 OA
ATOM     20  C6  NAG d 810      -0.245  34.169  80.360  0.00  0.00     0.043 C 
ATOM     21  C2  NAG d 810      -2.220  35.519  76.912  0.00  0.00     0.087 C 
ATOM     22  C3  NAG d 810      -1.784  36.614  77.853  0.00  0.00     0.093 C 
ATOM     23  O4  NAG d 810      -1.123  36.909  80.171  0.00  0.00    -0.390 OA
ATOM     24  O5  NAG d 810      -0.798  33.900  78.013  0.00  0.00    -0.349 OA
ATOM     25  C4  NAG d 810      -1.477  35.940  79.185  0.00  0.00     0.089 C 
ATOM     26  O3  NAG d 810      -2.791  37.639  77.951  0.00  0.00    -0.348 OA
ATOM     27  C7  NAG d 810      -3.849  36.241  75.257  0.00  0.00     0.214 C 
ATOM     28  N2  NAG d 810      -2.593  36.129  75.666  0.00  0.00    -0.349 N 
ATOM     29  C5  NAG d 810      -0.395  34.852  78.999  0.00  0.00     0.089 C 
ATOM     30  C1  NAG d 810      -1.064  34.504  76.739  0.00  0.00     0.151 C 
ATOM     31  C8  NAG d 810      -4.079  37.182  74.085  0.00  0.00    -0.003 C 
ATOM     32  O7  NAG d 810      -4.745  35.607  75.790  0.00  0.00    -0.274 OA
ATOM     33  H   NAG d 810       0.770  32.634  80.976  0.00  0.00     0.209 HD
ATOM     34  H   NAG d 810      -1.573  33.940  74.913  0.00  0.00     0.212 HD
ATOM     35  H   NAG d 810       0.158  34.850  81.079  0.00  0.00     0.078 H 
ATOM     36  H   NAG d 810      -1.186  33.834  80.745  0.00  0.00     0.078 H 
ATOM     37  H   NAG d 810      -3.062  34.983  77.297  0.00  0.00     0.084 H 
ATOM     38  H   NAG d 810      -0.911  37.122  77.501  0.00  0.00     0.091 H 
ATOM     39  H   NAG d 810      -1.833  37.565  80.249  0.00  0.00     0.210 HD
ATOM     40  H   NAG d 810      -2.357  35.448  79.543  0.00  0.00     0.091 H 
ATOM     41  H   NAG d 810      -1.880  36.481  75.086  0.00  0.00     0.163 HD
ATOM     42  H   NAG d 810       0.527  35.279  78.665  0.00  0.00     0.090 H 
ATOM     43  H   NAG d 810      -0.190  35.010  76.388  0.00  0.00     0.132 H 
ATOM     44  H   NAG d 810      -3.148  37.620  73.792  0.00  0.00     0.040 H 
ATOM     45  H   NAG d 810      -4.761  37.953  74.376  0.00  0.00     0.040 H 
ATOM     46  H   NAG d 810      -4.490  36.633  73.263  0.00  0.00     0.040 H 
ENDROOT
TORSDOF 11
ENDMDL
MODEL 41
REMARK VINA RESULT:      -6.8      2.596      7.115
REMARK  0 active torsions:
REMARK  status: ('A' for Active; 'I' for Inactive)
REMARK       I    between atoms: C2_1  and  O2_21 
REMARK       I    between atoms: O6_3  and  C6_7 
REMARK       I    between atoms: C1_4  and  O3_17 
REMARK       I    between atoms: O1_5  and  C1_23 
REMARK       I    between atoms: C3_6  and  O3_9 
REMARK       I    between atoms: C6_7  and  C5_22 
REMARK       I    between atoms: C2_8  and  N2_19 
REMARK       I    between atoms: C3_10  and  O3_17 
REMARK       I    between atoms: O4_11  and  C4_15 
REMARK       I    between atoms: C6_16  and  C5_26 
REMARK       I    between atoms: C7_18  and  C8_24 
REMARK       I    between atoms: C7_18  and  N2_19 
ROOT
ATOM      1  C2  GAD d 809      -1.252  37.074  77.001  0.00  0.00     0.111 C 
ATOM      2  O6A GAD d 809      -2.953  42.121  77.375  0.00  0.00    -0.642 OA
ATOM      3  C1  GAD d 809      -2.722  37.461  76.775  0.00  0.00     0.165 C 
ATOM      4  C3  GAD d 809      -0.485  38.213  77.673  0.00  0.00     0.084 C 
ATOM      5  O3  GAD d 809       0.838  38.322  77.115  0.00  0.00    -0.389 OA
ATOM      6  C4  GAD d 809      -1.321  39.528  77.773  0.00  0.00    -0.034 C 
ATOM      7  O5  GAD d 809      -2.570  38.673  75.997  0.00  0.00    -0.311 OA
ATOM      8  C6  GAD d 809      -3.039  41.092  76.620  0.00  0.00     0.233 C 
ATOM      9  O6B GAD d 809      -3.750  41.000  75.582  0.00  0.00    -0.642 OA
ATOM     10  O2  GAD d 809      -1.126  35.969  77.863  0.00  0.00    -0.388 OA
ATOM     11  C5  GAD d 809      -2.245  39.792  76.842  0.00  0.00     0.147 C 
ATOM     12  H   GAD d 809      -0.861  36.847  76.031  0.00  0.00     0.095 H 
ATOM     13  H   GAD d 809      -3.377  37.738  77.575  0.00  0.00     0.134 H 
ATOM     14  H   GAD d 809      -0.326  37.980  78.705  0.00  0.00     0.093 H 
ATOM     15  H   GAD d 809       0.775  38.535  76.170  0.00  0.00     0.210 HD
ATOM     16  H   GAD d 809      -1.163  40.187  78.551  0.00  0.00     0.085 H 
ATOM     17  H   GAD d 809      -1.485  36.196  78.734  0.00  0.00     0.210 HD
ATOM     18  O6  NAG d 810      -9.000  35.582  74.000  0.00  0.00    -0.398 OA
ATOM     19  O1  NAG d 810      -7.630  34.654  78.551  0.00  0.00    -0.369 OA
ATOM     20  C6  NAG d 810      -7.621  35.680  73.880  0.00  0.00     0.043 C 
ATOM     21  C2  NAG d 810      -5.536  35.403  77.512  0.00  0.00     0.087 C 
ATOM     22  C3  NAG d 810      -4.985  36.426  76.550  0.00  0.00     0.093 C 
ATOM     23  O4  NAG d 810      -5.063  36.975  74.186  0.00  0.00    -0.390 OA
ATOM     24  O5  NAG d 810      -7.602  35.228  76.263  0.00  0.00    -0.349 OA
ATOM     25  C4  NAG d 810      -5.583  36.101  75.186  0.00  0.00     0.089 C 
ATOM     26  O3  NAG d 810      -3.545  36.416  76.559  0.00  0.00    -0.348 OA
ATOM     27  C7  NAG d 810      -4.011  34.835  79.318  0.00  0.00     0.214 C 
ATOM     28  N2  NAG d 810      -4.932  35.631  78.795  0.00  0.00    -0.349 N 
ATOM     29  C5  NAG d 810      -7.127  36.125  75.258  0.00  0.00     0.089 C 
ATOM     30  C1  NAG d 810      -7.078  35.530  77.565  0.00  0.00     0.151 C 
ATOM     31  C8  NAG d 810      -3.263  35.392  80.519  0.00  0.00    -0.003 C 
ATOM     32  O7  NAG d 810      -3.804  33.723  78.860  0.00  0.00    -0.274 OA
ATOM     33  H   NAG d 810      -9.379  35.301  73.153  0.00  0.00     0.209 HD
ATOM     34  H   NAG d 810      -7.263  34.875  79.422  0.00  0.00     0.212 HD
ATOM     35  H   NAG d 810      -7.360  36.404  73.136  0.00  0.00     0.078 H 
ATOM     36  H   NAG d 810      -7.180  34.753  73.578  0.00  0.00     0.078 H 
ATOM     37  H   NAG d 810      -5.308  34.406  77.198  0.00  0.00     0.084 H 
ATOM     38  H   NAG d 810      -5.253  37.423  76.828  0.00  0.00     0.091 H 
ATOM     39  H   NAG d 810      -4.094  36.921  74.182  0.00  0.00     0.210 HD
ATOM     40  H   NAG d 810      -5.299  35.109  74.903  0.00  0.00     0.091 H 
ATOM     41  H   NAG d 810      -5.217  36.419  79.312  0.00  0.00     0.163 HD
ATOM     42  H   NAG d 810      -7.485  37.101  75.513  0.00  0.00     0.090 H 
ATOM     43  H   NAG d 810      -7.348  36.528  77.842  0.00  0.00     0.132 H 
ATOM     44  H   NAG d 810      -3.616  36.379  80.732  0.00  0.00     0.040 H 
ATOM     45  H   NAG d 810      -2.216  35.427  80.302  0.00  0.00     0.040 H 
ATOM     46  H   NAG d 810      -3.431  34.762  81.368  0.00  0.00     0.040 H 
ENDROOT
TORSDOF 11
ENDMDL
MODEL 42
REMARK VINA RESULT:      -6.8      2.785      6.866
REMARK  0 active torsions:
REMARK  status: ('A' for Active; 'I' for Inactive)
REMARK       I    between atoms: C2_1  and  O2_21 
REMARK       I    between atoms: O6_3  and  C6_7 
REMARK       I    between atoms: C1_4  and  O3_17 
REMARK       I    between atoms: O1_5  and  C1_23 
REMARK       I    between atoms: C3_6  and  O3_9 
REMARK       I    between atoms: C6_7  and  C5_22 
REMARK       I    between atoms: C2_8  and  N2_19 
REMARK       I    between atoms: C3_10  and  O3_17 
REMARK       I    between atoms: O4_11  and  C4_15 
REMARK       I    between atoms: C6_16  and  C5_26 
REMARK       I    between atoms: C7_18  and  C8_24 
REMARK       I    between atoms: C7_18  and  N2_19 
ROOT
ATOM      1  C2  GAD d 809      -0.061  34.787  80.531  0.00  0.00     0.111 C 
ATOM      2  O6A GAD d 809       1.785  39.166  82.965  0.00  0.00    -0.642 OA
ATOM      3  C1  GAD d 809      -0.377  36.202  80.021  0.00  0.00     0.165 C 
ATOM      4  C3  GAD d 809       0.502  34.833  81.952  0.00  0.00     0.084 C 
ATOM      5  O3  GAD d 809       1.560  33.867  82.102  0.00  0.00    -0.389 OA
ATOM      6  C4  GAD d 809       0.796  36.287  82.439  0.00  0.00    -0.034 C 
ATOM      7  O5  GAD d 809       0.911  36.843  80.176  0.00  0.00    -0.311 OA
ATOM      8  C6  GAD d 809       1.661  38.647  81.801  0.00  0.00     0.233 C 
ATOM      9  O6B GAD d 809       1.971  39.203  80.713  0.00  0.00    -0.642 OA
ATOM     10  O2  GAD d 809      -1.213  33.984  80.603  0.00  0.00    -0.388 OA
ATOM     11  C5  GAD d 809       1.139  37.222  81.546  0.00  0.00     0.147 C 
ATOM     12  H   GAD d 809       0.644  34.380  79.837  0.00  0.00     0.095 H 
ATOM     13  H   GAD d 809      -1.062  36.856  80.518  0.00  0.00     0.134 H 
ATOM     14  H   GAD d 809      -0.250  34.521  82.647  0.00  0.00     0.093 H 
ATOM     15  H   GAD d 809       2.286  34.086  81.497  0.00  0.00     0.210 HD
ATOM     16  H   GAD d 809       0.726  36.525  83.441  0.00  0.00     0.085 H 
ATOM     17  H   GAD d 809      -1.837  34.370  81.238  0.00  0.00     0.210 HD
ATOM     18  O6  NAG d 810      -2.538  40.193  74.540  0.00  0.00    -0.398 OA
ATOM     19  O1  NAG d 810      -5.483  38.347  77.912  0.00  0.00    -0.369 OA
ATOM     20  C6  NAG d 810      -1.754  39.158  75.029  0.00  0.00     0.043 C 
ATOM     21  C2  NAG d 810      -3.373  37.174  78.354  0.00  0.00     0.087 C 
ATOM     22  C3  NAG d 810      -1.881  37.391  78.420  0.00  0.00     0.093 C 
ATOM     23  O4  NAG d 810      -0.016  37.885  76.946  0.00  0.00    -0.390 OA
ATOM     24  O5  NAG d 810      -3.604  38.768  76.548  0.00  0.00    -0.349 OA
ATOM     25  C4  NAG d 810      -1.433  37.731  77.003  0.00  0.00     0.089 C 
ATOM     26  O3  NAG d 810      -1.217  36.238  78.968  0.00  0.00    -0.348 OA
ATOM     27  C7  NAG d 810      -4.195  35.538  79.955  0.00  0.00     0.214 C 
ATOM     28  N2  NAG d 810      -3.820  36.775  79.660  0.00  0.00    -0.349 N 
ATOM     29  C5  NAG d 810      -2.192  38.973  76.484  0.00  0.00     0.089 C 
ATOM     30  C1  NAG d 810      -4.059  38.477  77.878  0.00  0.00     0.151 C 
ATOM     31  C8  NAG d 810      -4.331  35.226  81.437  0.00  0.00    -0.003 C 
ATOM     32  O7  NAG d 810      -4.428  34.723  79.077  0.00  0.00    -0.274 OA
ATOM     33  H   NAG d 810      -2.309  40.362  73.613  0.00  0.00     0.209 HD
ATOM     34  H   NAG d 810      -5.768  38.151  78.818  0.00  0.00     0.212 HD
ATOM     35  H   NAG d 810      -0.717  39.417  74.980  0.00  0.00     0.078 H 
ATOM     36  H   NAG d 810      -1.876  38.261  74.458  0.00  0.00     0.078 H 
ATOM     37  H   NAG d 810      -3.627  36.405  77.655  0.00  0.00     0.084 H 
ATOM     38  H   NAG d 810      -1.622  38.194  79.078  0.00  0.00     0.091 H 
ATOM     39  H   NAG d 810       0.410  37.081  77.281  0.00  0.00     0.210 HD
ATOM     40  H   NAG d 810      -1.678  36.919  76.351  0.00  0.00     0.091 H 
ATOM     41  H   NAG d 810      -3.849  37.454  80.371  0.00  0.00     0.163 HD
ATOM     42  H   NAG d 810      -1.972  39.835  77.078  0.00  0.00     0.090 H 
ATOM     43  H   NAG d 810      -3.800  39.281  78.534  0.00  0.00     0.132 H 
ATOM     44  H   NAG d 810      -4.073  36.093  82.008  0.00  0.00     0.040 H 
ATOM     45  H   NAG d 810      -3.674  34.422  81.693  0.00  0.00     0.040 H 
ATOM     46  H   NAG d 810      -5.341  34.945  81.651  0.00  0.00     0.040 H 
ENDROOT
TORSDOF 11
ENDMDL
MODEL 43
REMARK VINA RESULT:      -6.8      2.781      5.971
REMARK  0 active torsions:
REMARK  status: ('A' for Active; 'I' for Inactive)
REMARK       I    between atoms: C2_1  and  O2_21 
REMARK       I    between atoms: O6_3  and  C6_7 
REMARK       I    between atoms: C1_4  and  O3_17 
REMARK       I    between atoms: O1_5  and  C1_23 
REMARK       I    between atoms: C3_6  and  O3_9 
REMARK       I    between atoms: C6_7  and  C5_22 
REMARK       I    between atoms: C2_8  and  N2_19 
REMARK       I    between atoms: C3_10  and  O3_17 
REMARK       I    between atoms: O4_11  and  C4_15 
REMARK       I    between atoms: C6_16  and  C5_26 
REMARK       I    between atoms: C7_18  and  C8_24 
REMARK       I    between atoms: C7_18  and  N2_19 
ROOT
ATOM      1  C2  GAD d 809      -0.676  35.582  76.680  0.00  0.00     0.111 C 
ATOM      2  O6A GAD d 809       1.647  37.355  81.148  0.00  0.00    -0.642 OA
ATOM      3  C1  GAD d 809      -1.169  36.837  77.417  0.00  0.00     0.165 C 
ATOM      4  C3  GAD d 809       0.267  34.766  77.565  0.00  0.00     0.084 C 
ATOM      5  O3  GAD d 809       1.354  34.237  76.782  0.00  0.00    -0.389 OA
ATOM      6  C4  GAD d 809       0.642  35.502  78.889  0.00  0.00    -0.034 C 
ATOM      7  O5  GAD d 809       0.088  37.467  77.758  0.00  0.00    -0.311 OA
ATOM      8  C6  GAD d 809       1.213  37.767  80.017  0.00  0.00     0.233 C 
ATOM      9  O6B GAD d 809       1.182  38.969  79.637  0.00  0.00    -0.642 OA
ATOM     10  O2  GAD d 809      -1.734  34.716  76.349  0.00  0.00    -0.388 OA
ATOM     11  C5  GAD d 809       0.686  36.840  78.908  0.00  0.00     0.147 C 
ATOM     12  H   GAD d 809      -0.186  35.939  75.798  0.00  0.00     0.095 H 
ATOM     13  H   GAD d 809      -1.705  36.792  78.342  0.00  0.00     0.134 H 
ATOM     14  H   GAD d 809      -0.245  33.903  77.935  0.00  0.00     0.093 H 
ATOM     15  H   GAD d 809       1.870  34.969  76.408  0.00  0.00     0.210 HD
ATOM     16  H   GAD d 809       0.853  34.963  79.743  0.00  0.00     0.085 H 
ATOM     17  H   GAD d 809      -2.162  34.405  77.162  0.00  0.00     0.210 HD
ATOM     18  O6  NAG d 810      -4.931  42.865  77.015  0.00  0.00    -0.398 OA
ATOM     19  O1  NAG d 810      -6.731  38.605  78.452  0.00  0.00    -0.369 OA
ATOM     20  C6  NAG d 810      -4.007  41.993  76.457  0.00  0.00     0.043 C 
ATOM     21  C2  NAG d 810      -4.546  37.971  77.530  0.00  0.00     0.087 C 
ATOM     22  C3  NAG d 810      -3.105  38.416  77.469  0.00  0.00     0.093 C 
ATOM     23  O4  NAG d 810      -1.755  40.193  76.514  0.00  0.00    -0.390 OA
ATOM     24  O5  NAG d 810      -5.334  40.260  77.515  0.00  0.00    -0.349 OA
ATOM     25  C4  NAG d 810      -3.091  39.725  76.689  0.00  0.00     0.089 C 
ATOM     26  O3  NAG d 810      -2.276  37.394  76.886  0.00  0.00    -0.348 OA
ATOM     27  C7  NAG d 810      -4.824  35.556  77.562  0.00  0.00     0.214 C 
ATOM     28  N2  NAG d 810      -4.589  36.698  78.192  0.00  0.00    -0.349 N 
ATOM     29  C5  NAG d 810      -4.006  40.767  77.373  0.00  0.00     0.089 C 
ATOM     30  C1  NAG d 810      -5.381  39.042  78.274  0.00  0.00     0.151 C 
ATOM     31  C8  NAG d 810      -4.522  34.292  78.351  0.00  0.00    -0.003 C 
ATOM     32  O7  NAG d 810      -5.272  35.543  76.427  0.00  0.00    -0.274 OA
ATOM     33  H   NAG d 810      -4.981  43.670  76.477  0.00  0.00     0.209 HD
ATOM     34  H   NAG d 810      -6.739  37.782  78.966  0.00  0.00     0.212 HD
ATOM     35  H   NAG d 810      -3.037  42.442  76.430  0.00  0.00     0.078 H 
ATOM     36  H   NAG d 810      -4.258  41.738  75.448  0.00  0.00     0.078 H 
ATOM     37  H   NAG d 810      -4.964  37.863  76.551  0.00  0.00     0.084 H 
ATOM     38  H   NAG d 810      -2.695  38.577  78.444  0.00  0.00     0.091 H 
ATOM     39  H   NAG d 810      -1.226  39.505  76.083  0.00  0.00     0.210 HD
ATOM     40  H   NAG d 810      -3.486  39.557  75.710  0.00  0.00     0.091 H 
ATOM     41  H   NAG d 810      -4.435  36.671  79.164  0.00  0.00     0.163 HD
ATOM     42  H   NAG d 810      -3.653  41.004  78.354  0.00  0.00     0.090 H 
ATOM     43  H   NAG d 810      -4.970  39.205  79.248  0.00  0.00     0.132 H 
ATOM     44  H   NAG d 810      -4.139  34.557  79.314  0.00  0.00     0.040 H 
ATOM     45  H   NAG d 810      -3.794  33.710  77.826  0.00  0.00     0.040 H 
ATOM     46  H   NAG d 810      -5.419  33.721  78.467  0.00  0.00     0.040 H 
ENDROOT
TORSDOF 11
ENDMDL
MODEL 44
REMARK VINA RESULT:      -6.7      3.128      3.989
REMARK  0 active torsions:
REMARK  status: ('A' for Active; 'I' for Inactive)
REMARK       I    between atoms: C2_1  and  O2_21 
REMARK       I    between atoms: O6_3  and  C6_7 
REMARK       I    between atoms: C1_4  and  O3_17 
REMARK       I    between atoms: O1_5  and  C1_23 
REMARK       I    between atoms: C3_6  and  O3_9 
REMARK       I    between atoms: C6_7  and  C5_22 
REMARK       I    between atoms: C2_8  and  N2_19 
REMARK       I    between atoms: C3_10  and  O3_17 
REMARK       I    between atoms: O4_11  and  C4_15 
REMARK       I    between atoms: C6_16  and  C5_26 
REMARK       I    between atoms: C7_18  and  C8_24 
REMARK       I    between atoms: C7_18  and  N2_19 
ROOT
ATOM      1  C2  GAD d 809      -3.761  36.584  74.929  0.00  0.00     0.111 C 
ATOM      2  O6A GAD d 809      -6.797  34.061  78.524  0.00  0.00    -0.642 OA
ATOM      3  C1  GAD d 809      -3.157  35.765  76.081  0.00  0.00     0.165 C 
ATOM      4  C3  GAD d 809      -5.245  36.860  75.176  0.00  0.00     0.084 C 
ATOM      5  O3  GAD d 809      -5.985  36.752  73.945  0.00  0.00    -0.389 OA
ATOM      6  C4  GAD d 809      -5.807  36.084  76.409  0.00  0.00    -0.034 C 
ATOM      7  O5  GAD d 809      -4.028  34.609  76.081  0.00  0.00    -0.311 OA
ATOM      8  C6  GAD d 809      -5.780  33.876  77.769  0.00  0.00     0.233 C 
ATOM      9  O6B GAD d 809      -5.071  32.833  77.737  0.00  0.00    -0.642 OA
ATOM     10  O2  GAD d 809      -3.155  37.848  74.807  0.00  0.00    -0.388 OA
ATOM     11  C5  GAD d 809      -5.274  34.901  76.740  0.00  0.00     0.147 C 
ATOM     12  H   GAD d 809      -3.606  36.000  74.046  0.00  0.00     0.095 H 
ATOM     13  H   GAD d 809      -3.161  36.104  77.096  0.00  0.00     0.134 H 
ATOM     14  H   GAD d 809      -5.376  37.876  75.483  0.00  0.00     0.093 H 
ATOM     15  H   GAD d 809      -5.912  35.848  73.601  0.00  0.00     0.210 HD
ATOM     16  H   GAD d 809      -6.581  36.479  76.964  0.00  0.00     0.085 H 
ATOM     17  H   GAD d 809      -3.308  38.360  75.616  0.00  0.00     0.210 HD
ATOM     18  O6  NAG d 810       2.577  32.376  78.586  0.00  0.00    -0.398 OA
ATOM     19  O1  NAG d 810       1.531  37.018  79.483  0.00  0.00    -0.369 OA
ATOM     20  C6  NAG d 810       1.720  32.656  77.531  0.00  0.00     0.043 C 
ATOM     21  C2  NAG d 810      -0.058  36.454  77.699  0.00  0.00     0.087 C 
ATOM     22  C3  NAG d 810      -0.975  35.354  77.227  0.00  0.00     0.093 C 
ATOM     23  O4  NAG d 810      -0.855  33.108  76.313  0.00  0.00    -0.390 OA
ATOM     24  O5  NAG d 810       1.554  34.856  78.540  0.00  0.00    -0.349 OA
ATOM     25  C4  NAG d 810      -0.080  34.181  76.845  0.00  0.00     0.089 C 
ATOM     26  O3  NAG d 810      -1.812  35.810  76.147  0.00  0.00    -0.348 OA
ATOM     27  C7  NAG d 810      -0.891  38.691  77.234  0.00  0.00     0.214 C 
ATOM     28  N2  NAG d 810      -0.864  37.606  77.995  0.00  0.00    -0.349 N 
ATOM     29  C5  NAG d 810       0.788  33.754  78.050  0.00  0.00     0.089 C 
ATOM     30  C1  NAG d 810       0.733  35.965  78.936  0.00  0.00     0.151 C 
ATOM     31  C8  NAG d 810      -2.021  39.668  77.519  0.00  0.00    -0.003 C 
ATOM     32  O7  NAG d 810      -0.044  38.881  76.377  0.00  0.00    -0.274 OA
ATOM     33  H   NAG d 810       3.200  31.681  78.320  0.00  0.00     0.209 HD
ATOM     34  H   NAG d 810       0.957  37.756  79.744  0.00  0.00     0.212 HD
ATOM     35  H   NAG d 810       1.159  31.785  77.262  0.00  0.00     0.078 H 
ATOM     36  H   NAG d 810       2.252  32.965  76.655  0.00  0.00     0.078 H 
ATOM     37  H   NAG d 810       0.656  36.719  76.947  0.00  0.00     0.084 H 
ATOM     38  H   NAG d 810      -1.659  35.047  77.991  0.00  0.00     0.091 H 
ATOM     39  H   NAG d 810      -1.378  33.428  75.562  0.00  0.00     0.210 HD
ATOM     40  H   NAG d 810       0.590  34.487  76.069  0.00  0.00     0.091 H 
ATOM     41  H   NAG d 810      -1.424  37.589  78.804  0.00  0.00     0.163 HD
ATOM     42  H   NAG d 810       0.180  33.409  78.860  0.00  0.00     0.090 H 
ATOM     43  H   NAG d 810       0.051  35.656  79.701  0.00  0.00     0.132 H 
ATOM     44  H   NAG d 810      -2.632  39.284  78.309  0.00  0.00     0.040 H 
ATOM     45  H   NAG d 810      -2.614  39.794  76.638  0.00  0.00     0.040 H 
ATOM     46  H   NAG d 810      -1.610  40.612  77.812  0.00  0.00     0.040 H 
ENDROOT
TORSDOF 11
ENDMDL
MODEL 45
REMARK VINA RESULT:      -6.7      2.281      4.564
REMARK  0 active torsions:
REMARK  status: ('A' for Active; 'I' for Inactive)
REMARK       I    between atoms: C2_1  and  O2_21 
REMARK       I    between atoms: O6_3  and  C6_7 
REMARK       I    between atoms: C1_4  and  O3_17 
REMARK       I    between atoms: O1_5  and  C1_23 
REMARK       I    between atoms: C3_6  and  O3_9 
REMARK       I    between atoms: C6_7  and  C5_22 
REMARK       I    between atoms: C2_8  and  N2_19 
REMARK       I    between atoms: C3_10  and  O3_17 
REMARK       I    between atoms: O4_11  and  C4_15 
REMARK       I    between atoms: C6_16  and  C5_26 
REMARK       I    between atoms: C7_18  and  C8_24 
REMARK       I    between atoms: C7_18  and  N2_19 
ROOT
ATOM      1  C2  GAD d 809      -5.323  37.499  77.840  0.00  0.00     0.111 C 
ATOM      2  O6A GAD d 809      -3.813  37.302  72.723  0.00  0.00    -0.642 OA
ATOM      3  C1  GAD d 809      -3.876  37.776  77.402  0.00  0.00     0.165 C 
ATOM      4  C3  GAD d 809      -6.116  36.834  76.713  0.00  0.00     0.084 C 
ATOM      5  O3  GAD d 809      -7.457  37.357  76.670  0.00  0.00    -0.389 OA
ATOM      6  C4  GAD d 809      -5.330  36.792  75.365  0.00  0.00    -0.034 C 
ATOM      7  O5  GAD d 809      -4.097  38.580  76.218  0.00  0.00    -0.311 OA
ATOM      8  C6  GAD d 809      -3.707  38.033  73.768  0.00  0.00     0.233 C 
ATOM      9  O6B GAD d 809      -3.021  39.088  73.859  0.00  0.00    -0.642 OA
ATOM     10  O2  GAD d 809      -5.383  36.606  78.925  0.00  0.00    -0.388 OA
ATOM     11  C5  GAD d 809      -4.442  37.755  75.090  0.00  0.00     0.147 C 
ATOM     12  H   GAD d 809      -5.732  38.451  78.107  0.00  0.00     0.095 H 
ATOM     13  H   GAD d 809      -3.211  37.003  77.079  0.00  0.00     0.134 H 
ATOM     14  H   GAD d 809      -6.237  35.793  76.925  0.00  0.00     0.093 H 
ATOM     15  H   GAD d 809      -7.428  38.309  76.481  0.00  0.00     0.210 HD
ATOM     16  H   GAD d 809      -5.492  36.027  74.692  0.00  0.00     0.085 H 
ATOM     17  H   GAD d 809      -5.009  35.751  78.661  0.00  0.00     0.210 HD
ATOM     18  O6  NAG d 810       2.392  40.680  79.112  0.00  0.00    -0.398 OA
ATOM     19  O1  NAG d 810       1.185  36.069  79.970  0.00  0.00    -0.369 OA
ATOM     20  C6  NAG d 810       1.007  40.763  79.070  0.00  0.00     0.043 C 
ATOM     21  C2  NAG d 810      -0.965  37.067  79.330  0.00  0.00     0.087 C 
ATOM     22  C3  NAG d 810      -1.582  38.039  78.355  0.00  0.00     0.093 C 
ATOM     23  O4  NAG d 810      -1.591  40.418  77.867  0.00  0.00    -0.390 OA
ATOM     24  O5  NAG d 810       1.071  38.370  79.459  0.00  0.00    -0.349 OA
ATOM     25  C4  NAG d 810      -1.009  39.411  78.693  0.00  0.00     0.089 C 
ATOM     26  O3  NAG d 810      -3.019  37.989  78.420  0.00  0.00    -0.348 OA
ATOM     27  C7  NAG d 810      -2.417  35.205  79.908  0.00  0.00     0.214 C 
ATOM     28  N2  NAG d 810      -1.542  35.774  79.091  0.00  0.00    -0.349 N 
ATOM     29  C5  NAG d 810       0.534  39.383  78.607  0.00  0.00     0.089 C 
ATOM     30  C1  NAG d 810       0.572  37.062  79.143  0.00  0.00     0.151 C 
ATOM     31  C8  NAG d 810      -3.152  33.998  79.348  0.00  0.00    -0.003 C 
ATOM     32  O7  NAG d 810      -2.592  35.628  81.039  0.00  0.00    -0.274 OA
ATOM     33  H   NAG d 810       2.758  41.530  79.401  0.00  0.00     0.209 HD
ATOM     34  H   NAG d 810       0.834  35.195  79.740  0.00  0.00     0.212 HD
ATOM     35  H   NAG d 810       0.697  41.517  78.377  0.00  0.00     0.078 H 
ATOM     36  H   NAG d 810       0.594  41.029  80.021  0.00  0.00     0.078 H 
ATOM     37  H   NAG d 810      -1.162  37.349  80.343  0.00  0.00     0.084 H 
ATOM     38  H   NAG d 810      -1.345  37.794  77.341  0.00  0.00     0.091 H 
ATOM     39  H   NAG d 810      -2.556  40.392  77.958  0.00  0.00     0.210 HD
ATOM     40  H   NAG d 810      -1.262  39.660  79.702  0.00  0.00     0.091 H 
ATOM     41  H   NAG d 810      -1.274  35.286  78.280  0.00  0.00     0.163 HD
ATOM     42  H   NAG d 810       0.861  39.164  77.613  0.00  0.00     0.090 H 
ATOM     43  H   NAG d 810       0.810  36.818  78.128  0.00  0.00     0.132 H 
ATOM     44  H   NAG d 810      -2.832  33.820  78.343  0.00  0.00     0.040 H 
ATOM     45  H   NAG d 810      -4.205  34.185  79.360  0.00  0.00     0.040 H 
ATOM     46  H   NAG d 810      -2.936  33.138  79.949  0.00  0.00     0.040 H 
ENDROOT
TORSDOF 11
ENDMDL
MODEL 46
REMARK VINA RESULT:      -6.7      2.595      5.076
REMARK  0 active torsions:
REMARK  status: ('A' for Active; 'I' for Inactive)
REMARK       I    between atoms: C2_1  and  O2_21 
REMARK       I    between atoms: O6_3  and  C6_7 
REMARK       I    between atoms: C1_4  and  O3_17 
REMARK       I    between atoms: O1_5  and  C1_23 
REMARK       I    between atoms: C3_6  and  O3_9 
REMARK       I    between atoms: C6_7  and  C5_22 
REMARK       I    between atoms: C2_8  and  N2_19 
REMARK       I    between atoms: C3_10  and  O3_17 
REMARK       I    between atoms: O4_11  and  C4_15 
REMARK       I    between atoms: C6_16  and  C5_26 
REMARK       I    between atoms: C7_18  and  C8_24 
REMARK       I    between atoms: C7_18  and  N2_19 
ROOT
ATOM      1  C2  GAD d 809      -7.030  36.935  78.658  0.00  0.00     0.111 C 
ATOM      2  O6A GAD d 809      -8.193  34.762  73.923  0.00  0.00    -0.642 OA
ATOM      3  C1  GAD d 809      -6.035  36.944  77.487  0.00  0.00     0.165 C 
ATOM      4  C3  GAD d 809      -8.168  35.948  78.399  0.00  0.00     0.084 C 
ATOM      5  O3  GAD d 809      -9.419  36.497  78.858  0.00  0.00    -0.389 OA
ATOM      6  C4  GAD d 809      -8.142  35.361  76.953  0.00  0.00    -0.034 C 
ATOM      7  O5  GAD d 809      -6.914  37.262  76.382  0.00  0.00    -0.311 OA
ATOM      8  C6  GAD d 809      -7.695  35.821  74.440  0.00  0.00     0.233 C 
ATOM      9  O6B GAD d 809      -7.208  36.791  73.799  0.00  0.00    -0.642 OA
ATOM     10  O2  GAD d 809      -6.427  36.515  79.858  0.00  0.00    -0.388 OA
ATOM     11  C5  GAD d 809      -7.646  36.099  75.952  0.00  0.00     0.147 C 
ATOM     12  H   GAD d 809      -7.385  37.941  78.742  0.00  0.00     0.095 H 
ATOM     13  H   GAD d 809      -5.510  36.068  77.167  0.00  0.00     0.134 H 
ATOM     14  H   GAD d 809      -8.024  35.069  78.991  0.00  0.00     0.093 H 
ATOM     15  H   GAD d 809      -9.620  37.305  78.361  0.00  0.00     0.210 HD
ATOM     16  H   GAD d 809      -8.502  34.412  76.770  0.00  0.00     0.085 H 
ATOM     17  H   GAD d 809      -6.113  35.603  79.760  0.00  0.00     0.210 HD
ATOM     18  O6  NAG d 810      -0.206  39.897  74.667  0.00  0.00    -0.398 OA
ATOM     19  O1  NAG d 810      -0.182  36.017  77.564  0.00  0.00    -0.369 OA
ATOM     20  C6  NAG d 810      -1.432  40.041  75.302  0.00  0.00     0.043 C 
ATOM     21  C2  NAG d 810      -2.486  36.831  77.792  0.00  0.00     0.087 C 
ATOM     22  C3  NAG d 810      -3.630  37.406  76.993  0.00  0.00     0.093 C 
ATOM     23  O4  NAG d 810      -4.208  39.428  75.781  0.00  0.00    -0.390 OA
ATOM     24  O5  NAG d 810      -0.851  37.965  76.414  0.00  0.00    -0.349 OA
ATOM     25  C4  NAG d 810      -3.163  38.768  76.492  0.00  0.00     0.089 C 
ATOM     26  O3  NAG d 810      -4.830  37.469  77.785  0.00  0.00    -0.348 OA
ATOM     27  C7  NAG d 810      -3.195  35.407  79.630  0.00  0.00     0.214 C 
ATOM     28  N2  NAG d 810      -2.918  35.578  78.346  0.00  0.00    -0.349 N 
ATOM     29  C5  NAG d 810      -1.871  38.619  75.657  0.00  0.00     0.089 C 
ATOM     30  C1  NAG d 810      -1.252  36.665  76.872  0.00  0.00     0.151 C 
ATOM     31  C8  NAG d 810      -3.932  34.124  79.980  0.00  0.00    -0.003 C 
ATOM     32  O7  NAG d 810      -2.855  36.230  80.464  0.00  0.00    -0.274 OA
ATOM     33  H   NAG d 810       0.131  40.771  74.414  0.00  0.00     0.209 HD
ATOM     34  H   NAG d 810      -0.474  35.142  77.865  0.00  0.00     0.212 HD
ATOM     35  H   NAG d 810      -2.142  40.501  74.647  0.00  0.00     0.078 H 
ATOM     36  H   NAG d 810      -1.361  40.666  76.169  0.00  0.00     0.078 H 
ATOM     37  H   NAG d 810      -2.202  37.481  78.594  0.00  0.00     0.084 H 
ATOM     38  H   NAG d 810      -3.885  36.788  76.158  0.00  0.00     0.091 H 
ATOM     39  H   NAG d 810      -4.993  39.496  76.347  0.00  0.00     0.210 HD
ATOM     40  H   NAG d 810      -2.925  39.389  77.330  0.00  0.00     0.091 H 
ATOM     41  H   NAG d 810      -3.014  34.808  77.740  0.00  0.00     0.163 HD
ATOM     42  H   NAG d 810      -2.044  38.027  74.783  0.00  0.00     0.090 H 
ATOM     43  H   NAG d 810      -1.507  36.048  76.036  0.00  0.00     0.132 H 
ATOM     44  H   NAG d 810      -4.121  33.567  79.087  0.00  0.00     0.040 H 
ATOM     45  H   NAG d 810      -4.861  34.365  80.454  0.00  0.00     0.040 H 
ATOM     46  H   NAG d 810      -3.333  33.538  80.646  0.00  0.00     0.040 H 
ENDROOT
TORSDOF 11
ENDMDL
MODEL 47
REMARK VINA RESULT:      -6.6      2.823      3.529
REMARK  0 active torsions:
REMARK  status: ('A' for Active; 'I' for Inactive)
REMARK       I    between atoms: C2_1  and  O2_21 
REMARK       I    between atoms: O6_3  and  C6_7 
REMARK       I    between atoms: C1_4  and  O3_17 
REMARK       I    between atoms: O1_5  and  C1_23 
REMARK       I    between atoms: C3_6  and  O3_9 
REMARK       I    between atoms: C6_7  and  C5_22 
REMARK       I    between atoms: C2_8  and  N2_19 
REMARK       I    between atoms: C3_10  and  O3_17 
REMARK       I    between atoms: O4_11  and  C4_15 
REMARK       I    between atoms: C6_16  and  C5_26 
REMARK       I    between atoms: C7_18  and  C8_24 
REMARK       I    between atoms: C7_18  and  N2_19 
ROOT
ATOM      1  C2  GAD d 809      -4.047  34.096  78.083  0.00  0.00     0.111 C 
ATOM      2  O6A GAD d 809      -4.519  36.126  82.998  0.00  0.00    -0.642 OA
ATOM      3  C1  GAD d 809      -3.079  35.159  78.626  0.00  0.00     0.165 C 
ATOM      4  C3  GAD d 809      -5.296  33.998  78.959  0.00  0.00     0.084 C 
ATOM      5  O3  GAD d 809      -5.701  32.622  79.100  0.00  0.00    -0.389 OA
ATOM      6  C4  GAD d 809      -5.183  34.839  80.269  0.00  0.00    -0.034 C 
ATOM      7  O5  GAD d 809      -2.874  34.679  79.976  0.00  0.00    -0.311 OA
ATOM      8  C6  GAD d 809      -3.646  35.645  82.196  0.00  0.00     0.233 C 
ATOM      9  O6B GAD d 809      -2.406  35.573  82.417  0.00  0.00    -0.642 OA
ATOM     10  O2  GAD d 809      -4.511  34.416  76.794  0.00  0.00    -0.388 OA
ATOM     11  C5  GAD d 809      -3.981  35.033  80.825  0.00  0.00     0.147 C 
ATOM     12  H   GAD d 809      -3.494  33.180  78.072  0.00  0.00     0.095 H 
ATOM     13  H   GAD d 809      -3.356  36.186  78.747  0.00  0.00     0.134 H 
ATOM     14  H   GAD d 809      -6.119  34.473  78.468  0.00  0.00     0.093 H 
ATOM     15  H   GAD d 809      -4.997  32.121  79.542  0.00  0.00     0.210 HD
ATOM     16  H   GAD d 809      -6.028  35.243  80.703  0.00  0.00     0.085 H 
ATOM     17  H   GAD d 809      -5.009  35.248  76.826  0.00  0.00     0.210 HD
ATOM     18  O6  NAG d 810       3.280  38.286  77.975  0.00  0.00    -0.398 OA
ATOM     19  O1  NAG d 810      -0.777  39.864  75.854  0.00  0.00    -0.369 OA
ATOM     20  C6  NAG d 810       2.513  37.130  77.994  0.00  0.00     0.043 C 
ATOM     21  C2  NAG d 810      -1.437  37.646  76.673  0.00  0.00     0.087 C 
ATOM     22  C3  NAG d 810      -1.288  36.721  77.855  0.00  0.00     0.093 C 
ATOM     23  O4  NAG d 810       0.419  35.406  78.972  0.00  0.00    -0.390 OA
ATOM     24  O5  NAG d 810       0.803  38.513  76.969  0.00  0.00    -0.349 OA
ATOM     25  C4  NAG d 810       0.187  36.343  77.922  0.00  0.00     0.089 C 
ATOM     26  O3  NAG d 810      -2.165  35.586  77.732  0.00  0.00    -0.348 OA
ATOM     27  C7  NAG d 810      -3.594  37.477  75.562  0.00  0.00     0.214 C 
ATOM     28  N2  NAG d 810      -2.831  37.963  76.531  0.00  0.00    -0.349 N 
ATOM     29  C5  NAG d 810       1.061  37.611  78.047  0.00  0.00     0.089 C 
ATOM     30  C1  NAG d 810      -0.574  38.911  76.901  0.00  0.00     0.151 C 
ATOM     31  C8  NAG d 810      -5.092  37.660  75.747  0.00  0.00    -0.003 C 
ATOM     32  O7  NAG d 810      -3.103  36.936  74.584  0.00  0.00    -0.274 OA
ATOM     33  H   NAG d 810       4.220  38.049  77.941  0.00  0.00     0.209 HD
ATOM     34  H   NAG d 810      -1.712  40.119  75.825  0.00  0.00     0.212 HD
ATOM     35  H   NAG d 810       2.744  36.540  78.855  0.00  0.00     0.078 H 
ATOM     36  H   NAG d 810       2.698  36.514  77.138  0.00  0.00     0.078 H 
ATOM     37  H   NAG d 810      -1.097  37.186  75.769  0.00  0.00     0.084 H 
ATOM     38  H   NAG d 810      -1.578  37.192  78.771  0.00  0.00     0.091 H 
ATOM     39  H   NAG d 810      -0.152  34.632  78.847  0.00  0.00     0.210 HD
ATOM     40  H   NAG d 810       0.468  35.857  77.012  0.00  0.00     0.091 H 
ATOM     41  H   NAG d 810      -3.241  38.572  77.186  0.00  0.00     0.163 HD
ATOM     42  H   NAG d 810       0.849  38.137  78.954  0.00  0.00     0.090 H 
ATOM     43  H   NAG d 810      -0.861  39.382  77.817  0.00  0.00     0.132 H 
ATOM     44  H   NAG d 810      -5.277  38.158  76.676  0.00  0.00     0.040 H 
ATOM     45  H   NAG d 810      -5.570  36.703  75.754  0.00  0.00     0.040 H 
ATOM     46  H   NAG d 810      -5.481  38.249  74.943  0.00  0.00     0.040 H 
ENDROOT
TORSDOF 11
ENDMDL
MODEL 48
REMARK VINA RESULT:      -6.6      3.505      7.486
REMARK  0 active torsions:
REMARK  status: ('A' for Active; 'I' for Inactive)
REMARK       I    between atoms: C2_1  and  O2_21 
REMARK       I    between atoms: O6_3  and  C6_7 
REMARK       I    between atoms: C1_4  and  O3_17 
REMARK       I    between atoms: O1_5  and  C1_23 
REMARK       I    between atoms: C3_6  and  O3_9 
REMARK       I    between atoms: C6_7  and  C5_22 
REMARK       I    between atoms: C2_8  and  N2_19 
REMARK       I    between atoms: C3_10  and  O3_17 
REMARK       I    between atoms: O4_11  and  C4_15 
REMARK       I    between atoms: C6_16  and  C5_26 
REMARK       I    between atoms: C7_18  and  C8_24 
REMARK       I    between atoms: C7_18  and  N2_19 
ROOT
ATOM      1  C2  GAD d 809      -5.792  39.693  78.379  0.00  0.00     0.111 C 
ATOM      2  O6A GAD d 809      -2.083  36.848  75.800  0.00  0.00    -0.642 OA
ATOM      3  C1  GAD d 809      -5.711  38.163  78.491  0.00  0.00     0.165 C 
ATOM      4  C3  GAD d 809      -4.953  40.200  77.206  0.00  0.00     0.084 C 
ATOM      5  O3  GAD d 809      -4.281  41.423  77.563  0.00  0.00    -0.389 OA
ATOM      6  C4  GAD d 809      -4.083  39.078  76.556  0.00  0.00    -0.034 C 
ATOM      7  O5  GAD d 809      -4.280  37.971  78.601  0.00  0.00    -0.311 OA
ATOM      8  C6  GAD d 809      -2.626  36.969  76.953  0.00  0.00     0.233 C 
ATOM      9  O6B GAD d 809      -2.390  36.242  77.956  0.00  0.00    -0.642 OA
ATOM     10  O2  GAD d 809      -7.104  40.134  78.127  0.00  0.00    -0.388 OA
ATOM     11  C5  GAD d 809      -3.644  38.065  77.313  0.00  0.00     0.147 C 
ATOM     12  H   GAD d 809      -5.437  40.071  79.315  0.00  0.00     0.095 H 
ATOM     13  H   GAD d 809      -6.007  37.508  77.698  0.00  0.00     0.134 H 
ATOM     14  H   GAD d 809      -5.596  40.471  76.394  0.00  0.00     0.093 H 
ATOM     15  H   GAD d 809      -3.673  41.255  78.301  0.00  0.00     0.210 HD
ATOM     16  H   GAD d 809      -3.847  39.117  75.552  0.00  0.00     0.085 H 
ATOM     17  H   GAD d 809      -7.405  39.781  77.275  0.00  0.00     0.210 HD
ATOM     18  O6  NAG d 810      -7.521  32.375  82.214  0.00  0.00    -0.398 OA
ATOM     19  O1  NAG d 810     -10.110  34.192  78.547  0.00  0.00    -0.369 OA
ATOM     20  C6  NAG d 810      -7.050  33.680  82.187  0.00  0.00     0.043 C 
ATOM     21  C2  NAG d 810      -8.482  35.978  78.981  0.00  0.00     0.087 C 
ATOM     22  C3  NAG d 810      -7.030  36.209  79.317  0.00  0.00     0.093 C 
ATOM     23  O4  NAG d 810      -5.477  35.863  81.150  0.00  0.00    -0.390 OA
ATOM     24  O5  NAG d 810      -8.544  33.947  80.295  0.00  0.00    -0.349 OA
ATOM     25  C4  NAG d 810      -6.813  35.628  80.709  0.00  0.00     0.089 C 
ATOM     26  O3  NAG d 810      -6.696  37.606  79.222  0.00  0.00    -0.348 OA
ATOM     27  C7  NAG d 810      -9.443  37.698  77.556  0.00  0.00     0.214 C 
ATOM     28  N2  NAG d 810      -8.743  36.583  77.704  0.00  0.00    -0.349 N 
ATOM     29  C5  NAG d 810      -7.197  34.131  80.732  0.00  0.00     0.089 C 
ATOM     30  C1  NAG d 810      -8.770  34.457  78.973  0.00  0.00     0.151 C 
ATOM     31  C8  NAG d 810      -9.351  38.358  76.189  0.00  0.00    -0.003 C 
ATOM     32  O7  NAG d 810     -10.125  38.141  78.467  0.00  0.00    -0.274 OA
ATOM     33  H   NAG d 810      -7.456  32.027  83.117  0.00  0.00     0.209 HD
ATOM     34  H   NAG d 810     -10.240  34.544  77.653  0.00  0.00     0.212 HD
ATOM     35  H   NAG d 810      -6.024  33.715  82.489  0.00  0.00     0.078 H 
ATOM     36  H   NAG d 810      -7.591  34.314  82.859  0.00  0.00     0.078 H 
ATOM     37  H   NAG d 810      -9.129  36.422  79.709  0.00  0.00     0.084 H 
ATOM     38  H   NAG d 810      -6.377  35.724  78.622  0.00  0.00     0.091 H 
ATOM     39  H   NAG d 810      -5.288  36.813  81.117  0.00  0.00     0.210 HD
ATOM     40  H   NAG d 810      -7.455  36.127  81.404  0.00  0.00     0.091 H 
ATOM     41  H   NAG d 810      -8.384  36.146  76.899  0.00  0.00     0.163 HD
ATOM     42  H   NAG d 810      -6.572  33.563  80.075  0.00  0.00     0.090 H 
ATOM     43  H   NAG d 810      -8.116  33.970  78.280  0.00  0.00     0.132 H 
ATOM     44  H   NAG d 810      -8.696  37.789  75.563  0.00  0.00     0.040 H 
ATOM     45  H   NAG d 810      -8.969  39.351  76.298  0.00  0.00     0.040 H 
ATOM     46  H   NAG d 810     -10.325  38.397  75.746  0.00  0.00     0.040 H 
ENDROOT
TORSDOF 11
ENDMDL
MODEL 49
REMARK VINA RESULT:      -6.6      2.983      5.705
REMARK  0 active torsions:
REMARK  status: ('A' for Active; 'I' for Inactive)
REMARK       I    between atoms: C2_1  and  O2_21 
REMARK       I    between atoms: O6_3  and  C6_7 
REMARK       I    between atoms: C1_4  and  O3_17 
REMARK       I    between atoms: O1_5  and  C1_23 
REMARK       I    between atoms: C3_6  and  O3_9 
REMARK       I    between atoms: C6_7  and  C5_22 
REMARK       I    between atoms: C2_8  and  N2_19 
REMARK       I    between atoms: C3_10  and  O3_17 
REMARK       I    between atoms: O4_11  and  C4_15 
REMARK       I    between atoms: C6_16  and  C5_26 
REMARK       I    between atoms: C7_18  and  C8_24 
REMARK       I    between atoms: C7_18  and  N2_19 
ROOT
ATOM      1  C2  GAD d 809      -0.556  34.889  76.644  0.00  0.00     0.111 C 
ATOM      2  O6A GAD d 809       0.311  35.430  81.885  0.00  0.00    -0.642 OA
ATOM      3  C1  GAD d 809      -1.220  35.999  77.474  0.00  0.00     0.165 C 
ATOM      4  C3  GAD d 809       0.044  33.815  77.552  0.00  0.00     0.084 C 
ATOM      5  O3  GAD d 809       1.306  33.363  77.026  0.00  0.00    -0.389 OA
ATOM      6  C4  GAD d 809       0.008  34.211  79.062  0.00  0.00    -0.034 C 
ATOM      7  O5  GAD d 809      -0.114  36.417  78.310  0.00  0.00    -0.311 OA
ATOM      8  C6  GAD d 809       0.261  36.114  80.805  0.00  0.00     0.233 C 
ATOM      9  O6B GAD d 809       0.381  37.367  80.724  0.00  0.00    -0.642 OA
ATOM     10  O2  GAD d 809      -1.481  34.221  75.823  0.00  0.00    -0.388 OA
ATOM     11  C5  GAD d 809       0.079  35.503  79.405  0.00  0.00     0.147 C 
ATOM     12  H   GAD d 809       0.193  35.377  76.056  0.00  0.00     0.095 H 
ATOM     13  H   GAD d 809      -2.018  35.810  78.162  0.00  0.00     0.134 H 
ATOM     14  H   GAD d 809      -0.581  32.946  77.542  0.00  0.00     0.093 H 
ATOM     15  H   GAD d 809       1.932  34.104  77.004  0.00  0.00     0.210 HD
ATOM     16  H   GAD d 809      -0.071  33.483  79.789  0.00  0.00     0.085 H 
ATOM     17  H   GAD d 809      -2.149  33.786  76.376  0.00  0.00     0.210 HD
ATOM     18  O6  NAG d 810      -4.510  42.309  77.396  0.00  0.00    -0.398 OA
ATOM     19  O1  NAG d 810      -6.779  38.036  77.199  0.00  0.00    -0.369 OA
ATOM     20  C6  NAG d 810      -3.482  41.492  76.949  0.00  0.00     0.043 C 
ATOM     21  C2  NAG d 810      -4.433  37.405  76.844  0.00  0.00     0.087 C 
ATOM     22  C3  NAG d 810      -3.034  37.710  77.318  0.00  0.00     0.093 C 
ATOM     23  O4  NAG d 810      -1.407  39.511  77.248  0.00  0.00    -0.390 OA
ATOM     24  O5  NAG d 810      -5.117  39.709  77.132  0.00  0.00    -0.349 OA
ATOM     25  C4  NAG d 810      -2.744  39.149  76.906  0.00  0.00     0.089 C 
ATOM     26  O3  NAG d 810      -2.092  36.762  76.785  0.00  0.00    -0.348 OA
ATOM     27  C7  NAG d 810      -4.772  35.078  76.227  0.00  0.00     0.214 C 
ATOM     28  N2  NAG d 810      -4.714  36.030  77.147  0.00  0.00    -0.349 N 
ATOM     29  C5  NAG d 810      -3.797  40.104  77.511  0.00  0.00     0.089 C 
ATOM     30  C1  NAG d 810      -5.429  38.368  77.536  0.00  0.00     0.151 C 
ATOM     31  C8  NAG d 810      -4.763  33.651  76.752  0.00  0.00    -0.003 C 
ATOM     32  O7  NAG d 810      -4.846  35.352  75.040  0.00  0.00    -0.274 OA
ATOM     33  H   NAG d 810      -4.369  43.212  77.072  0.00  0.00     0.209 HD
ATOM     34  H   NAG d 810      -6.968  37.127  77.480  0.00  0.00     0.212 HD
ATOM     35  H   NAG d 810      -2.539  41.839  77.316  0.00  0.00     0.078 H 
ATOM     36  H   NAG d 810      -3.414  41.484  75.881  0.00  0.00     0.078 H 
ATOM     37  H   NAG d 810      -4.530  37.550  75.788  0.00  0.00     0.084 H 
ATOM     38  H   NAG d 810      -2.942  37.619  78.380  0.00  0.00     0.091 H 
ATOM     39  H   NAG d 810      -0.788  38.883  76.845  0.00  0.00     0.210 HD
ATOM     40  H   NAG d 810      -2.819  39.233  75.842  0.00  0.00     0.091 H 
ATOM     41  H   NAG d 810      -4.870  35.781  78.087  0.00  0.00     0.163 HD
ATOM     42  H   NAG d 810      -3.760  40.090  78.580  0.00  0.00     0.090 H 
ATOM     43  H   NAG d 810      -5.337  38.278  78.598  0.00  0.00     0.132 H 
ATOM     44  H   NAG d 810      -4.692  33.665  77.819  0.00  0.00     0.040 H 
ATOM     45  H   NAG d 810      -3.924  33.127  76.345  0.00  0.00     0.040 H 
ATOM     46  H   NAG d 810      -5.668  33.158  76.461  0.00  0.00     0.040 H 
ENDROOT
TORSDOF 11
ENDMDL
MODEL 50
REMARK VINA RESULT:      -6.6      3.684      7.179
REMARK  0 active torsions:
REMARK  status: ('A' for Active; 'I' for Inactive)
REMARK       I    between atoms: C2_1  and  O2_21 
REMARK       I    between atoms: O6_3  and  C6_7 
REMARK       I    between atoms: C1_4  and  O3_17 
REMARK       I    between atoms: O1_5  and  C1_23 
REMARK       I    between atoms: C3_6  and  O3_9 
REMARK       I    between atoms: C6_7  and  C5_22 
REMARK       I    between atoms: C2_8  and  N2_19 
REMARK       I    between atoms: C3_10  and  O3_17 
REMARK       I    between atoms: O4_11  and  C4_15 
REMARK       I    between atoms: C6_16  and  C5_26 
REMARK       I    between atoms: C7_18  and  C8_24 
REMARK       I    between atoms: C7_18  and  N2_19 
ROOT
ATOM      1  C2  GAD d 809       0.019  33.919  77.273  0.00  0.00     0.111 C 
ATOM      2  O6A GAD d 809       2.882  38.209  78.652  0.00  0.00    -0.642 OA
ATOM      3  C1  GAD d 809      -0.634  35.196  77.825  0.00  0.00     0.165 C 
ATOM      4  C3  GAD d 809       1.528  33.927  77.521  0.00  0.00     0.084 C 
ATOM      5  O3  GAD d 809       2.224  33.383  76.383  0.00  0.00    -0.389 OA
ATOM      6  C4  GAD d 809       2.041  35.292  78.078  0.00  0.00    -0.034 C 
ATOM      7  O5  GAD d 809       0.120  36.214  77.126  0.00  0.00    -0.311 OA
ATOM      8  C6  GAD d 809       1.833  37.876  77.998  0.00  0.00     0.233 C 
ATOM      9  O6B GAD d 809       1.026  38.675  77.449  0.00  0.00    -0.642 OA
ATOM     10  O2  GAD d 809      -0.465  32.762  77.911  0.00  0.00    -0.388 OA
ATOM     11  C5  GAD d 809       1.405  36.421  77.742  0.00  0.00     0.147 C 
ATOM     12  H   GAD d 809      -0.214  33.903  76.229  0.00  0.00     0.095 H 
ATOM     13  H   GAD d 809      -0.573  35.478  78.855  0.00  0.00     0.134 H 
ATOM     14  H   GAD d 809       1.764  33.263  78.326  0.00  0.00     0.093 H 
ATOM     15  H   GAD d 809       2.056  33.939  75.605  0.00  0.00     0.210 HD
ATOM     16  H   GAD d 809       2.863  35.324  78.700  0.00  0.00     0.085 H 
ATOM     17  H   GAD d 809      -0.243  32.796  78.854  0.00  0.00     0.210 HD
ATOM     18  O6  NAG d 810      -6.607  39.010  78.468  0.00  0.00    -0.398 OA
ATOM     19  O1  NAG d 810      -5.095  35.727  81.691  0.00  0.00    -0.369 OA
ATOM     20  C6  NAG d 810      -5.753  38.251  77.681  0.00  0.00     0.043 C 
ATOM     21  C2  NAG d 810      -3.612  35.313  79.779  0.00  0.00     0.087 C 
ATOM     22  C3  NAG d 810      -2.817  36.026  78.713  0.00  0.00     0.093 C 
ATOM     23  O4  NAG d 810      -3.177  37.375  76.727  0.00  0.00    -0.390 OA
ATOM     24  O5  NAG d 810      -5.350  36.996  79.718  0.00  0.00    -0.349 OA
ATOM     25  C4  NAG d 810      -3.831  36.727  77.816  0.00  0.00     0.089 C 
ATOM     26  O3  NAG d 810      -1.967  35.105  78.004  0.00  0.00    -0.348 OA
ATOM     27  C7  NAG d 810      -2.577  33.256  80.561  0.00  0.00     0.214 C 
ATOM     28  N2  NAG d 810      -2.692  34.576  80.599  0.00  0.00    -0.349 N 
ATOM     29  C5  NAG d 810      -4.707  37.691  78.648  0.00  0.00     0.089 C 
ATOM     30  C1  NAG d 810      -4.417  36.352  80.597  0.00  0.00     0.151 C 
ATOM     31  C8  NAG d 810      -1.352  32.680  81.252  0.00  0.00    -0.003 C 
ATOM     32  O7  NAG d 810      -3.423  32.566  80.015  0.00  0.00    -0.274 OA
ATOM     33  H   NAG d 810      -7.301  39.397  77.911  0.00  0.00     0.209 HD
ATOM     34  H   NAG d 810      -4.447  35.299  82.271  0.00  0.00     0.212 HD
ATOM     35  H   NAG d 810      -5.286  38.862  76.937  0.00  0.00     0.078 H 
ATOM     36  H   NAG d 810      -6.273  37.474  77.162  0.00  0.00     0.078 H 
ATOM     37  H   NAG d 810      -4.315  34.628  79.352  0.00  0.00     0.084 H 
ATOM     38  H   NAG d 810      -2.149  36.750  79.129  0.00  0.00     0.091 H 
ATOM     39  H   NAG d 810      -2.643  36.728  76.239  0.00  0.00     0.210 HD
ATOM     40  H   NAG d 810      -4.487  35.998  77.388  0.00  0.00     0.091 H 
ATOM     41  H   NAG d 810      -2.116  35.077  81.222  0.00  0.00     0.163 HD
ATOM     42  H   NAG d 810      -4.116  38.467  79.087  0.00  0.00     0.090 H 
ATOM     43  H   NAG d 810      -3.750  37.078  81.013  0.00  0.00     0.132 H 
ATOM     44  H   NAG d 810      -0.762  33.477  81.653  0.00  0.00     0.040 H 
ATOM     45  H   NAG d 810      -0.771  32.127  80.545  0.00  0.00     0.040 H 
ATOM     46  H   NAG d 810      -1.662  32.031  82.045  0.00  0.00     0.040 H 
ENDROOT
TORSDOF 11
ENDMDL
MODEL 51
REMARK VINA RESULT:      -6.6      3.032      6.100
REMARK  0 active torsions:
REMARK  status: ('A' for Active; 'I' for Inactive)
REMARK       I    between atoms: C2_1  and  O2_21 
REMARK       I    between atoms: O6_3  and  C6_7 
REMARK       I    between atoms: C1_4  and  O3_17 
REMARK       I    between atoms: O1_5  and  C1_23 
REMARK       I    between atoms: C3_6  and  O3_9 
REMARK       I    between atoms: C6_7  and  C5_22 
REMARK       I    between atoms: C2_8  and  N2_19 
REMARK       I    between atoms: C3_10  and  O3_17 
REMARK       I    between atoms: O4_11  and  C4_15 
REMARK       I    between atoms: C6_16  and  C5_26 
REMARK       I    between atoms: C7_18  and  C8_24 
REMARK       I    between atoms: C7_18  and  N2_19 
ROOT
ATOM      1  C2  GAD d 809      -1.148  37.988  76.594  0.00  0.00     0.111 C 
ATOM      2  O6A GAD d 809      -4.289  42.144  77.763  0.00  0.00    -0.642 OA
ATOM      3  C1  GAD d 809      -2.311  37.879  77.592  0.00  0.00     0.165 C 
ATOM      4  C3  GAD d 809      -0.817  39.451  76.300  0.00  0.00     0.084 C 
ATOM      5  O3  GAD d 809      -0.502  39.622  74.904  0.00  0.00    -0.389 OA
ATOM      6  C4  GAD d 809      -1.853  40.442  76.918  0.00  0.00    -0.034 C 
ATOM      7  O5  GAD d 809      -3.335  38.639  76.905  0.00  0.00    -0.311 OA
ATOM      8  C6  GAD d 809      -4.347  40.902  77.458  0.00  0.00     0.233 C 
ATOM      9  O6B GAD d 809      -5.400  40.209  77.403  0.00  0.00    -0.642 OA
ATOM     10  O2  GAD d 809       0.036  37.424  77.102  0.00  0.00    -0.388 OA
ATOM     11  C5  GAD d 809      -3.125  40.054  77.067  0.00  0.00     0.147 C 
ATOM     12  H   GAD d 809      -1.471  37.468  75.716  0.00  0.00     0.095 H 
ATOM     13  H   GAD d 809      -2.275  38.307  78.572  0.00  0.00     0.134 H 
ATOM     14  H   GAD d 809       0.079  39.728  76.815  0.00  0.00     0.093 H 
ATOM     15  H   GAD d 809      -1.276  39.388  74.367  0.00  0.00     0.210 HD
ATOM     16  H   GAD d 809      -1.560  41.387  77.209  0.00  0.00     0.085 H 
ATOM     17  H   GAD d 809       0.311  37.910  77.896  0.00  0.00     0.210 HD
ATOM     18  O6  NAG d 810      -6.789  33.559  81.046  0.00  0.00    -0.398 OA
ATOM     19  O1  NAG d 810      -2.512  35.025  82.782  0.00  0.00    -0.369 OA
ATOM     20  C6  NAG d 810      -6.144  33.921  79.872  0.00  0.00     0.043 C 
ATOM     21  C2  NAG d 810      -2.399  35.731  80.434  0.00  0.00     0.087 C 
ATOM     22  C3  NAG d 810      -3.231  36.342  79.334  0.00  0.00     0.093 C 
ATOM     23  O4  NAG d 810      -5.129  35.789  77.924  0.00  0.00    -0.390 OA
ATOM     24  O5  NAG d 810      -4.313  34.552  81.332  0.00  0.00    -0.349 OA
ATOM     25  C4  NAG d 810      -4.327  35.332  79.011  0.00  0.00     0.089 C 
ATOM     26  O3  NAG d 810      -2.413  36.680  78.198  0.00  0.00    -0.348 OA
ATOM     27  C7  NAG d 810      -0.055  36.372  80.360  0.00  0.00     0.214 C 
ATOM     28  N2  NAG d 810      -1.308  36.623  80.711  0.00  0.00    -0.349 N 
ATOM     29  C5  NAG d 810      -5.155  35.017  80.277  0.00  0.00     0.089 C 
ATOM     30  C1  NAG d 810      -3.290  35.498  81.678  0.00  0.00     0.151 C 
ATOM     31  C8  NAG d 810       0.903  37.550  80.447  0.00  0.00    -0.003 C 
ATOM     32  O7  NAG d 810       0.290  35.256  80.008  0.00  0.00    -0.274 OA
ATOM     33  H   NAG d 810      -7.435  32.861  80.858  0.00  0.00     0.209 HD
ATOM     34  H   NAG d 810      -1.828  35.678  82.999  0.00  0.00     0.212 HD
ATOM     35  H   NAG d 810      -6.847  34.296  79.158  0.00  0.00     0.078 H 
ATOM     36  H   NAG d 810      -5.652  33.089  79.414  0.00  0.00     0.078 H 
ATOM     37  H   NAG d 810      -2.001  34.782  80.143  0.00  0.00     0.084 H 
ATOM     38  H   NAG d 810      -3.676  37.267  79.635  0.00  0.00     0.091 H 
ATOM     39  H   NAG d 810      -4.563  35.972  77.158  0.00  0.00     0.210 HD
ATOM     40  H   NAG d 810      -3.878  34.414  78.694  0.00  0.00     0.091 H 
ATOM     41  H   NAG d 810      -1.501  37.463  81.186  0.00  0.00     0.163 HD
ATOM     42  H   NAG d 810      -5.657  35.891  80.636  0.00  0.00     0.090 H 
ATOM     43  H   NAG d 810      -3.737  36.422  81.980  0.00  0.00     0.132 H 
ATOM     44  H   NAG d 810       0.370  38.418  80.777  0.00  0.00     0.040 H 
ATOM     45  H   NAG d 810       1.327  37.736  79.483  0.00  0.00     0.040 H 
ATOM     46  H   NAG d 810       1.683  37.324  81.144  0.00  0.00     0.040 H 
ENDROOT
TORSDOF 11
ENDMDL
MODEL 52
REMARK VINA RESULT:      -6.6      3.804      7.623
REMARK  0 active torsions:
REMARK  status: ('A' for Active; 'I' for Inactive)
REMARK       I    between atoms: C2_1  and  O2_21 
REMARK       I    between atoms: O6_3  and  C6_7 
REMARK       I    between atoms: C1_4  and  O3_17 
REMARK       I    between atoms: O1_5  and  C1_23 
REMARK       I    between atoms: C3_6  and  O3_9 
REMARK       I    between atoms: C6_7  and  C5_22 
REMARK       I    between atoms: C2_8  and  N2_19 
REMARK       I    between atoms: C3_10  and  O3_17 
REMARK       I    between atoms: O4_11  and  C4_15 
REMARK       I    between atoms: C6_16  and  C5_26 
REMARK       I    between atoms: C7_18  and  C8_24 
REMARK       I    between atoms: C7_18  and  N2_19 
ROOT
ATOM      1  C2  GAD d 809      -4.383  35.679  79.729  0.00  0.00     0.111 C 
ATOM      2  O6A GAD d 809      -0.090  35.472  76.561  0.00  0.00    -0.642 OA
ATOM      3  C1  GAD d 809      -4.485  35.348  78.231  0.00  0.00     0.165 C 
ATOM      4  C3  GAD d 809      -3.013  36.271  80.063  0.00  0.00     0.084 C 
ATOM      5  O3  GAD d 809      -2.548  35.767  81.330  0.00  0.00    -0.389 OA
ATOM      6  C4  GAD d 809      -2.015  36.201  78.865  0.00  0.00    -0.034 C 
ATOM      7  O5  GAD d 809      -3.352  34.462  78.068  0.00  0.00    -0.311 OA
ATOM      8  C6  GAD d 809      -1.153  34.819  76.847  0.00  0.00     0.233 C 
ATOM      9  O6B GAD d 809      -1.541  33.764  76.276  0.00  0.00    -0.642 OA
ATOM     10  O2  GAD d 809      -5.323  36.651  80.118  0.00  0.00    -0.388 OA
ATOM     11  C5  GAD d 809      -2.123  35.206  77.976  0.00  0.00     0.147 C 
ATOM     12  H   GAD d 809      -4.555  34.756  80.242  0.00  0.00     0.095 H 
ATOM     13  H   GAD d 809      -4.360  36.084  77.466  0.00  0.00     0.134 H 
ATOM     14  H   GAD d 809      -3.103  37.327  80.208  0.00  0.00     0.093 H 
ATOM     15  H   GAD d 809      -2.441  34.804  81.276  0.00  0.00     0.210 HD
ATOM     16  H   GAD d 809      -1.279  36.916  78.758  0.00  0.00     0.085 H 
ATOM     17  H   GAD d 809      -5.148  37.478  79.642  0.00  0.00     0.210 HD
ATOM     18  O6  NAG d 810      -8.419  32.481  73.040  0.00  0.00    -0.398 OA
ATOM     19  O1  NAG d 810      -8.514  37.161  74.281  0.00  0.00    -0.369 OA
ATOM     20  C6  NAG d 810      -7.911  32.416  74.330  0.00  0.00     0.043 C 
ATOM     21  C2  NAG d 810      -7.243  36.151  76.123  0.00  0.00     0.087 C 
ATOM     22  C3  NAG d 810      -6.181  35.120  76.411  0.00  0.00     0.093 C 
ATOM     23  O4  NAG d 810      -5.873  32.712  76.348  0.00  0.00    -0.390 OA
ATOM     24  O5  NAG d 810      -8.144  34.830  74.306  0.00  0.00    -0.349 OA
ATOM     25  C4  NAG d 810      -6.782  33.768  76.042  0.00  0.00     0.089 C 
ATOM     26  O3  NAG d 810      -5.747  35.197  77.781  0.00  0.00    -0.348 OA
ATOM     27  C7  NAG d 810      -7.168  38.074  77.609  0.00  0.00     0.214 C 
ATOM     28  N2  NAG d 810      -6.739  37.433  76.532  0.00  0.00    -0.349 N 
ATOM     29  C5  NAG d 810      -7.227  33.765  74.562  0.00  0.00     0.089 C 
ATOM     30  C1  NAG d 810      -7.593  36.119  74.615  0.00  0.00     0.151 C 
ATOM     31  C8  NAG d 810      -6.315  39.248  78.062  0.00  0.00    -0.003 C 
ATOM     32  O7  NAG d 810      -8.196  37.738  78.176  0.00  0.00    -0.274 OA
ATOM     33  H   NAG d 810      -8.869  31.648  72.828  0.00  0.00     0.209 HD
ATOM     34  H   NAG d 810      -8.122  38.021  74.498  0.00  0.00     0.212 HD
ATOM     35  H   NAG d 810      -7.204  31.618  74.416  0.00  0.00     0.078 H 
ATOM     36  H   NAG d 810      -8.679  32.228  75.052  0.00  0.00     0.078 H 
ATOM     37  H   NAG d 810      -8.143  35.949  76.664  0.00  0.00     0.084 H 
ATOM     38  H   NAG d 810      -5.295  35.285  75.834  0.00  0.00     0.091 H 
ATOM     39  H   NAG d 810      -5.626  32.759  77.285  0.00  0.00     0.210 HD
ATOM     40  H   NAG d 810      -7.657  33.598  76.633  0.00  0.00     0.091 H 
ATOM     41  H   NAG d 810      -6.038  37.855  75.985  0.00  0.00     0.163 HD
ATOM     42  H   NAG d 810      -6.392  33.905  73.908  0.00  0.00     0.090 H 
ATOM     43  H   NAG d 810      -6.708  36.283  74.037  0.00  0.00     0.132 H 
ATOM     44  H   NAG d 810      -5.470  39.346  77.412  0.00  0.00     0.040 H 
ATOM     45  H   NAG d 810      -5.977  39.078  79.063  0.00  0.00     0.040 H 
ATOM     46  H   NAG d 810      -6.896  40.146  78.028  0.00  0.00     0.040 H 
ENDROOT
TORSDOF 11
ENDMDL
MODEL 53
REMARK VINA RESULT:      -6.6      2.728      7.168
REMARK  0 active torsions:
REMARK  status: ('A' for Active; 'I' for Inactive)
REMARK       I    between atoms: C2_1  and  O2_21 
REMARK       I    between atoms: O6_3  and  C6_7 
REMARK       I    between atoms: C1_4  and  O3_17 
REMARK       I    between atoms: O1_5  and  C1_23 
REMARK       I    between atoms: C3_6  and  O3_9 
REMARK       I    between atoms: C6_7  and  C5_22 
REMARK       I    between atoms: C2_8  and  N2_19 
REMARK       I    between atoms: C3_10  and  O3_17 
REMARK       I    between atoms: O4_11  and  C4_15 
REMARK       I    between atoms: C6_16  and  C5_26 
REMARK       I    between atoms: C7_18  and  C8_24 
REMARK       I    between atoms: C7_18  and  N2_19 
ROOT
ATOM      1  C2  GAD d 809       1.186  37.023  78.141  0.00  0.00     0.111 C 
ATOM      2  O6A GAD d 809      -1.006  41.858  77.568  0.00  0.00    -0.642 OA
ATOM      3  C1  GAD d 809      -0.325  37.218  77.939  0.00  0.00     0.165 C 
ATOM      4  C3  GAD d 809       1.862  38.344  78.508  0.00  0.00     0.084 C 
ATOM      5  O3  GAD d 809       3.140  38.451  77.852  0.00  0.00    -0.389 OA
ATOM      6  C4  GAD d 809       0.901  39.569  78.388  0.00  0.00    -0.034 C 
ATOM      7  O5  GAD d 809      -0.335  38.244  76.917  0.00  0.00    -0.311 OA
ATOM      8  C6  GAD d 809      -1.020  40.687  77.051  0.00  0.00     0.233 C 
ATOM      9  O6B GAD d 809      -1.766  40.311  76.106  0.00  0.00    -0.642 OA
ATOM     10  O2  GAD d 809       1.465  36.144  79.204  0.00  0.00    -0.388 OA
ATOM     11  C5  GAD d 809      -0.088  39.543  77.486  0.00  0.00     0.147 C 
ATOM     12  H   GAD d 809       1.553  36.630  77.216  0.00  0.00     0.095 H 
ATOM     13  H   GAD d 809      -0.967  37.599  78.705  0.00  0.00     0.134 H 
ATOM     14  H   GAD d 809       2.092  38.353  79.553  0.00  0.00     0.093 H 
ATOM     15  H   GAD d 809       3.011  38.450  76.890  0.00  0.00     0.210 HD
ATOM     16  H   GAD d 809       1.026  40.391  78.998  0.00  0.00     0.085 H 
ATOM     17  H   GAD d 809       1.125  36.519  80.031  0.00  0.00     0.210 HD
ATOM     18  O6  NAG d 810      -6.498  34.227  76.044  0.00  0.00    -0.398 OA
ATOM     19  O1  NAG d 810      -4.831  34.423  80.587  0.00  0.00    -0.369 OA
ATOM     20  C6  NAG d 810      -5.144  34.422  75.814  0.00  0.00     0.043 C 
ATOM     21  C2  NAG d 810      -2.876  35.119  79.276  0.00  0.00     0.087 C 
ATOM     22  C3  NAG d 810      -2.477  35.958  78.087  0.00  0.00     0.093 C 
ATOM     23  O4  NAG d 810      -2.721  35.978  75.671  0.00  0.00    -0.390 OA
ATOM     24  O5  NAG d 810      -4.968  34.494  78.232  0.00  0.00    -0.349 OA
ATOM     25  C4  NAG d 810      -3.102  35.295  76.864  0.00  0.00     0.089 C 
ATOM     26  O3  NAG d 810      -1.046  36.081  78.001  0.00  0.00    -0.348 OA
ATOM     27  C7  NAG d 810      -1.217  35.091  81.054  0.00  0.00     0.214 C 
ATOM     28  N2  NAG d 810      -2.239  35.670  80.439  0.00  0.00    -0.349 N 
ATOM     29  C5  NAG d 810      -4.635  35.194  77.033  0.00  0.00     0.089 C 
ATOM     30  C1  NAG d 810      -4.418  35.114  79.404  0.00  0.00     0.151 C 
ATOM     31  C8  NAG d 810      -0.476  35.958  82.059  0.00  0.00    -0.003 C 
ATOM     32  O7  NAG d 810      -0.919  33.931  80.825  0.00  0.00    -0.274 OA
ATOM     33  H   NAG d 810      -6.885  33.737  75.302  0.00  0.00     0.209 HD
ATOM     34  H   NAG d 810      -4.449  34.857  81.365  0.00  0.00     0.212 HD
ATOM     35  H   NAG d 810      -4.993  34.990  74.920  0.00  0.00     0.078 H 
ATOM     36  H   NAG d 810      -4.624  33.495  75.683  0.00  0.00     0.078 H 
ATOM     37  H   NAG d 810      -2.561  34.103  79.162  0.00  0.00     0.084 H 
ATOM     38  H   NAG d 810      -2.834  36.963  78.168  0.00  0.00     0.091 H 
ATOM     39  H   NAG d 810      -1.753  36.013  75.614  0.00  0.00     0.210 HD
ATOM     40  H   NAG d 810      -2.730  34.296  76.775  0.00  0.00     0.091 H 
ATOM     41  H   NAG d 810      -2.579  36.521  80.799  0.00  0.00     0.163 HD
ATOM     42  H   NAG d 810      -5.079  36.165  77.102  0.00  0.00     0.090 H 
ATOM     43  H   NAG d 810      -4.776  36.119  79.484  0.00  0.00     0.132 H 
ATOM     44  H   NAG d 810      -0.919  36.932  82.085  0.00  0.00     0.040 H 
ATOM     45  H   NAG d 810       0.551  36.040  81.770  0.00  0.00     0.040 H 
ATOM     46  H   NAG d 810      -0.539  35.511  83.030  0.00  0.00     0.040 H 
ENDROOT
TORSDOF 11
ENDMDL
MODEL 54
REMARK VINA RESULT:      -6.5      2.740      7.636
REMARK  0 active torsions:
REMARK  status: ('A' for Active; 'I' for Inactive)
REMARK       I    between atoms: C2_1  and  O2_21 
REMARK       I    between atoms: O6_3  and  C6_7 
REMARK       I    between atoms: C1_4  and  O3_17 
REMARK       I    between atoms: O1_5  and  C1_23 
REMARK       I    between atoms: C3_6  and  O3_9 
REMARK       I    between atoms: C6_7  and  C5_22 
REMARK       I    between atoms: C2_8  and  N2_19 
REMARK       I    between atoms: C3_10  and  O3_17 
REMARK       I    between atoms: O4_11  and  C4_15 
REMARK       I    between atoms: C6_16  and  C5_26 
REMARK       I    between atoms: C7_18  and  C8_24 
REMARK       I    between atoms: C7_18  and  N2_19 
ROOT
ATOM      1  C2  GAD d 809      -3.863  38.466  77.517  0.00  0.00     0.111 C 
ATOM      2  O6A GAD d 809      -2.684  40.274  72.633  0.00  0.00    -0.642 OA
ATOM      3  C1  GAD d 809      -4.505  37.879  76.250  0.00  0.00     0.165 C 
ATOM      4  C3  GAD d 809      -3.178  39.799  77.214  0.00  0.00     0.084 C 
ATOM      5  O3  GAD d 809      -1.939  39.901  77.942  0.00  0.00    -0.389 OA
ATOM      6  C4  GAD d 809      -3.130  40.120  75.687  0.00  0.00    -0.034 C 
ATOM      7  O5  GAD d 809      -3.361  37.821  75.365  0.00  0.00    -0.311 OA
ATOM      8  C6  GAD d 809      -2.821  39.183  73.289  0.00  0.00     0.233 C 
ATOM      9  O6B GAD d 809      -2.741  38.021  72.804  0.00  0.00    -0.642 OA
ATOM     10  O2  GAD d 809      -4.820  38.747  78.510  0.00  0.00    -0.388 OA
ATOM     11  C5  GAD d 809      -3.073  39.115  74.805  0.00  0.00     0.147 C 
ATOM     12  H   GAD d 809      -3.167  37.729  77.857  0.00  0.00     0.095 H 
ATOM     13  H   GAD d 809      -5.252  38.398  75.686  0.00  0.00     0.134 H 
ATOM     14  H   GAD d 809      -3.778  40.604  77.584  0.00  0.00     0.093 H 
ATOM     15  H   GAD d 809      -1.337  39.196  77.656  0.00  0.00     0.210 HD
ATOM     16  H   GAD d 809      -3.142  41.099  75.360  0.00  0.00     0.085 H 
ATOM     17  H   GAD d 809      -5.439  39.417  78.182  0.00  0.00     0.210 HD
ATOM     18  O6  NAG d 810      -7.968  32.381  73.348  0.00  0.00    -0.398 OA
ATOM     19  O1  NAG d 810     -10.125  36.233  75.340  0.00  0.00    -0.369 OA
ATOM     20  C6  NAG d 810      -6.948  32.858  74.159  0.00  0.00     0.043 C 
ATOM     21  C2  NAG d 810      -7.789  36.513  76.042  0.00  0.00     0.087 C 
ATOM     22  C3  NAG d 810      -6.372  36.378  75.543  0.00  0.00     0.093 C 
ATOM     23  O4  NAG d 810      -4.804  34.651  74.869  0.00  0.00    -0.390 OA
ATOM     24  O5  NAG d 810      -8.518  34.619  74.723  0.00  0.00    -0.349 OA
ATOM     25  C4  NAG d 810      -6.149  34.893  75.279  0.00  0.00     0.089 C 
ATOM     26  O3  NAG d 810      -5.440  36.937  76.486  0.00  0.00    -0.348 OA
ATOM     27  C7  NAG d 810      -8.101  38.336  77.621  0.00  0.00     0.214 C 
ATOM     28  N2  NAG d 810      -8.012  37.893  76.375  0.00  0.00    -0.349 N 
ATOM     29  C5  NAG d 810      -7.189  34.366  74.265  0.00  0.00     0.089 C 
ATOM     30  C1  NAG d 810      -8.766  36.014  74.950  0.00  0.00     0.151 C 
ATOM     31  C8  NAG d 810      -8.019  39.844  77.792  0.00  0.00    -0.003 C 
ATOM     32  O7  NAG d 810      -8.257  37.565  78.555  0.00  0.00    -0.274 OA
ATOM     33  H   NAG d 810      -7.873  31.422  73.240  0.00  0.00     0.209 HD
ATOM     34  H   NAG d 810     -10.271  37.180  75.488  0.00  0.00     0.212 HD
ATOM     35  H   NAG d 810      -5.994  32.661  73.716  0.00  0.00     0.078 H 
ATOM     36  H   NAG d 810      -6.947  32.385  75.119  0.00  0.00     0.078 H 
ATOM     37  H   NAG d 810      -7.956  35.918  76.916  0.00  0.00     0.084 H 
ATOM     38  H   NAG d 810      -6.212  36.928  74.640  0.00  0.00     0.091 H 
ATOM     39  H   NAG d 810      -4.195  34.999  75.538  0.00  0.00     0.210 HD
ATOM     40  H   NAG d 810      -6.294  34.348  76.188  0.00  0.00     0.091 H 
ATOM     41  H   NAG d 810      -8.102  38.542  75.641  0.00  0.00     0.163 HD
ATOM     42  H   NAG d 810      -7.084  34.852  73.318  0.00  0.00     0.090 H 
ATOM     43  H   NAG d 810      -8.606  36.563  74.045  0.00  0.00     0.132 H 
ATOM     44  H   NAG d 810      -7.882  40.304  76.836  0.00  0.00     0.040 H 
ATOM     45  H   NAG d 810      -7.193  40.087  78.426  0.00  0.00     0.040 H 
ATOM     46  H   NAG d 810      -8.926  40.203  78.233  0.00  0.00     0.040 H 
ENDROOT
TORSDOF 11
ENDMDL
MODEL 55
REMARK VINA RESULT:      -6.5      2.975      7.157
REMARK  0 active torsions:
REMARK  status: ('A' for Active; 'I' for Inactive)
REMARK       I    between atoms: C2_1  and  O2_21 
REMARK       I    between atoms: O6_3  and  C6_7 
REMARK       I    between atoms: C1_4  and  O3_17 
REMARK       I    between atoms: O1_5  and  C1_23 
REMARK       I    between atoms: C3_6  and  O3_9 
REMARK       I    between atoms: C6_7  and  C5_22 
REMARK       I    between atoms: C2_8  and  N2_19 
REMARK       I    between atoms: C3_10  and  O3_17 
REMARK       I    between atoms: O4_11  and  C4_15 
REMARK       I    between atoms: C6_16  and  C5_26 
REMARK       I    between atoms: C7_18  and  C8_24 
REMARK       I    between atoms: C7_18  and  N2_19 
ROOT
ATOM      1  C2  GAD d 809       0.451  36.054  77.946  0.00  0.00     0.111 C 
ATOM      2  O6A GAD d 809       1.236  41.027  79.723  0.00  0.00    -0.642 OA
ATOM      3  C1  GAD d 809      -0.700  36.927  78.470  0.00  0.00     0.165 C 
ATOM      4  C3  GAD d 809       1.806  36.644  78.339  0.00  0.00     0.084 C 
ATOM      5  O3  GAD d 809       2.747  36.498  77.258  0.00  0.00    -0.389 OA
ATOM      6  C4  GAD d 809       1.684  38.061  78.984  0.00  0.00    -0.034 C 
ATOM      7  O5  GAD d 809      -0.366  38.205  77.878  0.00  0.00    -0.311 OA
ATOM      8  C6  GAD d 809       0.463  40.349  78.960  0.00  0.00     0.233 C 
ATOM      9  O6B GAD d 809      -0.552  40.796  78.360  0.00  0.00    -0.642 OA
ATOM     10  O2  GAD d 809       0.425  34.761  78.500  0.00  0.00    -0.388 OA
ATOM     11  C5  GAD d 809       0.676  38.863  78.621  0.00  0.00     0.147 C 
ATOM     12  H   GAD d 809       0.326  36.016  76.885  0.00  0.00     0.095 H 
ATOM     13  H   GAD d 809      -0.836  37.142  79.509  0.00  0.00     0.134 H 
ATOM     14  H   GAD d 809       2.226  36.077  79.143  0.00  0.00     0.093 H 
ATOM     15  H   GAD d 809       2.431  36.991  76.485  0.00  0.00     0.210 HD
ATOM     16  H   GAD d 809       2.373  38.376  79.684  0.00  0.00     0.085 H 
ATOM     17  H   GAD d 809       0.541  34.818  79.461  0.00  0.00     0.210 HD
ATOM     18  O6  NAG d 810      -7.732  38.004  78.644  0.00  0.00    -0.398 OA
ATOM     19  O1  NAG d 810      -5.282  35.387  81.899  0.00  0.00    -0.369 OA
ATOM     20  C6  NAG d 810      -6.586  37.701  77.922  0.00  0.00     0.043 C 
ATOM     21  C2  NAG d 810      -3.615  35.723  80.129  0.00  0.00     0.087 C 
ATOM     22  C3  NAG d 810      -3.093  36.761  79.167  0.00  0.00     0.093 C 
ATOM     23  O4  NAG d 810      -3.810  37.984  77.195  0.00  0.00    -0.390 OA
ATOM     24  O5  NAG d 810      -5.872  36.577  79.949  0.00  0.00    -0.349 OA
ATOM     25  C4  NAG d 810      -4.231  37.060  78.197  0.00  0.00     0.089 C 
ATOM     26  O3  NAG d 810      -1.893  36.303  78.516  0.00  0.00    -0.348 OA
ATOM     27  C7  NAG d 810      -1.905  34.199  80.946  0.00  0.00     0.214 C 
ATOM     28  N2  NAG d 810      -2.542  35.360  81.012  0.00  0.00    -0.349 N 
ATOM     29  C5  NAG d 810      -5.481  37.539  78.968  0.00  0.00     0.089 C 
ATOM     30  C1  NAG d 810      -4.829  36.300  80.896  0.00  0.00     0.151 C 
ATOM     31  C8  NAG d 810      -0.608  34.113  81.735  0.00  0.00    -0.003 C 
ATOM     32  O7  NAG d 810      -2.357  33.267  80.300  0.00  0.00    -0.274 OA
ATOM     33  H   NAG d 810      -8.477  38.120  78.034  0.00  0.00     0.209 HD
ATOM     34  H   NAG d 810      -4.563  35.214  82.527  0.00  0.00     0.212 HD
ATOM     35  H   NAG d 810      -6.348  38.494  77.244  0.00  0.00     0.078 H 
ATOM     36  H   NAG d 810      -6.710  36.817  77.331  0.00  0.00     0.078 H 
ATOM     37  H   NAG d 810      -3.948  34.845  79.616  0.00  0.00     0.084 H 
ATOM     38  H   NAG d 810      -2.806  37.662  79.667  0.00  0.00     0.091 H 
ATOM     39  H   NAG d 810      -3.026  37.636  76.743  0.00  0.00     0.210 HD
ATOM     40  H   NAG d 810      -4.504  36.160  77.686  0.00  0.00     0.091 H 
ATOM     41  H   NAG d 810      -2.266  36.005  81.702  0.00  0.00     0.163 HD
ATOM     42  H   NAG d 810      -5.287  38.455  79.485  0.00  0.00     0.090 H 
ATOM     43  H   NAG d 810      -4.544  37.202  81.395  0.00  0.00     0.132 H 
ATOM     44  H   NAG d 810      -0.421  35.050  82.215  0.00  0.00     0.040 H 
ATOM     45  H   NAG d 810       0.198  33.884  81.071  0.00  0.00     0.040 H 
ATOM     46  H   NAG d 810      -0.692  33.343  82.475  0.00  0.00     0.040 H 
ENDROOT
TORSDOF 11
ENDMDL
MODEL 56
REMARK VINA RESULT:      -6.5      2.451      4.324
REMARK  0 active torsions:
REMARK  status: ('A' for Active; 'I' for Inactive)
REMARK       I    between atoms: C2_1  and  O2_21 
REMARK       I    between atoms: O6_3  and  C6_7 
REMARK       I    between atoms: C1_4  and  O3_17 
REMARK       I    between atoms: O1_5  and  C1_23 
REMARK       I    between atoms: C3_6  and  O3_9 
REMARK       I    between atoms: C6_7  and  C5_22 
REMARK       I    between atoms: C2_8  and  N2_19 
REMARK       I    between atoms: C3_10  and  O3_17 
REMARK       I    between atoms: O4_11  and  C4_15 
REMARK       I    between atoms: C6_16  and  C5_26 
REMARK       I    between atoms: C7_18  and  C8_24 
REMARK       I    between atoms: C7_18  and  N2_19 
ROOT
ATOM      1  C2  GAD d 809      -4.329  35.454  78.675  0.00  0.00     0.111 C 
ATOM      2  O6A GAD d 809      -6.619  34.824  73.893  0.00  0.00    -0.642 OA
ATOM      3  C1  GAD d 809      -4.416  36.598  77.652  0.00  0.00     0.165 C 
ATOM      4  C3  GAD d 809      -4.634  34.109  78.016  0.00  0.00     0.084 C 
ATOM      5  O3  GAD d 809      -5.419  33.285  78.900  0.00  0.00    -0.389 OA
ATOM      6  C4  GAD d 809      -5.143  34.257  76.548  0.00  0.00    -0.034 C 
ATOM      7  O5  GAD d 809      -5.765  36.422  77.157  0.00  0.00    -0.311 OA
ATOM      8  C6  GAD d 809      -6.590  35.628  74.889  0.00  0.00     0.233 C 
ATOM      9  O6B GAD d 809      -7.196  36.732  74.958  0.00  0.00    -0.642 OA
ATOM     10  O2  GAD d 809      -3.037  35.329  79.217  0.00  0.00    -0.388 OA
ATOM     11  C5  GAD d 809      -5.828  35.352  76.196  0.00  0.00     0.147 C 
ATOM     12  H   GAD d 809      -5.040  35.694  79.438  0.00  0.00     0.095 H 
ATOM     13  H   GAD d 809      -3.811  36.633  76.770  0.00  0.00     0.134 H 
ATOM     14  H   GAD d 809      -3.724  33.564  77.874  0.00  0.00     0.093 H 
ATOM     15  H   GAD d 809      -6.269  33.719  79.076  0.00  0.00     0.210 HD
ATOM     16  H   GAD d 809      -4.954  33.517  75.854  0.00  0.00     0.085 H 
ATOM     17  H   GAD d 809      -2.410  35.111  78.509  0.00  0.00     0.210 HD
ATOM     18  O6  NAG d 810      -4.140  43.625  76.563  0.00  0.00    -0.398 OA
ATOM     19  O1  NAG d 810      -0.331  40.652  76.241  0.00  0.00    -0.369 OA
ATOM     20  C6  NAG d 810      -4.588  42.548  77.315  0.00  0.00     0.043 C 
ATOM     21  C2  NAG d 810      -2.032  39.220  77.279  0.00  0.00     0.087 C 
ATOM     22  C3  NAG d 810      -3.501  38.882  77.219  0.00  0.00     0.093 C 
ATOM     23  O4  NAG d 810      -5.655  39.896  77.695  0.00  0.00    -0.390 OA
ATOM     24  O5  NAG d 810      -2.463  41.537  76.729  0.00  0.00    -0.349 OA
ATOM     25  C4  NAG d 810      -4.250  40.138  77.649  0.00  0.00     0.089 C 
ATOM     26  O3  NAG d 810      -3.798  37.733  78.034  0.00  0.00    -0.348 OA
ATOM     27  C7  NAG d 810      -0.615  37.328  77.851  0.00  0.00     0.214 C 
ATOM     28  N2  NAG d 810      -1.291  38.033  76.955  0.00  0.00    -0.349 N 
ATOM     29  C5  NAG d 810      -3.876  41.325  76.733  0.00  0.00     0.089 C 
ATOM     30  C1  NAG d 810      -1.733  40.379  76.298  0.00  0.00     0.151 C 
ATOM     31  C8  NAG d 810      -0.161  35.949  77.399  0.00  0.00    -0.003 C 
ATOM     32  O7  NAG d 810      -0.369  37.784  78.956  0.00  0.00    -0.274 OA
ATOM     33  H   NAG d 810      -4.558  44.439  76.884  0.00  0.00     0.209 HD
ATOM     34  H   NAG d 810       0.143  39.858  75.948  0.00  0.00     0.212 HD
ATOM     35  H   NAG d 810      -5.649  42.443  77.225  0.00  0.00     0.078 H 
ATOM     36  H   NAG d 810      -4.378  42.675  78.357  0.00  0.00     0.078 H 
ATOM     37  H   NAG d 810      -1.745  39.547  78.257  0.00  0.00     0.084 H 
ATOM     38  H   NAG d 810      -3.808  38.604  76.233  0.00  0.00     0.091 H 
ATOM     39  H   NAG d 810      -5.835  39.145  78.281  0.00  0.00     0.210 HD
ATOM     40  H   NAG d 810      -3.953  40.403  78.642  0.00  0.00     0.091 H 
ATOM     41  H   NAG d 810      -1.285  37.728  76.019  0.00  0.00     0.163 HD
ATOM     42  H   NAG d 810      -4.169  41.139  75.722  0.00  0.00     0.090 H 
ATOM     43  H   NAG d 810      -2.041  40.103  75.311  0.00  0.00     0.132 H 
ATOM     44  H   NAG d 810      -0.495  35.775  76.398  0.00  0.00     0.040 H 
ATOM     45  H   NAG d 810      -0.576  35.207  78.048  0.00  0.00     0.040 H 
ATOM     46  H   NAG d 810       0.908  35.897  77.434  0.00  0.00     0.040 H 
ENDROOT
TORSDOF 11
ENDMDL
MODEL 57
REMARK VINA RESULT:      -6.4      3.434      7.649
REMARK  0 active torsions:
REMARK  status: ('A' for Active; 'I' for Inactive)
REMARK       I    between atoms: C2_1  and  O2_21 
REMARK       I    between atoms: O6_3  and  C6_7 
REMARK       I    between atoms: C1_4  and  O3_17 
REMARK       I    between atoms: O1_5  and  C1_23 
REMARK       I    between atoms: C3_6  and  O3_9 
REMARK       I    between atoms: C6_7  and  C5_22 
REMARK       I    between atoms: C2_8  and  N2_19 
REMARK       I    between atoms: C3_10  and  O3_17 
REMARK       I    between atoms: O4_11  and  C4_15 
REMARK       I    between atoms: C6_16  and  C5_26 
REMARK       I    between atoms: C7_18  and  C8_24 
REMARK       I    between atoms: C7_18  and  N2_19 
ROOT
ATOM      1  C2  GAD d 809       0.757  33.968  79.863  0.00  0.00     0.111 C 
ATOM      2  O6A GAD d 809       3.014  38.711  78.908  0.00  0.00    -0.642 OA
ATOM      3  C1  GAD d 809       0.002  35.107  79.160  0.00  0.00     0.165 C 
ATOM      4  C3  GAD d 809       2.026  34.490  80.537  0.00  0.00     0.084 C 
ATOM      5  O3  GAD d 809       3.101  33.544  80.378  0.00  0.00    -0.389 OA
ATOM      6  C4  GAD d 809       2.334  35.977  80.176  0.00  0.00    -0.034 C 
ATOM      7  O5  GAD d 809       1.031  35.613  78.275  0.00  0.00    -0.311 OA
ATOM      8  C6  GAD d 809       2.314  37.805  78.336  0.00  0.00     0.233 C 
ATOM      9  O6B GAD d 809       1.849  37.866  77.165  0.00  0.00    -0.642 OA
ATOM     10  O2  GAD d 809      -0.008  33.386  80.890  0.00  0.00    -0.388 OA
ATOM     11  C5  GAD d 809       1.954  36.458  78.986  0.00  0.00     0.147 C 
ATOM     12  H   GAD d 809       0.976  33.252  79.099  0.00  0.00     0.095 H 
ATOM     13  H   GAD d 809      -0.353  35.973  79.679  0.00  0.00     0.134 H 
ATOM     14  H   GAD d 809       1.873  34.552  81.594  0.00  0.00     0.093 H 
ATOM     15  H   GAD d 809       3.299  33.434  79.434  0.00  0.00     0.210 HD
ATOM     16  H   GAD d 809       2.826  36.585  80.849  0.00  0.00     0.085 H 
ATOM     17  H   GAD d 809      -0.194  34.051  81.571  0.00  0.00     0.210 HD
ATOM     18  O6  NAG d 810      -5.493  36.920  75.017  0.00  0.00    -0.398 OA
ATOM     19  O1  NAG d 810      -5.623  36.837  79.858  0.00  0.00    -0.369 OA
ATOM     20  C6  NAG d 810      -4.431  36.070  75.290  0.00  0.00     0.043 C 
ATOM     21  C2  NAG d 810      -3.506  35.695  79.366  0.00  0.00     0.087 C 
ATOM     22  C3  NAG d 810      -2.306  35.755  78.455  0.00  0.00     0.093 C 
ATOM     23  O4  NAG d 810      -1.741  35.440  76.115  0.00  0.00    -0.390 OA
ATOM     24  O5  NAG d 810      -4.973  36.496  77.615  0.00  0.00    -0.349 OA
ATOM     25  C4  NAG d 810      -2.820  35.477  77.047  0.00  0.00     0.089 C 
ATOM     26  O3  NAG d 810      -1.288  34.832  78.884  0.00  0.00    -0.348 OA
ATOM     27  C7  NAG d 810      -2.997  34.895  81.605  0.00  0.00     0.214 C 
ATOM     28  N2  NAG d 810      -3.048  35.876  80.715  0.00  0.00    -0.349 N 
ATOM     29  C5  NAG d 810      -3.909  36.503  76.662  0.00  0.00     0.089 C 
ATOM     30  C1  NAG d 810      -4.522  36.786  78.947  0.00  0.00     0.151 C 
ATOM     31  C8  NAG d 810      -2.199  35.189  82.866  0.00  0.00    -0.003 C 
ATOM     32  O7  NAG d 810      -3.576  33.838  81.412  0.00  0.00    -0.274 OA
ATOM     33  H   NAG d 810      -5.873  36.696  74.153  0.00  0.00     0.209 HD
ATOM     34  H   NAG d 810      -5.297  37.034  80.750  0.00  0.00     0.212 HD
ATOM     35  H   NAG d 810      -3.667  36.174  74.548  0.00  0.00     0.078 H 
ATOM     36  H   NAG d 810      -4.730  35.042  75.282  0.00  0.00     0.078 H 
ATOM     37  H   NAG d 810      -4.005  34.751  79.297  0.00  0.00     0.084 H 
ATOM     38  H   NAG d 810      -1.832  36.714  78.479  0.00  0.00     0.091 H 
ATOM     39  H   NAG d 810      -1.088  34.783  76.402  0.00  0.00     0.210 HD
ATOM     40  H   NAG d 810      -3.277  34.511  77.023  0.00  0.00     0.091 H 
ATOM     41  H   NAG d 810      -2.756  36.774  80.993  0.00  0.00     0.163 HD
ATOM     42  H   NAG d 810      -3.512  37.497  76.640  0.00  0.00     0.090 H 
ATOM     43  H   NAG d 810      -4.049  37.746  78.968  0.00  0.00     0.132 H 
ATOM     44  H   NAG d 810      -1.787  36.174  82.805  0.00  0.00     0.040 H 
ATOM     45  H   NAG d 810      -1.408  34.475  82.961  0.00  0.00     0.040 H 
ATOM     46  H   NAG d 810      -2.843  35.123  83.719  0.00  0.00     0.040 H 
ENDROOT
TORSDOF 11
ENDMDL
MODEL 58
REMARK VINA RESULT:      -6.4      3.020      5.665
REMARK  0 active torsions:
REMARK  status: ('A' for Active; 'I' for Inactive)
REMARK       I    between atoms: C2_1  and  O2_21 
REMARK       I    between atoms: O6_3  and  C6_7 
REMARK       I    between atoms: C1_4  and  O3_17 
REMARK       I    between atoms: O1_5  and  C1_23 
REMARK       I    between atoms: C3_6  and  O3_9 
REMARK       I    between atoms: C6_7  and  C5_22 
REMARK       I    between atoms: C2_8  and  N2_19 
REMARK       I    between atoms: C3_10  and  O3_17 
REMARK       I    between atoms: O4_11  and  C4_15 
REMARK       I    between atoms: C6_16  and  C5_26 
REMARK       I    between atoms: C7_18  and  C8_24 
REMARK       I    between atoms: C7_18  and  N2_19 
ROOT
ATOM      1  C2  GAD d 809      -3.760  37.221  75.208  0.00  0.00     0.111 C 
ATOM      2  O6A GAD d 809      -2.952  42.093  77.236  0.00  0.00    -0.642 OA
ATOM      3  C1  GAD d 809      -3.944  37.526  76.703  0.00  0.00     0.165 C 
ATOM      4  C3  GAD d 809      -2.998  38.349  74.511  0.00  0.00     0.084 C 
ATOM      5  O3  GAD d 809      -3.553  38.593  73.204  0.00  0.00    -0.389 OA
ATOM      6  C4  GAD d 809      -2.783  39.591  75.431  0.00  0.00    -0.034 C 
ATOM      7  O5  GAD d 809      -4.618  38.806  76.640  0.00  0.00    -0.311 OA
ATOM      8  C6  GAD d 809      -3.791  41.127  77.262  0.00  0.00     0.233 C 
ATOM      9  O6B GAD d 809      -4.829  41.075  77.977  0.00  0.00    -0.642 OA
ATOM     10  O2  GAD d 809      -2.995  36.059  74.998  0.00  0.00    -0.388 OA
ATOM     11  C5  GAD d 809      -3.684  39.870  76.381  0.00  0.00     0.147 C 
ATOM     12  H   GAD d 809      -4.747  37.103  74.813  0.00  0.00     0.095 H 
ATOM     13  H   GAD d 809      -3.120  37.690  77.366  0.00  0.00     0.134 H 
ATOM     14  H   GAD d 809      -1.991  38.041  74.325  0.00  0.00     0.093 H 
ATOM     15  H   GAD d 809      -4.476  38.879  73.292  0.00  0.00     0.210 HD
ATOM     16  H   GAD d 809      -1.953  40.192  75.309  0.00  0.00     0.085 H 
ATOM     17  H   GAD d 809      -2.105  36.187  75.363  0.00  0.00     0.210 HD
ATOM     18  O6  NAG d 810      -6.833  35.468  82.872  0.00  0.00    -0.398 OA
ATOM     19  O1  NAG d 810      -2.384  34.256  81.393  0.00  0.00    -0.369 OA
ATOM     20  C6  NAG d 810      -6.952  35.668  81.504  0.00  0.00     0.043 C 
ATOM     21  C2  NAG d 810      -3.368  35.229  79.365  0.00  0.00     0.087 C 
ATOM     22  C3  NAG d 810      -4.244  36.363  78.894  0.00  0.00     0.093 C 
ATOM     23  O4  NAG d 810      -6.552  37.102  79.034  0.00  0.00    -0.390 OA
ATOM     24  O5  NAG d 810      -4.616  35.020  81.428  0.00  0.00    -0.349 OA
ATOM     25  C4  NAG d 810      -5.627  36.114  79.484  0.00  0.00     0.089 C 
ATOM     26  O3  NAG d 810      -4.243  36.450  77.457  0.00  0.00    -0.348 OA
ATOM     27  C7  NAG d 810      -1.625  34.616  77.785  0.00  0.00     0.214 C 
ATOM     28  N2  NAG d 810      -2.074  35.389  78.764  0.00  0.00    -0.349 N 
ATOM     29  C5  NAG d 810      -5.544  36.029  81.025  0.00  0.00     0.089 C 
ATOM     30  C1  NAG d 810      -3.297  35.247  80.912  0.00  0.00     0.151 C 
ATOM     31  C8  NAG d 810      -0.385  35.119  77.063  0.00  0.00    -0.003 C 
ATOM     32  O7  NAG d 810      -2.176  33.562  77.510  0.00  0.00    -0.274 OA
ATOM     33  H   NAG d 810      -7.699  35.234  83.241  0.00  0.00     0.209 HD
ATOM     34  H   NAG d 810      -1.500  34.428  81.032  0.00  0.00     0.212 HD
ATOM     35  H   NAG d 810      -7.634  36.467  81.300  0.00  0.00     0.078 H 
ATOM     36  H   NAG d 810      -7.334  34.802  81.005  0.00  0.00     0.078 H 
ATOM     37  H   NAG d 810      -3.766  34.279  79.075  0.00  0.00     0.084 H 
ATOM     38  H   NAG d 810      -3.881  37.314  79.225  0.00  0.00     0.091 H 
ATOM     39  H   NAG d 810      -6.566  37.114  78.064  0.00  0.00     0.210 HD
ATOM     40  H   NAG d 810      -5.994  35.171  79.138  0.00  0.00     0.091 H 
ATOM     41  H   NAG d 810      -1.491  36.109  79.094  0.00  0.00     0.163 HD
ATOM     42  H   NAG d 810      -5.207  36.953  81.445  0.00  0.00     0.090 H 
ATOM     43  H   NAG d 810      -2.935  36.197  81.244  0.00  0.00     0.132 H 
ATOM     44  H   NAG d 810      -0.088  36.059  77.479  0.00  0.00     0.040 H 
ATOM     45  H   NAG d 810      -0.604  35.242  76.023  0.00  0.00     0.040 H 
ATOM     46  H   NAG d 810       0.408  34.410  77.180  0.00  0.00     0.040 H 
ENDROOT
TORSDOF 11
ENDMDL
MODEL 59
REMARK VINA RESULT:      -6.4      2.611      6.088
REMARK  0 active torsions:
REMARK  status: ('A' for Active; 'I' for Inactive)
REMARK       I    between atoms: C2_1  and  O2_21 
REMARK       I    between atoms: O6_3  and  C6_7 
REMARK       I    between atoms: C1_4  and  O3_17 
REMARK       I    between atoms: O1_5  and  C1_23 
REMARK       I    between atoms: C3_6  and  O3_9 
REMARK       I    between atoms: C6_7  and  C5_22 
REMARK       I    between atoms: C2_8  and  N2_19 
REMARK       I    between atoms: C3_10  and  O3_17 
REMARK       I    between atoms: O4_11  and  C4_15 
REMARK       I    between atoms: C6_16  and  C5_26 
REMARK       I    between atoms: C7_18  and  C8_24 
REMARK       I    between atoms: C7_18  and  N2_19 
ROOT
ATOM      1  C2  GAD d 809      -2.924  40.101  77.375  0.00  0.00     0.111 C 
ATOM      2  O6A GAD d 809       2.271  39.124  78.125  0.00  0.00    -0.642 OA
ATOM      3  C1  GAD d 809      -2.403  38.714  77.784  0.00  0.00     0.165 C 
ATOM      4  C3  GAD d 809      -1.782  40.989  76.882  0.00  0.00     0.084 C 
ATOM      5  O3  GAD d 809      -1.963  42.340  77.348  0.00  0.00    -0.389 OA
ATOM      6  C4  GAD d 809      -0.377  40.346  77.105  0.00  0.00    -0.034 C 
ATOM      7  O5  GAD d 809      -1.406  39.076  78.770  0.00  0.00    -0.311 OA
ATOM      8  C6  GAD d 809       1.129  38.929  78.669  0.00  0.00     0.233 C 
ATOM      9  O6B GAD d 809       0.921  38.263  79.720  0.00  0.00    -0.642 OA
ATOM     10  O2  GAD d 809      -3.837  40.026  76.307  0.00  0.00    -0.388 OA
ATOM     11  C5  GAD d 809      -0.190  39.516  78.138  0.00  0.00     0.147 C 
ATOM     12  H   GAD d 809      -3.393  40.502  78.249  0.00  0.00     0.095 H 
ATOM     13  H   GAD d 809      -1.886  38.067  77.106  0.00  0.00     0.134 H 
ATOM     14  H   GAD d 809      -1.818  41.063  75.815  0.00  0.00     0.093 H 
ATOM     15  H   GAD d 809      -1.941  42.354  78.318  0.00  0.00     0.210 HD
ATOM     16  H   GAD d 809       0.401  40.559  76.461  0.00  0.00     0.085 H 
ATOM     17  H   GAD d 809      -3.392  39.660  75.527  0.00  0.00     0.210 HD
ATOM     18  O6  NAG d 810      -3.974  32.375  80.611  0.00  0.00    -0.398 OA
ATOM     19  O1  NAG d 810      -4.124  33.374  75.875  0.00  0.00    -0.369 OA
ATOM     20  C6  NAG d 810      -4.083  33.758  80.642  0.00  0.00     0.043 C 
ATOM     21  C2  NAG d 810      -3.882  35.602  76.877  0.00  0.00     0.087 C 
ATOM     22  C3  NAG d 810      -3.158  36.340  77.976  0.00  0.00     0.093 C 
ATOM     23  O4  NAG d 810      -3.098  36.457  80.400  0.00  0.00    -0.390 OA
ATOM     24  O5  NAG d 810      -4.038  33.596  78.222  0.00  0.00    -0.349 OA
ATOM     25  C4  NAG d 810      -3.674  35.769  79.291  0.00  0.00     0.089 C 
ATOM     26  O3  NAG d 810      -3.354  37.761  77.855  0.00  0.00    -0.348 OA
ATOM     27  C7  NAG d 810      -4.264  36.941  74.884  0.00  0.00     0.214 C 
ATOM     28  N2  NAG d 810      -3.478  36.169  75.621  0.00  0.00    -0.349 N 
ATOM     29  C5  NAG d 810      -3.434  34.243  79.344  0.00  0.00     0.089 C 
ATOM     30  C1  NAG d 810      -3.548  34.093  76.969  0.00  0.00     0.151 C 
ATOM     31  C8  NAG d 810      -3.576  37.701  73.761  0.00  0.00    -0.003 C 
ATOM     32  O7  NAG d 810      -5.463  37.008  75.099  0.00  0.00    -0.274 OA
ATOM     33  H   NAG d 810      -4.370  32.001  81.414  0.00  0.00     0.209 HD
ATOM     34  H   NAG d 810      -3.780  33.726  75.039  0.00  0.00     0.212 HD
ATOM     35  H   NAG d 810      -3.567  34.156  81.491  0.00  0.00     0.078 H 
ATOM     36  H   NAG d 810      -5.101  34.076  80.723  0.00  0.00     0.078 H 
ATOM     37  H   NAG d 810      -4.944  35.700  76.972  0.00  0.00     0.084 H 
ATOM     38  H   NAG d 810      -2.099  36.204  77.919  0.00  0.00     0.091 H 
ATOM     39  H   NAG d 810      -3.277  37.407  80.319  0.00  0.00     0.210 HD
ATOM     40  H   NAG d 810      -4.731  35.922  79.352  0.00  0.00     0.091 H 
ATOM     41  H   NAG d 810      -2.571  35.975  75.291  0.00  0.00     0.163 HD
ATOM     42  H   NAG d 810      -2.389  34.016  79.313  0.00  0.00     0.090 H 
ATOM     43  H   NAG d 810      -2.488  33.956  76.913  0.00  0.00     0.132 H 
ATOM     44  H   NAG d 810      -2.529  37.482  73.773  0.00  0.00     0.040 H 
ATOM     45  H   NAG d 810      -3.723  38.751  73.900  0.00  0.00     0.040 H 
ATOM     46  H   NAG d 810      -3.993  37.403  72.821  0.00  0.00     0.040 H 
ENDROOT
TORSDOF 11
ENDMDL
MODEL 60
REMARK VINA RESULT:      -6.4      2.725      5.155
REMARK  0 active torsions:
REMARK  status: ('A' for Active; 'I' for Inactive)
REMARK       I    between atoms: C2_1  and  O2_21 
REMARK       I    between atoms: O6_3  and  C6_7 
REMARK       I    between atoms: C1_4  and  O3_17 
REMARK       I    between atoms: O1_5  and  C1_23 
REMARK       I    between atoms: C3_6  and  O3_9 
REMARK       I    between atoms: C6_7  and  C5_22 
REMARK       I    between atoms: C2_8  and  N2_19 
REMARK       I    between atoms: C3_10  and  O3_17 
REMARK       I    between atoms: O4_11  and  C4_15 
REMARK       I    between atoms: C6_16  and  C5_26 
REMARK       I    between atoms: C7_18  and  C8_24 
REMARK       I    between atoms: C7_18  and  N2_19 
ROOT
ATOM      1  C2  GAD d 809      -5.092  37.826  78.726  0.00  0.00     0.111 C 
ATOM      2  O6A GAD d 809      -5.081  36.125  73.666  0.00  0.00    -0.642 OA
ATOM      3  C1  GAD d 809      -3.812  37.337  78.030  0.00  0.00     0.165 C 
ATOM      4  C3  GAD d 809      -6.333  37.420  77.932  0.00  0.00     0.084 C 
ATOM      5  O3  GAD d 809      -7.307  38.482  77.950  0.00  0.00    -0.389 OA
ATOM      6  C4  GAD d 809      -5.986  36.803  76.541  0.00  0.00    -0.034 C 
ATOM      7  O5  GAD d 809      -3.960  37.947  76.725  0.00  0.00    -0.311 OA
ATOM      8  C6  GAD d 809      -4.434  36.888  74.464  0.00  0.00     0.233 C 
ATOM      9  O6B GAD d 809      -3.375  37.514  74.185  0.00  0.00    -0.642 OA
ATOM     10  O2  GAD d 809      -5.250  37.250  80.000  0.00  0.00    -0.388 OA
ATOM     11  C5  GAD d 809      -4.876  37.197  75.905  0.00  0.00     0.147 C 
ATOM     12  H   GAD d 809      -4.994  38.888  78.799  0.00  0.00     0.095 H 
ATOM     13  H   GAD d 809      -3.624  36.304  77.822  0.00  0.00     0.134 H 
ATOM     14  H   GAD d 809      -6.818  36.599  78.417  0.00  0.00     0.093 H 
ATOM     15  H   GAD d 809      -6.935  39.270  77.523  0.00  0.00     0.210 HD
ATOM     16  H   GAD d 809      -6.606  36.098  76.114  0.00  0.00     0.085 H 
ATOM     17  H   GAD d 809      -5.337  36.288  79.912  0.00  0.00     0.210 HD
ATOM     18  O6  NAG d 810       3.304  37.303  78.027  0.00  0.00    -0.398 OA
ATOM     19  O1  NAG d 810       0.551  33.960  80.194  0.00  0.00    -0.369 OA
ATOM     20  C6  NAG d 810       2.112  38.000  78.165  0.00  0.00     0.043 C 
ATOM     21  C2  NAG d 810      -1.080  35.707  79.636  0.00  0.00     0.087 C 
ATOM     22  C3  NAG d 810      -1.457  36.679  78.545  0.00  0.00     0.093 C 
ATOM     23  O4  NAG d 810      -0.603  38.684  77.475  0.00  0.00    -0.390 OA
ATOM     24  O5  NAG d 810       1.276  35.941  79.136  0.00  0.00    -0.349 OA
ATOM     25  C4  NAG d 810      -0.307  37.673  78.437  0.00  0.00     0.089 C 
ATOM     26  O3  NAG d 810      -2.725  37.300  78.826  0.00  0.00    -0.348 OA
ATOM     27  C7  NAG d 810      -2.984  34.834  80.871  0.00  0.00     0.214 C 
ATOM     28  N2  NAG d 810      -2.178  34.799  79.819  0.00  0.00    -0.349 N 
ATOM     29  C5  NAG d 810       1.016  36.932  78.141  0.00  0.00     0.089 C 
ATOM     30  C1  NAG d 810       0.222  34.972  79.238  0.00  0.00     0.151 C 
ATOM     31  C8  NAG d 810      -4.263  34.021  80.748  0.00  0.00    -0.003 C 
ATOM     32  O7  NAG d 810      -2.691  35.471  81.870  0.00  0.00    -0.274 OA
ATOM     33  H   NAG d 810       4.047  37.928  78.035  0.00  0.00     0.209 HD
ATOM     34  H   NAG d 810      -0.173  33.317  80.247  0.00  0.00     0.212 HD
ATOM     35  H   NAG d 810       1.984  38.687  77.355  0.00  0.00     0.078 H 
ATOM     36  H   NAG d 810       2.089  38.577  79.066  0.00  0.00     0.078 H 
ATOM     37  H   NAG d 810      -0.893  36.210  80.562  0.00  0.00     0.084 H 
ATOM     38  H   NAG d 810      -1.595  36.190  77.604  0.00  0.00     0.091 H 
ATOM     39  H   NAG d 810      -1.439  39.116  77.707  0.00  0.00     0.210 HD
ATOM     40  H   NAG d 810      -0.183  38.172  79.376  0.00  0.00     0.091 H 
ATOM     41  H   NAG d 810      -2.340  34.117  79.129  0.00  0.00     0.163 HD
ATOM     42  H   NAG d 810       0.973  36.428  77.199  0.00  0.00     0.090 H 
ATOM     43  H   NAG d 810       0.086  34.484  78.296  0.00  0.00     0.132 H 
ATOM     44  H   NAG d 810      -4.298  33.555  79.786  0.00  0.00     0.040 H 
ATOM     45  H   NAG d 810      -5.108  34.667  80.863  0.00  0.00     0.040 H 
ATOM     46  H   NAG d 810      -4.282  33.269  81.510  0.00  0.00     0.040 H 
ENDROOT
TORSDOF 11
ENDMDL
MODEL 61
REMARK VINA RESULT:      -6.4      3.469      7.691
REMARK  0 active torsions:
REMARK  status: ('A' for Active; 'I' for Inactive)
REMARK       I    between atoms: C2_1  and  O2_21 
REMARK       I    between atoms: O6_3  and  C6_7 
REMARK       I    between atoms: C1_4  and  O3_17 
REMARK       I    between atoms: O1_5  and  C1_23 
REMARK       I    between atoms: C3_6  and  O3_9 
REMARK       I    between atoms: C6_7  and  C5_22 
REMARK       I    between atoms: C2_8  and  N2_19 
REMARK       I    between atoms: C3_10  and  O3_17 
REMARK       I    between atoms: O4_11  and  C4_15 
REMARK       I    between atoms: C6_16  and  C5_26 
REMARK       I    between atoms: C7_18  and  C8_24 
REMARK       I    between atoms: C7_18  and  N2_19 
ROOT
ATOM      1  C2  GAD d 809       1.602  36.040  78.886  0.00  0.00     0.111 C 
ATOM      2  O6A GAD d 809       1.576  41.281  79.903  0.00  0.00    -0.642 OA
ATOM      3  C1  GAD d 809       0.324  36.787  79.298  0.00  0.00     0.165 C 
ATOM      4  C3  GAD d 809       2.843  36.888  79.164  0.00  0.00     0.084 C 
ATOM      5  O3  GAD d 809       3.801  36.735  78.098  0.00  0.00    -0.389 OA
ATOM      6  C4  GAD d 809       2.494  38.346  79.597  0.00  0.00    -0.034 C 
ATOM      7  O5  GAD d 809       0.453  38.001  78.520  0.00  0.00    -0.311 OA
ATOM      8  C6  GAD d 809       0.925  40.384  79.262  0.00  0.00     0.233 C 
ATOM      9  O6B GAD d 809      -0.145  40.572  78.622  0.00  0.00    -0.642 OA
ATOM     10  O2  GAD d 809       1.778  34.854  79.623  0.00  0.00    -0.388 OA
ATOM     11  C5  GAD d 809       1.373  38.918  79.140  0.00  0.00     0.147 C 
ATOM     12  H   GAD d 809       1.489  35.827  77.844  0.00  0.00     0.095 H 
ATOM     13  H   GAD d 809       0.150  37.129  80.298  0.00  0.00     0.134 H 
ATOM     14  H   GAD d 809       3.344  36.519  80.034  0.00  0.00     0.093 H 
ATOM     15  H   GAD d 809       3.414  37.052  77.267  0.00  0.00     0.210 HD
ATOM     16  H   GAD d 809       3.121  38.866  80.230  0.00  0.00     0.085 H 
ATOM     17  H   GAD d 809       1.879  35.070  80.563  0.00  0.00     0.210 HD
ATOM     18  O6  NAG d 810      -6.791  36.754  79.443  0.00  0.00    -0.398 OA
ATOM     19  O1  NAG d 810      -3.972  35.064  83.000  0.00  0.00    -0.369 OA
ATOM     20  C6  NAG d 810      -5.608  36.532  78.752  0.00  0.00     0.043 C 
ATOM     21  C2  NAG d 810      -2.371  35.395  81.169  0.00  0.00     0.087 C 
ATOM     22  C3  NAG d 810      -2.017  36.350  80.056  0.00  0.00     0.093 C 
ATOM     23  O4  NAG d 810      -2.909  37.141  77.941  0.00  0.00    -0.390 OA
ATOM     24  O5  NAG d 810      -4.734  35.846  80.908  0.00  0.00    -0.349 OA
ATOM     25  C4  NAG d 810      -3.182  36.319  79.074  0.00  0.00     0.089 C 
ATOM     26  O3  NAG d 810      -0.756  35.996  79.457  0.00  0.00    -0.348 OA
ATOM     27  C7  NAG d 810      -0.445  34.298  82.167  0.00  0.00     0.214 C 
ATOM     28  N2  NAG d 810      -1.259  35.340  82.076  0.00  0.00    -0.349 N 
ATOM     29  C5  NAG d 810      -4.497  36.703  79.790  0.00  0.00     0.089 C 
ATOM     30  C1  NAG d 810      -3.665  35.880  81.866  0.00  0.00     0.151 C 
ATOM     31  C8  NAG d 810       0.845  34.534  82.937  0.00  0.00    -0.003 C 
ATOM     32  O7  NAG d 810      -0.740  33.221  81.673  0.00  0.00    -0.274 OA
ATOM     33  H   NAG d 810      -7.542  36.659  78.837  0.00  0.00     0.209 HD
ATOM     34  H   NAG d 810      -3.238  35.101  83.633  0.00  0.00     0.212 HD
ATOM     35  H   NAG d 810      -5.496  37.245  77.962  0.00  0.00     0.078 H 
ATOM     36  H   NAG d 810      -5.586  35.563  78.299  0.00  0.00     0.078 H 
ATOM     37  H   NAG d 810      -2.558  34.410  80.795  0.00  0.00     0.084 H 
ATOM     38  H   NAG d 810      -1.879  37.349  80.414  0.00  0.00     0.091 H 
ATOM     39  H   NAG d 810      -2.077  36.859  77.530  0.00  0.00     0.210 HD
ATOM     40  H   NAG d 810      -3.306  35.322  78.705  0.00  0.00     0.091 H 
ATOM     41  H   NAG d 810      -1.092  36.115  82.659  0.00  0.00     0.163 HD
ATOM     42  H   NAG d 810      -4.453  37.704  80.164  0.00  0.00     0.090 H 
ATOM     43  H   NAG d 810      -3.530  36.879  82.223  0.00  0.00     0.132 H 
ATOM     44  H   NAG d 810       0.879  35.550  83.271  0.00  0.00     0.040 H 
ATOM     45  H   NAG d 810       1.681  34.340  82.299  0.00  0.00     0.040 H 
ATOM     46  H   NAG d 810       0.881  33.878  83.783  0.00  0.00     0.040 H 
ENDROOT
TORSDOF 11
ENDMDL
MODEL 62
REMARK VINA RESULT:      -6.3      2.709      5.457
REMARK  0 active torsions:
REMARK  status: ('A' for Active; 'I' for Inactive)
REMARK       I    between atoms: C2_1  and  O2_21 
REMARK       I    between atoms: O6_3  and  C6_7 
REMARK       I    between atoms: C1_4  and  O3_17 
REMARK       I    between atoms: O1_5  and  C1_23 
REMARK       I    between atoms: C3_6  and  O3_9 
REMARK       I    between atoms: C6_7  and  C5_22 
REMARK       I    between atoms: C2_8  and  N2_19 
REMARK       I    between atoms: C3_10  and  O3_17 
REMARK       I    between atoms: O4_11  and  C4_15 
REMARK       I    between atoms: C6_16  and  C5_26 
REMARK       I    between atoms: C7_18  and  C8_24 
REMARK       I    between atoms: C7_18  and  N2_19 
ROOT
ATOM      1  C2  GAD d 809      -7.779  37.150  78.203  0.00  0.00     0.111 C 
ATOM      2  O6A GAD d 809      -7.256  33.879  74.016  0.00  0.00    -0.642 OA
ATOM      3  C1  GAD d 809      -6.405  36.752  77.642  0.00  0.00     0.165 C 
ATOM      4  C3  GAD d 809      -8.876  36.232  77.661  0.00  0.00     0.084 C 
ATOM      5  O3  GAD d 809     -10.066  36.992  77.375  0.00  0.00    -0.389 OA
ATOM      6  C4  GAD d 809      -8.362  35.274  76.541  0.00  0.00    -0.034 C 
ATOM      7  O5  GAD d 809      -6.657  36.833  76.219  0.00  0.00    -0.311 OA
ATOM      8  C6  GAD d 809      -6.821  34.992  74.475  0.00  0.00     0.233 C 
ATOM      9  O6B GAD d 809      -5.926  35.705  73.944  0.00  0.00    -0.642 OA
ATOM     10  O2  GAD d 809      -7.833  37.021  79.603  0.00  0.00    -0.388 OA
ATOM     11  C5  GAD d 809      -7.356  35.665  75.750  0.00  0.00     0.147 C 
ATOM     12  H   GAD d 809      -7.929  38.167  77.909  0.00  0.00     0.095 H 
ATOM     13  H   GAD d 809      -5.981  35.780  77.783  0.00  0.00     0.134 H 
ATOM     14  H   GAD d 809      -9.172  35.539  78.420  0.00  0.00     0.093 H 
ATOM     15  H   GAD d 809      -9.874  37.649  76.688  0.00  0.00     0.210 HD
ATOM     16  H   GAD d 809      -8.794  34.345  76.412  0.00  0.00     0.085 H 
ATOM     17  H   GAD d 809      -7.696  36.093  79.848  0.00  0.00     0.210 HD
ATOM     18  O6  NAG d 810       0.529  38.308  77.258  0.00  0.00    -0.398 OA
ATOM     19  O1  NAG d 810      -1.440  35.376  80.571  0.00  0.00    -0.369 OA
ATOM     20  C6  NAG d 810      -0.794  38.725  77.219  0.00  0.00     0.043 C 
ATOM     21  C2  NAG d 810      -3.414  36.419  79.549  0.00  0.00     0.087 C 
ATOM     22  C3  NAG d 810      -3.976  36.851  78.218  0.00  0.00     0.093 C 
ATOM     23  O4  NAG d 810      -3.576  38.510  76.491  0.00  0.00    -0.390 OA
ATOM     24  O5  NAG d 810      -1.161  36.987  78.871  0.00  0.00    -0.349 OA
ATOM     25  C4  NAG d 810      -3.081  37.980  77.719  0.00  0.00     0.089 C 
ATOM     26  O3  NAG d 810      -5.359  37.232  78.343  0.00  0.00    -0.348 OA
ATOM     27  C7  NAG d 810      -5.097  35.616  81.109  0.00  0.00     0.214 C 
ATOM     28  N2  NAG d 810      -4.279  35.406  80.087  0.00  0.00    -0.349 N 
ATOM     29  C5  NAG d 810      -1.616  37.497  77.616  0.00  0.00     0.089 C 
ATOM     30  C1  NAG d 810      -1.968  35.902  79.350  0.00  0.00     0.151 C 
ATOM     31  C8  NAG d 810      -6.153  34.546  81.337  0.00  0.00    -0.003 C 
ATOM     32  O7  NAG d 810      -4.982  36.602  81.818  0.00  0.00    -0.274 OA
ATOM     33  H   NAG d 810       1.108  39.047  77.014  0.00  0.00     0.209 HD
ATOM     34  H   NAG d 810      -2.000  34.644  80.877  0.00  0.00     0.212 HD
ATOM     35  H   NAG d 810      -1.057  39.049  76.233  0.00  0.00     0.078 H 
ATOM     36  H   NAG d 810      -0.971  39.553  77.874  0.00  0.00     0.078 H 
ATOM     37  H   NAG d 810      -3.369  37.234  80.240  0.00  0.00     0.084 H 
ATOM     38  H   NAG d 810      -3.975  36.054  77.505  0.00  0.00     0.091 H 
ATOM     39  H   NAG d 810      -4.495  38.797  76.609  0.00  0.00     0.210 HD
ATOM     40  H   NAG d 810      -3.097  38.782  78.426  0.00  0.00     0.091 H 
ATOM     41  H   NAG d 810      -4.264  34.512  79.677  0.00  0.00     0.163 HD
ATOM     42  H   NAG d 810      -1.521  36.707  76.902  0.00  0.00     0.090 H 
ATOM     43  H   NAG d 810      -1.966  35.105  78.636  0.00  0.00     0.132 H 
ATOM     44  H   NAG d 810      -6.057  33.785  80.591  0.00  0.00     0.040 H 
ATOM     45  H   NAG d 810      -7.126  34.986  81.274  0.00  0.00     0.040 H 
ATOM     46  H   NAG d 810      -6.019  34.113  82.308  0.00  0.00     0.040 H 
ENDROOT
TORSDOF 11
ENDMDL
MODEL 63
REMARK VINA RESULT:      -6.3      2.620      7.330
REMARK  0 active torsions:
REMARK  status: ('A' for Active; 'I' for Inactive)
REMARK       I    between atoms: C2_1  and  O2_21 
REMARK       I    between atoms: O6_3  and  C6_7 
REMARK       I    between atoms: C1_4  and  O3_17 
REMARK       I    between atoms: O1_5  and  C1_23 
REMARK       I    between atoms: C3_6  and  O3_9 
REMARK       I    between atoms: C6_7  and  C5_22 
REMARK       I    between atoms: C2_8  and  N2_19 
REMARK       I    between atoms: C3_10  and  O3_17 
REMARK       I    between atoms: O4_11  and  C4_15 
REMARK       I    between atoms: C6_16  and  C5_26 
REMARK       I    between atoms: C7_18  and  C8_24 
REMARK       I    between atoms: C7_18  and  N2_19 
ROOT
ATOM      1  C2  GAD d 809      -0.315  35.356  80.629  0.00  0.00     0.111 C 
ATOM      2  O6A GAD d 809       1.249  40.429  80.058  0.00  0.00    -0.642 OA
ATOM      3  C1  GAD d 809      -1.049  36.340  79.704  0.00  0.00     0.165 C 
ATOM      4  C3  GAD d 809       0.626  36.099  81.578  0.00  0.00     0.084 C 
ATOM      5  O3  GAD d 809       1.853  35.362  81.743  0.00  0.00    -0.389 OA
ATOM      6  C4  GAD d 809       0.752  37.617  81.238  0.00  0.00    -0.034 C 
ATOM      7  O5  GAD d 809       0.069  37.023  79.088  0.00  0.00    -0.311 OA
ATOM      8  C6  GAD d 809       0.890  39.411  79.371  0.00  0.00     0.233 C 
ATOM      9  O6B GAD d 809       0.740  39.387  78.118  0.00  0.00    -0.642 OA
ATOM     10  O2  GAD d 809      -1.205  34.645  81.454  0.00  0.00    -0.388 OA
ATOM     11  C5  GAD d 809       0.615  38.021  79.970  0.00  0.00     0.147 C 
ATOM     12  H   GAD d 809       0.216  34.691  79.980  0.00  0.00     0.095 H 
ATOM     13  H   GAD d 809      -1.672  37.127  80.074  0.00  0.00     0.134 H 
ATOM     14  H   GAD d 809       0.196  36.132  82.557  0.00  0.00     0.093 H 
ATOM     15  H   GAD d 809       2.305  35.290  80.887  0.00  0.00     0.210 HD
ATOM     16  H   GAD d 809       0.939  38.304  81.985  0.00  0.00     0.085 H 
ATOM     17  H   GAD d 809      -1.675  35.265  82.033  0.00  0.00     0.210 HD
ATOM     18  O6  NAG d 810      -5.515  37.129  74.220  0.00  0.00    -0.398 OA
ATOM     19  O1  NAG d 810      -6.876  37.024  78.866  0.00  0.00    -0.369 OA
ATOM     20  C6  NAG d 810      -4.427  36.485  74.793  0.00  0.00     0.043 C 
ATOM     21  C2  NAG d 810      -4.538  36.284  78.984  0.00  0.00     0.087 C 
ATOM     22  C3  NAG d 810      -3.172  36.559  78.406  0.00  0.00     0.093 C 
ATOM     23  O4  NAG d 810      -1.975  36.352  76.304  0.00  0.00    -0.390 OA
ATOM     24  O5  NAG d 810      -5.618  36.806  76.882  0.00  0.00    -0.349 OA
ATOM     25  C4  NAG d 810      -3.248  36.193  76.928  0.00  0.00     0.089 C 
ATOM     26  O3  NAG d 810      -2.155  35.835  79.123  0.00  0.00    -0.348 OA
ATOM     27  C7  NAG d 810      -4.494  35.589  81.313  0.00  0.00     0.214 C 
ATOM     28  N2  NAG d 810      -4.483  36.544  80.395  0.00  0.00    -0.349 N 
ATOM     29  C5  NAG d 810      -4.363  37.005  76.231  0.00  0.00     0.089 C 
ATOM     30  C1  NAG d 810      -5.585  37.173  78.269  0.00  0.00     0.151 C 
ATOM     31  C8  NAG d 810      -4.113  36.022  82.720  0.00  0.00    -0.003 C 
ATOM     32  O7  NAG d 810      -4.809  34.445  81.029  0.00  0.00    -0.274 OA
ATOM     33  H   NAG d 810      -5.613  36.840  73.299  0.00  0.00     0.209 HD
ATOM     34  H   NAG d 810      -6.830  37.276  79.802  0.00  0.00     0.212 HD
ATOM     35  H   NAG d 810      -3.528  36.725  74.266  0.00  0.00     0.078 H 
ATOM     36  H   NAG d 810      -4.530  35.420  74.758  0.00  0.00     0.078 H 
ATOM     37  H   NAG d 810      -4.829  35.265  78.835  0.00  0.00     0.084 H 
ATOM     38  H   NAG d 810      -2.896  37.588  78.505  0.00  0.00     0.091 H 
ATOM     39  H   NAG d 810      -1.314  35.823  76.778  0.00  0.00     0.210 HD
ATOM     40  H   NAG d 810      -3.507  35.160  76.834  0.00  0.00     0.091 H 
ATOM     41  H   NAG d 810      -4.434  37.480  80.696  0.00  0.00     0.163 HD
ATOM     42  H   NAG d 810      -4.153  38.054  76.264  0.00  0.00     0.090 H 
ATOM     43  H   NAG d 810      -5.309  38.202  78.365  0.00  0.00     0.132 H 
ATOM     44  H   NAG d 810      -3.878  37.065  82.720  0.00  0.00     0.040 H 
ATOM     45  H   NAG d 810      -3.261  35.464  83.047  0.00  0.00     0.040 H 
ATOM     46  H   NAG d 810      -4.934  35.841  83.383  0.00  0.00     0.040 H 
ENDROOT
TORSDOF 11
ENDMDL
MODEL 64
REMARK VINA RESULT:      -6.2      2.810      4.607
REMARK  0 active torsions:
REMARK  status: ('A' for Active; 'I' for Inactive)
REMARK       I    between atoms: C2_1  and  O2_21 
REMARK       I    between atoms: O6_3  and  C6_7 
REMARK       I    between atoms: C1_4  and  O3_17 
REMARK       I    between atoms: O1_5  and  C1_23 
REMARK       I    between atoms: C3_6  and  O3_9 
REMARK       I    between atoms: C6_7  and  C5_22 
REMARK       I    between atoms: C2_8  and  N2_19 
REMARK       I    between atoms: C3_10  and  O3_17 
REMARK       I    between atoms: O4_11  and  C4_15 
REMARK       I    between atoms: C6_16  and  C5_26 
REMARK       I    between atoms: C7_18  and  C8_24 
REMARK       I    between atoms: C7_18  and  N2_19 
ROOT
ATOM      1  C2  GAD d 809      -5.646  34.266  77.895  0.00  0.00     0.111 C 
ATOM      2  O6A GAD d 809      -8.298  34.787  73.291  0.00  0.00    -0.642 OA
ATOM      3  C1  GAD d 809      -5.533  35.527  77.023  0.00  0.00     0.165 C 
ATOM      4  C3  GAD d 809      -6.285  33.118  77.113  0.00  0.00     0.084 C 
ATOM      5  O3  GAD d 809      -7.182  32.375  77.961  0.00  0.00    -0.389 OA
ATOM      6  C4  GAD d 809      -6.834  33.567  75.722  0.00  0.00    -0.034 C 
ATOM      7  O5  GAD d 809      -6.914  35.714  76.631  0.00  0.00    -0.311 OA
ATOM      8  C6  GAD d 809      -8.030  35.426  74.367  0.00  0.00     0.233 C 
ATOM      9  O6B GAD d 809      -8.365  36.616  74.616  0.00  0.00    -0.642 OA
ATOM     10  O2  GAD d 809      -4.386  33.794  78.304  0.00  0.00    -0.388 OA
ATOM     11  C5  GAD d 809      -7.274  34.821  75.562  0.00  0.00     0.147 C 
ATOM     12  H   GAD d 809      -6.238  34.551  78.740  0.00  0.00     0.095 H 
ATOM     13  H   GAD d 809      -4.989  35.547  76.102  0.00  0.00     0.134 H 
ATOM     14  H   GAD d 809      -5.532  32.413  76.830  0.00  0.00     0.093 H 
ATOM     15  H   GAD d 809      -7.900  32.955  78.260  0.00  0.00     0.210 HD
ATOM     16  H   GAD d 809      -6.858  32.902  74.933  0.00  0.00     0.085 H 
ATOM     17  H   GAD d 809      -3.867  33.541  77.524  0.00  0.00     0.210 HD
ATOM     18  O6  NAG d 810      -3.742  42.408  76.738  0.00  0.00    -0.398 OA
ATOM     19  O1  NAG d 810      -0.728  38.751  75.742  0.00  0.00    -0.369 OA
ATOM     20  C6  NAG d 810      -4.376  41.364  77.396  0.00  0.00     0.043 C 
ATOM     21  C2  NAG d 810      -2.645  37.596  76.751  0.00  0.00     0.087 C 
ATOM     22  C3  NAG d 810      -4.153  37.595  76.780  0.00  0.00     0.093 C 
ATOM     23  O4  NAG d 810      -5.990  38.980  77.557  0.00  0.00    -0.390 OA
ATOM     24  O5  NAG d 810      -2.573  40.004  76.513  0.00  0.00    -0.349 OA
ATOM     25  C4  NAG d 810      -4.572  38.916  77.417  0.00  0.00     0.089 C 
ATOM     26  O3  NAG d 810      -4.653  36.440  77.479  0.00  0.00    -0.348 OA
ATOM     27  C7  NAG d 810      -1.660  35.384  76.973  0.00  0.00     0.214 C 
ATOM     28  N2  NAG d 810      -2.211  36.331  76.227  0.00  0.00    -0.349 N 
ATOM     29  C5  NAG d 810      -3.994  40.104  76.616  0.00  0.00     0.089 C 
ATOM     30  C1  NAG d 810      -2.150  38.782  75.888  0.00  0.00     0.151 C 
ATOM     31  C8  NAG d 810      -1.557  34.012  76.327  0.00  0.00    -0.003 C 
ATOM     32  O7  NAG d 810      -1.252  35.624  78.098  0.00  0.00    -0.274 OA
ATOM     33  H   NAG d 810      -3.945  43.244  77.186  0.00  0.00     0.209 HD
ATOM     34  H   NAG d 810      -0.465  37.919  75.318  0.00  0.00     0.212 HD
ATOM     35  H   NAG d 810      -5.437  41.504  77.387  0.00  0.00     0.078 H 
ATOM     36  H   NAG d 810      -4.082  41.303  78.423  0.00  0.00     0.078 H 
ATOM     37  H   NAG d 810      -2.233  37.720  77.731  0.00  0.00     0.084 H 
ATOM     38  H   NAG d 810      -4.572  37.524  75.799  0.00  0.00     0.091 H 
ATOM     39  H   NAG d 810      -6.300  38.215  78.065  0.00  0.00     0.210 HD
ATOM     40  H   NAG d 810      -4.165  38.976  78.405  0.00  0.00     0.091 H 
ATOM     41  H   NAG d 810      -2.330  36.158  75.266  0.00  0.00     0.163 HD
ATOM     42  H   NAG d 810      -4.382  40.122  75.619  0.00  0.00     0.090 H 
ATOM     43  H   NAG d 810      -2.571  38.713  74.907  0.00  0.00     0.132 H 
ATOM     44  H   NAG d 810      -1.981  34.048  75.345  0.00  0.00     0.040 H 
ATOM     45  H   NAG d 810      -2.090  33.298  76.919  0.00  0.00     0.040 H 
ATOM     46  H   NAG d 810      -0.528  33.725  76.261  0.00  0.00     0.040 H 
ENDROOT
TORSDOF 11
ENDMDL
MODEL 65
REMARK VINA RESULT:      -5.1      3.462      7.200
REMARK  0 active torsions:
REMARK  status: ('A' for Active; 'I' for Inactive)
REMARK       I    between atoms: C2_1  and  O2_21 
REMARK       I    between atoms: O6_3  and  C6_7 
REMARK       I    between atoms: C1_4  and  O3_17 
REMARK       I    between atoms: O1_5  and  C1_23 
REMARK       I    between atoms: C3_6  and  O3_9 
REMARK       I    between atoms: C6_7  and  C5_22 
REMARK       I    between atoms: C2_8  and  N2_19 
REMARK       I    between atoms: C3_10  and  O3_17 
REMARK       I    between atoms: O4_11  and  C4_15 
REMARK       I    between atoms: C6_16  and  C5_26 
REMARK       I    between atoms: C7_18  and  C8_24 
REMARK       I    between atoms: C7_18  and  N2_19 
ROOT
ATOM      1  C2  GAD d 809       0.277  39.073  79.544  0.00  0.00     0.111 C 
ATOM      2  O6A GAD d 809       4.125  35.444  78.818  0.00  0.00    -0.642 OA
ATOM      3  C1  GAD d 809       0.045  37.574  79.791  0.00  0.00     0.165 C 
ATOM      4  C3  GAD d 809       1.565  39.303  78.753  0.00  0.00     0.084 C 
ATOM      5  O3  GAD d 809       2.257  40.463  79.252  0.00  0.00    -0.389 OA
ATOM      6  C4  GAD d 809       2.406  38.000  78.575  0.00  0.00    -0.034 C 
ATOM      7  O5  GAD d 809       1.277  37.212  80.460  0.00  0.00    -0.311 OA
ATOM      8  C6  GAD d 809       3.224  35.790  79.658  0.00  0.00     0.233 C 
ATOM      9  O6B GAD d 809       2.942  35.178  80.725  0.00  0.00    -0.642 OA
ATOM     10  O2  GAD d 809      -0.751  39.644  78.773  0.00  0.00    -0.388 OA
ATOM     11  C5  GAD d 809       2.350  37.048  79.515  0.00  0.00     0.147 C 
ATOM     12  H   GAD d 809       0.319  39.522  80.514  0.00  0.00     0.095 H 
ATOM     13  H   GAD d 809      -0.044  36.863  78.995  0.00  0.00     0.134 H 
ATOM     14  H   GAD d 809       1.325  39.545  77.739  0.00  0.00     0.093 H 
ATOM     15  H   GAD d 809       2.509  40.317  80.177  0.00  0.00     0.210 HD
ATOM     16  H   GAD d 809       2.999  37.872  77.741  0.00  0.00     0.085 H 
ATOM     17  H   GAD d 809      -0.772  39.224  77.899  0.00  0.00     0.210 HD
ATOM     18  O6  NAG d 810      -3.986  32.626  82.939  0.00  0.00    -0.398 OA
ATOM     19  O1  NAG d 810      -4.677  34.260  78.433  0.00  0.00    -0.369 OA
ATOM     20  C6  NAG d 810      -3.320  33.842  83.000  0.00  0.00     0.043 C 
ATOM     21  C2  NAG d 810      -3.044  35.858  79.330  0.00  0.00     0.087 C 
ATOM     22  C3  NAG d 810      -1.803  35.939  80.183  0.00  0.00     0.093 C 
ATOM     23  O4  NAG d 810      -1.123  35.640  82.495  0.00  0.00    -0.390 OA
ATOM     24  O5  NAG d 810      -3.938  34.047  80.663  0.00  0.00    -0.349 OA
ATOM     25  C4  NAG d 810      -2.220  35.526  81.590  0.00  0.00     0.089 C 
ATOM     26  O3  NAG d 810      -1.221  37.254  80.123  0.00  0.00    -0.348 OA
ATOM     27  C7  NAG d 810      -3.096  37.484  77.522  0.00  0.00     0.214 C 
ATOM     28  N2  NAG d 810      -2.705  36.316  78.011  0.00  0.00    -0.349 N 
ATOM     29  C5  NAG d 810      -2.838  34.110  81.573  0.00  0.00     0.089 C 
ATOM     30  C1  NAG d 810      -3.566  34.401  79.323  0.00  0.00     0.151 C 
ATOM     31  C8  NAG d 810      -2.392  37.937  76.253  0.00  0.00    -0.003 C 
ATOM     32  O7  NAG d 810      -3.979  38.130  78.063  0.00  0.00    -0.274 OA
ATOM     33  H   NAG d 810      -4.321  32.396  83.820  0.00  0.00     0.209 HD
ATOM     34  H   NAG d 810      -4.404  34.504  77.534  0.00  0.00     0.212 HD
ATOM     35  H   NAG d 810      -2.490  33.781  83.672  0.00  0.00     0.078 H 
ATOM     36  H   NAG d 810      -3.953  34.626  83.362  0.00  0.00     0.078 H 
ATOM     37  H   NAG d 810      -3.826  36.477  79.716  0.00  0.00     0.084 H 
ATOM     38  H   NAG d 810      -1.033  35.283  79.834  0.00  0.00     0.091 H 
ATOM     39  H   NAG d 810      -0.774  36.544  82.468  0.00  0.00     0.210 HD
ATOM     40  H   NAG d 810      -2.978  36.194  81.943  0.00  0.00     0.091 H 
ATOM     41  H   NAG d 810      -2.154  35.732  77.441  0.00  0.00     0.163 HD
ATOM     42  H   NAG d 810      -2.123  33.382  81.252  0.00  0.00     0.090 H 
ATOM     43  H   NAG d 810      -2.797  33.744  78.975  0.00  0.00     0.132 H 
ATOM     44  H   NAG d 810      -1.660  37.208  75.972  0.00  0.00     0.040 H 
ATOM     45  H   NAG d 810      -1.911  38.876  76.428  0.00  0.00     0.040 H 
ATOM     46  H   NAG d 810      -3.110  38.043  75.466  0.00  0.00     0.040 H 
ENDROOT
TORSDOF 11
ENDMDL
MODEL 66
REMARK VINA RESULT:      -0.4      4.015      7.146
REMARK  0 active torsions:
REMARK  status: ('A' for Active; 'I' for Inactive)
REMARK       I    between atoms: C2_1  and  O2_21 
REMARK       I    between atoms: O6_3  and  C6_7 
REMARK       I    between atoms: C1_4  and  O3_17 
REMARK       I    between atoms: O1_5  and  C1_23 
REMARK       I    between atoms: C3_6  and  O3_9 
REMARK       I    between atoms: C6_7  and  C5_22 
REMARK       I    between atoms: C2_8  and  N2_19 
REMARK       I    between atoms: C3_10  and  O3_17 
REMARK       I    between atoms: O4_11  and  C4_15 
REMARK       I    between atoms: C6_16  and  C5_26 
REMARK       I    between atoms: C7_18  and  C8_24 
REMARK       I    between atoms: C7_18  and  N2_19 
ROOT
ATOM      1  C2  GAD d 809       2.025  39.745  78.681  0.00  0.00     0.111 C 
ATOM      2  O6A GAD d 809      -2.715  41.865  77.438  0.00  0.00    -0.642 OA
ATOM      3  C1  GAD d 809       0.759  38.887  78.529  0.00  0.00     0.165 C 
ATOM      4  C3  GAD d 809       1.668  41.228  78.790  0.00  0.00     0.084 C 
ATOM      5  O3  GAD d 809       2.620  42.026  78.059  0.00  0.00    -0.389 OA
ATOM      6  C4  GAD d 809       0.156  41.508  78.521  0.00  0.00    -0.034 C 
ATOM      7  O5  GAD d 809       0.161  39.487  77.354  0.00  0.00    -0.311 OA
ATOM      8  C6  GAD d 809      -1.940  40.897  77.122  0.00  0.00     0.233 C 
ATOM      9  O6B GAD d 809      -2.206  39.986  76.291  0.00  0.00    -0.642 OA
ATOM     10  O2  GAD d 809       2.732  39.436  79.857  0.00  0.00    -0.388 OA
ATOM     11  C5  GAD d 809      -0.522  40.709  77.689  0.00  0.00     0.147 C 
ATOM     12  H   GAD d 809       2.619  39.541  77.815  0.00  0.00     0.095 H 
ATOM     13  H   GAD d 809      -0.027  38.881  79.255  0.00  0.00     0.134 H 
ATOM     14  H   GAD d 809       1.770  41.549  79.806  0.00  0.00     0.093 H 
ATOM     15  H   GAD d 809       2.586  41.789  77.119  0.00  0.00     0.210 HD
ATOM     16  H   GAD d 809      -0.316  42.301  78.982  0.00  0.00     0.085 H 
ATOM     17  H   GAD d 809       2.176  39.629  80.628  0.00  0.00     0.210 HD
ATOM     18  O6  NAG d 810      -1.910  32.375  77.476  0.00  0.00    -0.398 OA
ATOM     19  O1  NAG d 810      -1.063  34.316  81.831  0.00  0.00    -0.369 OA
ATOM     20  C6  NAG d 810      -0.985  33.356  77.146  0.00  0.00     0.043 C 
ATOM     21  C2  NAG d 810       0.070  35.887  80.323  0.00  0.00     0.087 C 
ATOM     22  C3  NAG d 810      -0.085  36.582  78.994  0.00  0.00     0.093 C 
ATOM     23  O4  NAG d 810      -0.124  36.057  76.623  0.00  0.00    -0.390 OA
ATOM     24  O5  NAG d 810      -1.058  33.907  79.507  0.00  0.00    -0.349 OA
ATOM     25  C4  NAG d 810      -0.056  35.490  77.930  0.00  0.00     0.089 C 
ATOM     26  O3  NAG d 810       0.935  37.582  78.814  0.00  0.00    -0.348 OA
ATOM     27  C7  NAG d 810       1.236  37.216  81.993  0.00  0.00     0.214 C 
ATOM     28  N2  NAG d 810       0.125  36.894  81.346  0.00  0.00    -0.349 N 
ATOM     29  C5  NAG d 810      -1.174  34.456  78.194  0.00  0.00     0.089 C 
ATOM     30  C1  NAG d 810      -1.113  34.911  80.531  0.00  0.00     0.151 C 
ATOM     31  C8  NAG d 810       1.179  38.501  82.802  0.00  0.00    -0.003 C 
ATOM     32  O7  NAG d 810       2.225  36.502  81.942  0.00  0.00    -0.274 OA
ATOM     33  H   NAG d 810      -1.842  31.642  76.845  0.00  0.00     0.209 HD
ATOM     34  H   NAG d 810      -1.102  35.011  82.507  0.00  0.00     0.212 HD
ATOM     35  H   NAG d 810      -1.176  33.736  76.165  0.00  0.00     0.078 H 
ATOM     36  H   NAG d 810       0.015  32.975  77.142  0.00  0.00     0.078 H 
ATOM     37  H   NAG d 810       0.971  35.310  80.361  0.00  0.00     0.084 H 
ATOM     38  H   NAG d 810      -1.008  37.119  78.928  0.00  0.00     0.091 H 
ATOM     39  H   NAG d 810       0.596  36.697  76.511  0.00  0.00     0.210 HD
ATOM     40  H   NAG d 810       0.875  34.967  77.988  0.00  0.00     0.091 H 
ATOM     41  H   NAG d 810      -0.705  37.369  81.578  0.00  0.00     0.163 HD
ATOM     42  H   NAG d 810      -2.141  34.908  78.126  0.00  0.00     0.090 H 
ATOM     43  H   NAG d 810      -2.037  35.446  80.464  0.00  0.00     0.132 H 
ATOM     44  H   NAG d 810       0.215  38.950  82.691  0.00  0.00     0.040 H 
ATOM     45  H   NAG d 810       1.930  39.177  82.450  0.00  0.00     0.040 H 
ATOM     46  H   NAG d 810       1.354  38.280  83.835  0.00  0.00     0.040 H 
ENDROOT
TORSDOF 11
ENDMDL
