REMARK  0 active torsions:
REMARK  status: ('A' for Active; 'I' for Inactive)
REMARK       I    between atoms: C2_1  and  O2_21 
REMARK       I    between atoms: O6_3  and  C6_7 
REMARK       I    between atoms: C1_4  and  O3_17 
REMARK       I    between atoms: O1_5  and  C1_23 
REMARK       I    between atoms: C3_6  and  O3_9 
REMARK       I    between atoms: C6_7  and  C5_22 
REMARK       I    between atoms: C2_8  and  N2_19 
REMARK       I    between atoms: C3_10  and  O3_17 
REMARK       I    between atoms: O4_11  and  C4_15 
REMARK       I    between atoms: C6_16  and  C5_26 
REMARK       I    between atoms: C7_18  and  C8_24 
REMARK       I    between atoms: C7_18  and  N2_19 
ROOT
ATOM      1  C2  GAD d 809      -4.104  36.394  75.164  0.00  0.00     0.111 C 
ATOM      2  O6A GAD d 809      -7.734  38.089  78.693  0.00  0.00    -0.642 OA
ATOM      3  C1  GAD d 809      -3.723  37.246  76.385  0.00  0.00     0.165 C 
ATOM      4  C3  GAD d 809      -5.614  36.427  74.926  0.00  0.00     0.084 C 
ATOM      5  O3  GAD d 809      -6.085  35.126  74.525  0.00  0.00    -0.389 OA
ATOM      6  C4  GAD d 809      -6.392  37.137  76.078  0.00  0.00    -0.034 C 
ATOM      7  O5  GAD d 809      -4.543  36.637  77.411  0.00  0.00    -0.311 OA
ATOM      8  C6  GAD d 809      -6.580  37.539  78.633  0.00  0.00     0.233 C 
ATOM      9  O6B GAD d 809      -5.850  37.256  79.622  0.00  0.00    -0.642 OA
ATOM     10  O2  GAD d 809      -3.521  36.881  73.980  0.00  0.00    -0.388 OA
ATOM     11  C5  GAD d 809      -5.905  37.095  77.324  0.00  0.00     0.147 C 
ATOM     12  H   GAD d 809      -3.756  35.406  75.381  0.00  0.00     0.095 H 
ATOM     13  H   GAD d 809      -3.943  38.291  76.453  0.00  0.00     0.134 H 
ATOM     14  H   GAD d 809      -5.833  37.063  74.094  0.00  0.00     0.093 H 
ATOM     15  H   GAD d 809      -5.919  34.488  75.237  0.00  0.00     0.210 HD
ATOM     16  H   GAD d 809      -7.274  37.635  75.881  0.00  0.00     0.085 H 
ATOM     17  H   GAD d 809      -3.850  37.776  73.802  0.00  0.00     0.210 HD
ATOM     18  O6  NAG d 810       1.476  39.369  80.756  0.00  0.00    -0.398 OA
ATOM     19  O1  NAG d 810       0.139  41.727  76.743  0.00  0.00    -0.369 OA
ATOM     20  C6  NAG d 810       0.843  38.351  80.057  0.00  0.00     0.043 C 
ATOM     21  C2  NAG d 810      -1.038  39.585  76.514  0.00  0.00     0.087 C 
ATOM     22  C3  NAG d 810      -1.809  38.560  77.308  0.00  0.00     0.093 C 
ATOM     23  O4  NAG d 810      -1.442  36.909  79.050  0.00  0.00    -0.390 OA
ATOM     24  O5  NAG d 810       0.414  40.061  78.391  0.00  0.00    -0.349 OA
ATOM     25  C4  NAG d 810      -0.822  37.949  78.296  0.00  0.00     0.089 C 
ATOM     26  O3  NAG d 810      -2.421  37.590  76.438  0.00  0.00    -0.348 OA
ATOM     27  C7  NAG d 810      -1.822  39.844  74.227  0.00  0.00     0.214 C 
ATOM     28  N2  NAG d 810      -1.919  40.128  75.518  0.00  0.00    -0.349 N 
ATOM     29  C5  NAG d 810      -0.205  39.050  79.188  0.00  0.00     0.089 C 
ATOM     30  C1  NAG d 810      -0.501  40.676  77.472  0.00  0.00     0.151 C 
ATOM     31  C8  NAG d 810      -3.013  40.247  73.372  0.00  0.00    -0.003 C 
ATOM     32  O7  NAG d 810      -0.824  39.309  73.772  0.00  0.00    -0.274 OA
ATOM     33  H   NAG d 810       2.159  38.990  81.331  0.00  0.00     0.209 HD
ATOM     34  H   NAG d 810      -0.496  42.128  76.129  0.00  0.00     0.212 HD
ATOM     35  H   NAG d 810       0.374  37.667  80.733  0.00  0.00     0.078 H 
ATOM     36  H   NAG d 810       1.533  37.781  79.470  0.00  0.00     0.078 H 
ATOM     37  H   NAG d 810      -0.194  39.147  76.023  0.00  0.00     0.084 H 
ATOM     38  H   NAG d 810      -2.624  38.999  77.844  0.00  0.00     0.091 H 
ATOM     39  H   NAG d 810      -1.811  36.247  78.445  0.00  0.00     0.210 HD
ATOM     40  H   NAG d 810      -0.017  37.496  77.756  0.00  0.00     0.091 H 
ATOM     41  H   NAG d 810      -2.631  40.742  75.809  0.00  0.00     0.163 HD
ATOM     42  H   NAG d 810      -0.955  39.531  79.780  0.00  0.00     0.090 H 
ATOM     43  H   NAG d 810      -1.315  41.115  78.010  0.00  0.00     0.132 H 
ATOM     44  H   NAG d 810      -3.761  40.695  73.992  0.00  0.00     0.040 H 
ATOM     45  H   NAG d 810      -3.418  39.380  72.894  0.00  0.00     0.040 H 
ATOM     46  H   NAG d 810      -2.697  40.950  72.629  0.00  0.00     0.040 H 
ENDROOT
TORSDOF 11
