MODEL 1
REMARK VINA RESULT:     -17.3      0.000      0.000
REMARK  0 active torsions:
REMARK  status: ('A' for Active; 'I' for Inactive)
REMARK       I    between atoms: O2_2  and  S_22 
REMARK       I    between atoms: O2_2  and  C2_6 
REMARK       I    between atoms: O3S_3  and  S1_31 
REMARK       I    between atoms: O2S_4  and  S1_31 
REMARK       I    between atoms: O3_5  and  C3_13 
REMARK       I    between atoms: C2_12  and  N_17 
REMARK       I    between atoms: N_17  and  S1_31 
REMARK       I    between atoms: C3_23  and  O3_27 
REMARK       I    between atoms: C4_25  and  O4_26 
REMARK       I    between atoms: O4_26  and  C1_34 
REMARK       I    between atoms: O1S_29  and  S1_31 
REMARK       I    between atoms: C6_30  and  C5_35 
REMARK       I    between atoms: O1_33  and  C1_41 
ROOT
ATOM      1  O6  SGN d 377      27.946  16.234  25.740  0.00  0.00    -0.249 OA
ATOM      2  O3S SGN d 377      27.088  22.104  21.181  0.00  0.00    -0.296 OA
ATOM      3  O2S SGN d 377      26.951  21.870  23.605  0.00  0.00    -0.296 OA
ATOM      4  O4S SGN d 377      30.660  14.364  24.970  0.00  0.00    -0.066 OA
ATOM      5  O4S SGN d 377      29.630  16.466  27.583  0.00  0.00    -0.166 OA
ATOM      6  C2  SGN d 377      26.541  19.231  22.728  0.00  0.00     0.081 C 
ATOM      7  O6  SGN d 377      28.667  15.419  24.220  0.00  0.00    -0.249 OA
ATOM      8  O6S SGN d 377      29.717  13.740  22.804  0.00  0.00    -0.166 OA
ATOM      9  N   SGN d 377      25.811  20.275  22.043  0.00  0.00    -0.210 NA
ATOM     10  S2  SGN d 377      29.440  14.082  24.208  0.00  0.00     0.429 S 
ATOM     11  O5  SGN d 377      26.265  17.616  24.441  0.00  0.00    -0.342 OA
ATOM     12  O5S SGN d 377      28.616  13.085  24.894  0.00  0.00    -0.166 OA
ATOM     13  C6  SGN d 377      27.313  15.491  24.602  0.00  0.00     0.073 C 
ATOM     14  C3  SGN d 377      27.043  18.140  21.792  0.00  0.00     0.084 C 
ATOM     15  C4  SGN d 377      27.699  17.038  22.635  0.00  0.00     0.102 C 
ATOM     16  O4  SGN d 377      28.246  15.985  21.839  0.00  0.00    -0.347 OA
ATOM     17  O3  SGN d 377      27.950  18.770  20.908  0.00  0.00    -0.391 OA
ATOM     18  O5S SGN d 377      28.066  14.685  27.641  0.00  0.00    -0.166 OA
ATOM     19  O1S SGN d 377      25.049  22.645  22.381  0.00  0.00    -0.296 OA
ATOM     20  S1  SGN d 377      26.246  21.791  22.320  0.00  0.00     0.156 S 
ATOM     21  O1  SGN d 377      24.447  18.126  23.149  0.00  0.00    -0.369 OA
ATOM     22  O6S SGN d 377      29.828  14.698  25.943  0.00  0.00    -0.066 OA
ATOM     23  C5  SGN d 377      26.689  16.521  23.672  0.00  0.00     0.138 C 
ATOM     24  C6  SGN d 377      27.270  15.541  24.702  0.00  0.00     0.073 C 
ATOM     25  S2  SGN d 377      28.890  15.496  26.740  0.00  0.00     0.429 S 
ATOM     26  C1  SGN d 377      25.615  18.645  23.763  0.00  0.00     0.148 C 
ATOM     27  H   SGN d 377      27.863  21.519  21.181  0.00  0.00     0.231 HD
ATOM     28  H   SGN d 377      27.742  21.310  23.575  0.00  0.00     0.231 HD
ATOM     29  H   SGN d 377      27.416  19.656  23.174  0.00  0.00     0.076 H 
ATOM     30  H   SGN d 377      24.829  20.187  22.309  0.00  0.00     0.140 HD
ATOM     31  H   SGN d 377      27.227  15.806  25.622  0.00  0.00     0.081 H 
ATOM     32  H   SGN d 377      26.827  14.541  24.531  0.00  0.00     0.081 H 
ATOM     33  H   SGN d 377      26.266  17.674  21.224  0.00  0.00     0.089 H 
ATOM     34  H   SGN d 377      28.536  17.462  23.150  0.00  0.00     0.092 H 
ATOM     35  H   SGN d 377      28.657  19.195  21.419  0.00  0.00     0.210 HD
ATOM     36  H   SGN d 377      25.315  23.563  22.549  0.00  0.00     0.231 HD
ATOM     37  H   SGN d 377      23.989  18.837  22.675  0.00  0.00     0.212 HD
ATOM     38  H   SGN d 377      26.473  14.967  25.127  0.00  0.00     0.081 H 
ATOM     39  H   SGN d 377      27.970  14.901  24.207  0.00  0.00     0.081 H 
ATOM     40  H   SGN d 377      25.337  19.419  24.448  0.00  0.00     0.131 H 
ATOM     41  O2  IXD d   2      28.657  14.350  19.275  0.00  0.00    -0.244 OA
ATOM     42  O3  IXD d   2      31.193  13.807  18.908  0.00  0.00    -0.393 OA
ATOM     43  C2  IXD d   2      29.492  15.489  19.517  0.00  0.00     0.132 C 
ATOM     44  O5  IXD d   2      30.176  17.101  21.160  0.00  0.00    -0.343 OA
ATOM     45  O2S IXD d   2      27.091  15.571  17.837  0.00  0.00    -0.572 OA
ATOM     46  O1S IXD d   2      27.081  13.091  17.761  0.00  0.00    -0.572 OA
ATOM     47  C3  IXD d   2      30.981  15.175  19.294  0.00  0.00     0.069 C 
ATOM     48  O3S IXD d   2      28.861  14.371  16.796  0.00  0.00    -0.572 OA
ATOM     49  S   IXD d   2      27.896  14.325  17.919  0.00  0.00     0.252 S 
ATOM     50  C4  IXD d   2      31.806  15.517  20.510  0.00  0.00    -0.005 C 
ATOM     51  C6  IXD d   2      32.609  17.518  21.668  0.00  0.00     0.203 C 
ATOM     52  O61 IXD d   2      33.737  17.037  21.916  0.00  0.00    -0.646 OA
ATOM     53  C1  IXD d   2      29.189  16.095  20.890  0.00  0.00     0.161 C 
ATOM     54  C5  IXD d   2      31.556  16.685  21.104  0.00  0.00     0.127 C 
ATOM     55  O62 IXD d   2      32.346  18.704  21.892  0.00  0.00    -0.646 OA
ATOM     56  H   IXD d   2      30.656  13.604  18.127  0.00  0.00     0.210 HD
ATOM     57  H   IXD d   2      29.258  16.240  18.793  0.00  0.00     0.097 H 
ATOM     58  H   IXD d   2      31.305  15.793  18.484  0.00  0.00     0.087 H 
ATOM     59  H   IXD d   2      32.834  15.520  20.211  0.00  0.00     0.041 H 
ATOM     60  H   IXD d   2      31.550  14.775  21.237  0.00  0.00     0.041 H 
ATOM     61  H   IXD d   2      28.511  15.267  20.899  0.00  0.00     0.133 H 
ATOM     62  H   IXD d   2      32.503  16.996  21.493  0.00  0.00     0.100 H 
ENDROOT
TORSDOF 13
ENDMDL
MODEL 2
REMARK VINA RESULT:     -10.8      2.624      7.146
REMARK  0 active torsions:
REMARK  status: ('A' for Active; 'I' for Inactive)
REMARK       I    between atoms: O2_2  and  S_22 
REMARK       I    between atoms: O2_2  and  C2_6 
REMARK       I    between atoms: O3S_3  and  S1_31 
REMARK       I    between atoms: O2S_4  and  S1_31 
REMARK       I    between atoms: O3_5  and  C3_13 
REMARK       I    between atoms: C2_12  and  N_17 
REMARK       I    between atoms: N_17  and  S1_31 
REMARK       I    between atoms: C3_23  and  O3_27 
REMARK       I    between atoms: C4_25  and  O4_26 
REMARK       I    between atoms: O4_26  and  C1_34 
REMARK       I    between atoms: O1S_29  and  S1_31 
REMARK       I    between atoms: C6_30  and  C5_35 
REMARK       I    between atoms: O1_33  and  C1_41 
ROOT
ATOM      1  O6  SGN d 377      29.231  16.374  20.924  0.00  0.00    -0.249 OA
ATOM      2  O3S SGN d 377      28.269  16.789  28.332  0.00  0.00    -0.296 OA
ATOM      3  O2S SGN d 377      30.094  15.938  26.956  0.00  0.00    -0.296 OA
ATOM      4  O4S SGN d 377      28.376  19.234  19.331  0.00  0.00    -0.066 OA
ATOM      5  O4S SGN d 377      31.308  17.423  19.990  0.00  0.00    -0.166 OA
ATOM      6  C2  SGN d 377      27.921  15.867  25.174  0.00  0.00     0.081 C 
ATOM      7  O6  SGN d 377      27.767  17.534  20.875  0.00  0.00    -0.249 OA
ATOM      8  O6S SGN d 377      26.035  18.996  19.988  0.00  0.00    -0.166 OA
ATOM      9  N   SGN d 377      27.698  15.353  26.508  0.00  0.00    -0.210 NA
ATOM     10  S2  SGN d 377      27.282  18.304  19.627  0.00  0.00     0.429 S 
ATOM     11  O5  SGN d 377      28.423  15.127  22.979  0.00  0.00    -0.342 OA
ATOM     12  O5S SGN d 377      27.113  17.335  18.543  0.00  0.00    -0.166 OA
ATOM     13  C6  SGN d 377      27.753  16.126  20.931  0.00  0.00     0.073 C 
ATOM     14  C3  SGN d 377      26.735  16.651  24.629  0.00  0.00     0.084 C 
ATOM     15  C4  SGN d 377      27.038  17.049  23.178  0.00  0.00     0.102 C 
ATOM     16  O4  SGN d 377      25.997  17.832  22.591  0.00  0.00    -0.347 OA
ATOM     17  O3  SGN d 377      26.577  17.767  25.484  0.00  0.00    -0.391 OA
ATOM     18  O5S SGN d 377      30.027  15.953  18.641  0.00  0.00    -0.166 OA
ATOM     19  O1S SGN d 377      28.979  14.473  28.481  0.00  0.00    -0.296 OA
ATOM     20  S1  SGN d 377      28.815  15.652  27.615  0.00  0.00     0.156 S 
ATOM     21  O1  SGN d 377      27.140  13.769  24.298  0.00  0.00    -0.369 OA
ATOM     22  O6S SGN d 377      29.119  18.142  19.250  0.00  0.00    -0.066 OA
ATOM     23  C5  SGN d 377      27.350  15.787  22.359  0.00  0.00     0.138 C 
ATOM     24  C6  SGN d 377      27.848  16.054  20.930  0.00  0.00     0.073 C 
ATOM     25  S2  SGN d 377      29.925  16.990  19.670  0.00  0.00     0.429 S 
ATOM     26  C1  SGN d 377      28.220  14.688  24.284  0.00  0.00     0.148 C 
ATOM     27  H   SGN d 377      28.178  17.541  27.725  0.00  0.00     0.231 HD
ATOM     28  H   SGN d 377      29.996  16.714  26.383  0.00  0.00     0.231 HD
ATOM     29  H   SGN d 377      28.737  16.560  25.202  0.00  0.00     0.076 H 
ATOM     30  H   SGN d 377      27.607  14.339  26.433  0.00  0.00     0.140 HD
ATOM     31  H   SGN d 377      28.723  15.732  20.711  0.00  0.00     0.081 H 
ATOM     32  H   SGN d 377      27.079  15.705  20.215  0.00  0.00     0.081 H 
ATOM     33  H   SGN d 377      25.825  16.090  24.612  0.00  0.00     0.089 H 
ATOM     34  H   SGN d 377      27.899  17.684  23.176  0.00  0.00     0.092 H 
ATOM     35  H   SGN d 377      27.401  18.278  25.502  0.00  0.00     0.210 HD
ATOM     36  H   SGN d 377      29.656  14.656  29.151  0.00  0.00     0.231 HD
ATOM     37  H   SGN d 377      26.992  13.458  25.205  0.00  0.00     0.212 HD
ATOM     38  H   SGN d 377      27.688  15.179  20.335  0.00  0.00     0.081 H 
ATOM     39  H   SGN d 377      27.305  16.884  20.529  0.00  0.00     0.081 H 
ATOM     40  H   SGN d 377      29.100  14.201  24.650  0.00  0.00     0.131 H 
ATOM     41  O2  IXD d   2      23.177  19.028  22.393  0.00  0.00    -0.244 OA
ATOM     42  O3  IXD d   2      23.281  21.569  21.765  0.00  0.00    -0.393 OA
ATOM     43  C2  IXD d   2      24.180  19.726  23.140  0.00  0.00     0.132 C 
ATOM     44  O5  IXD d   2      26.528  19.852  23.625  0.00  0.00    -0.343 OA
ATOM     45  O2S IXD d   2      22.204  17.937  24.362  0.00  0.00    -0.572 OA
ATOM     46  O1S IXD d   2      20.875  18.005  22.268  0.00  0.00    -0.572 OA
ATOM     47  C3  IXD d   2      24.237  21.220  22.779  0.00  0.00     0.069 C 
ATOM     48  O3S IXD d   2      21.216  19.964  23.604  0.00  0.00    -0.572 OA
ATOM     49  S   IXD d   2      21.852  18.708  23.141  0.00  0.00     0.252 S 
ATOM     50  C4  IXD d   2      25.626  21.637  22.364  0.00  0.00    -0.005 C 
ATOM     51  C6  IXD d   2      27.809  22.011  23.406  0.00  0.00     0.203 C 
ATOM     52  O61 IXD d   2      28.068  23.024  22.719  0.00  0.00    -0.646 OA
ATOM     53  C1  IXD d   2      25.530  19.013  23.026  0.00  0.00     0.161 C 
ATOM     54  C5  IXD d   2      26.640  21.194  23.109  0.00  0.00     0.127 C 
ATOM     55  O62 IXD d   2      28.526  21.667  24.352  0.00  0.00    -0.646 OA
ATOM     56  H   IXD d   2      22.395  21.294  22.048  0.00  0.00     0.210 HD
ATOM     57  H   IXD d   2      23.909  19.704  24.174  0.00  0.00     0.097 H 
ATOM     58  H   IXD d   2      23.977  21.758  23.667  0.00  0.00     0.087 H 
ATOM     59  H   IXD d   2      25.659  22.707  22.376  0.00  0.00     0.041 H 
ATOM     60  H   IXD d   2      25.774  21.191  21.402  0.00  0.00     0.041 H 
ATOM     61  H   IXD d   2      24.933  18.382  22.401  0.00  0.00     0.133 H 
ATOM     62  H   IXD d   2      27.371  21.974  23.058  0.00  0.00     0.100 H 
ENDROOT
TORSDOF 13
ENDMDL
MODEL 3
REMARK VINA RESULT:      -9.6      3.458      5.424
REMARK  0 active torsions:
REMARK  status: ('A' for Active; 'I' for Inactive)
REMARK       I    between atoms: O2_2  and  S_22 
REMARK       I    between atoms: O2_2  and  C2_6 
REMARK       I    between atoms: O3S_3  and  S1_31 
REMARK       I    between atoms: O2S_4  and  S1_31 
REMARK       I    between atoms: O3_5  and  C3_13 
REMARK       I    between atoms: C2_12  and  N_17 
REMARK       I    between atoms: N_17  and  S1_31 
REMARK       I    between atoms: C3_23  and  O3_27 
REMARK       I    between atoms: C4_25  and  O4_26 
REMARK       I    between atoms: O4_26  and  C1_34 
REMARK       I    between atoms: O1S_29  and  S1_31 
REMARK       I    between atoms: C6_30  and  C5_35 
REMARK       I    between atoms: O1_33  and  C1_41 
ROOT
ATOM      1  O6  SGN d 377      32.708  11.598  23.738  0.00  0.00    -0.249 OA
ATOM      2  O3S SGN d 377      27.822  16.592  26.415  0.00  0.00    -0.296 OA
ATOM      3  O2S SGN d 377      29.514  15.205  27.494  0.00  0.00    -0.296 OA
ATOM      4  O4S SGN d 377      34.308  12.690  20.963  0.00  0.00    -0.066 OA
ATOM      5  O4S SGN d 377      35.125  11.964  24.298  0.00  0.00    -0.166 OA
ATOM      6  C2  SGN d 377      29.071  13.835  25.080  0.00  0.00     0.081 C 
ATOM      7  O6  SGN d 377      32.243  12.336  22.085  0.00  0.00    -0.249 OA
ATOM      8  O6S SGN d 377      32.226  12.744  19.686  0.00  0.00    -0.166 OA
ATOM      9  N   SGN d 377      27.904  14.280  25.810  0.00  0.00    -0.210 NA
ATOM     10  S2  SGN d 377      32.989  12.083  20.756  0.00  0.00     0.429 S 
ATOM     11  O5  SGN d 377      30.400  11.902  24.743  0.00  0.00    -0.342 OA
ATOM     12  O5S SGN d 377      33.103  10.635  20.577  0.00  0.00    -0.166 OA
ATOM     13  C6  SGN d 377      31.595  11.296  22.782  0.00  0.00     0.073 C 
ATOM     14  C3  SGN d 377      28.927  13.989  23.572  0.00  0.00     0.084 C 
ATOM     15  C4  SGN d 377      30.168  13.385  22.900  0.00  0.00     0.102 C 
ATOM     16  O4  SGN d 377      30.148  13.523  21.478  0.00  0.00    -0.347 OA
ATOM     17  O3  SGN d 377      28.791  15.375  23.331  0.00  0.00    -0.391 OA
ATOM     18  O5S SGN d 377      34.427   9.875  23.419  0.00  0.00    -0.166 OA
ATOM     19  O1S SGN d 377      27.219  14.977  28.123  0.00  0.00    -0.296 OA
ATOM     20  S1  SGN d 377      28.130  15.308  27.017  0.00  0.00     0.156 S 
ATOM     21  O1  SGN d 377      28.160  11.610  25.099  0.00  0.00    -0.369 OA
ATOM     22  O6S SGN d 377      34.390  11.864  21.994  0.00  0.00    -0.066 OA
ATOM     23  C5  SGN d 377      30.326  11.921  23.341  0.00  0.00     0.138 C 
ATOM     24  C6  SGN d 377      31.629  11.248  22.886  0.00  0.00     0.073 C 
ATOM     25  S2  SGN d 377      34.191  11.319  23.342  0.00  0.00     0.429 S 
ATOM     26  C1  SGN d 377      29.296  12.388  25.437  0.00  0.00     0.148 C 
ATOM     27  H   SGN d 377      28.445  16.769  25.693  0.00  0.00     0.231 HD
ATOM     28  H   SGN d 377      30.122  15.421  26.771  0.00  0.00     0.231 HD
ATOM     29  H   SGN d 377      29.905  14.446  25.356  0.00  0.00     0.076 H 
ATOM     30  H   SGN d 377      27.451  13.452  26.196  0.00  0.00     0.140 HD
ATOM     31  H   SGN d 377      32.214  10.932  23.575  0.00  0.00     0.081 H 
ATOM     32  H   SGN d 377      31.383  10.462  22.147  0.00  0.00     0.081 H 
ATOM     33  H   SGN d 377      28.079  13.477  23.170  0.00  0.00     0.089 H 
ATOM     34  H   SGN d 377      31.027  13.937  23.222  0.00  0.00     0.092 H 
ATOM     35  H   SGN d 377      29.559  15.843  23.695  0.00  0.00     0.210 HD
ATOM     36  H   SGN d 377      27.357  15.600  28.854  0.00  0.00     0.231 HD
ATOM     37  H   SGN d 377      27.386  11.943  25.579  0.00  0.00     0.212 HD
ATOM     38  H   SGN d 377      31.499  10.186  22.903  0.00  0.00     0.081 H 
ATOM     39  H   SGN d 377      31.856  11.581  21.895  0.00  0.00     0.081 H 
ATOM     40  H   SGN d 377      29.465  12.321  26.492  0.00  0.00     0.131 H 
ATOM     41  O2  IXD d   2      28.869  14.084  18.746  0.00  0.00    -0.244 OA
ATOM     42  O3  IXD d   2      30.406  15.628  17.292  0.00  0.00    -0.393 OA
ATOM     43  C2  IXD d   2      29.404  15.176  19.502  0.00  0.00     0.132 C 
ATOM     44  O5  IXD d   2      30.762  15.770  21.391  0.00  0.00    -0.343 OA
ATOM     45  O2S IXD d   2      26.567  14.438  19.513  0.00  0.00    -0.572 OA
ATOM     46  O1S IXD d   2      26.941  13.041  17.497  0.00  0.00    -0.572 OA
ATOM     47  C3  IXD d   2      30.300  16.089  18.648  0.00  0.00     0.069 C 
ATOM     48  O3S IXD d   2      27.220  15.419  17.447  0.00  0.00    -0.572 OA
ATOM     49  S   IXD d   2      27.387  14.215  18.294  0.00  0.00     0.252 S 
ATOM     50  C4  IXD d   2      31.669  16.250  19.261  0.00  0.00    -0.005 C 
ATOM     51  C6  IXD d   2      32.690  17.378  21.178  0.00  0.00     0.203 C 
ATOM     52  O61 IXD d   2      33.711  17.731  20.547  0.00  0.00    -0.646 OA
ATOM     53  C1  IXD d   2      30.081  14.665  20.777  0.00  0.00     0.161 C 
ATOM     54  C5  IXD d   2      31.723  16.472  20.576  0.00  0.00     0.127 C 
ATOM     55  O62 IXD d   2      32.466  17.780  22.325  0.00  0.00    -0.646 OA
ATOM     56  H   IXD d   2      29.518  15.529  16.913  0.00  0.00     0.210 HD
ATOM     57  H   IXD d   2      28.595  15.801  19.815  0.00  0.00     0.097 H 
ATOM     58  H   IXD d   2      29.827  17.048  18.628  0.00  0.00     0.087 H 
ATOM     59  H   IXD d   2      32.145  17.077  18.775  0.00  0.00     0.041 H 
ATOM     60  H   IXD d   2      32.150  15.305  19.119  0.00  0.00     0.041 H 
ATOM     61  H   IXD d   2      29.777  13.736  20.343  0.00  0.00     0.133 H 
ATOM     62  H   IXD d   2      32.585  17.092  20.708  0.00  0.00     0.100 H 
ENDROOT
TORSDOF 13
ENDMDL
MODEL 4
REMARK VINA RESULT:      -9.5      3.504      7.061
REMARK  0 active torsions:
REMARK  status: ('A' for Active; 'I' for Inactive)
REMARK       I    between atoms: O2_2  and  S_22 
REMARK       I    between atoms: O2_2  and  C2_6 
REMARK       I    between atoms: O3S_3  and  S1_31 
REMARK       I    between atoms: O2S_4  and  S1_31 
REMARK       I    between atoms: O3_5  and  C3_13 
REMARK       I    between atoms: C2_12  and  N_17 
REMARK       I    between atoms: N_17  and  S1_31 
REMARK       I    between atoms: C3_23  and  O3_27 
REMARK       I    between atoms: C4_25  and  O4_26 
REMARK       I    between atoms: O4_26  and  C1_34 
REMARK       I    between atoms: O1S_29  and  S1_31 
REMARK       I    between atoms: C6_30  and  C5_35 
REMARK       I    between atoms: O1_33  and  C1_41 
ROOT
ATOM      1  O6  SGN d 377      32.535  17.831  19.315  0.00  0.00    -0.249 OA
ATOM      2  O3S SGN d 377      27.314  12.803  17.462  0.00  0.00    -0.296 OA
ATOM      3  O2S SGN d 377      28.412  14.576  16.197  0.00  0.00    -0.296 OA
ATOM      4  O4S SGN d 377      35.096  16.475  21.063  0.00  0.00    -0.066 OA
ATOM      5  O4S SGN d 377      34.600  17.898  17.894  0.00  0.00    -0.166 OA
ATOM      6  C2  SGN d 377      28.798  15.412  18.853  0.00  0.00     0.081 C 
ATOM      7  O6  SGN d 377      32.748  16.750  20.825  0.00  0.00    -0.249 OA
ATOM      8  O6S SGN d 377      33.629  15.913  22.934  0.00  0.00    -0.166 OA
ATOM      9  N   SGN d 377      27.474  14.956  18.491  0.00  0.00    -0.210 NA
ATOM     10  S2  SGN d 377      33.910  16.853  21.837  0.00  0.00     0.429 S 
ATOM     11  O5  SGN d 377      30.042  17.411  19.125  0.00  0.00    -0.342 OA
ATOM     12  O5S SGN d 377      33.995  18.246  22.277  0.00  0.00    -0.166 OA
ATOM     13  C6  SGN d 377      31.830  17.803  20.638  0.00  0.00     0.073 C 
ATOM     14  C3  SGN d 377      29.222  14.968  20.247  0.00  0.00     0.084 C 
ATOM     15  C4  SGN d 377      30.585  15.599  20.565  0.00  0.00     0.102 C 
ATOM     16  O4  SGN d 377      31.092  15.203  21.841  0.00  0.00    -0.347 OA
ATOM     17  O3  SGN d 377      29.265  13.555  20.211  0.00  0.00    -0.391 OA
ATOM     18  O5S SGN d 377      34.147  19.681  19.392  0.00  0.00    -0.166 OA
ATOM     19  O1S SGN d 377      26.036  14.607  16.461  0.00  0.00    -0.296 OA
ATOM     20  S1  SGN d 377      27.306  14.205  17.087  0.00  0.00     0.156 S 
ATOM     21  O1  SGN d 377      27.813  17.462  19.633  0.00  0.00    -0.369 OA
ATOM     22  O6S SGN d 377      34.749  17.479  20.273  0.00  0.00    -0.066 OA
ATOM     23  C5  SGN d 377      30.484  17.127  20.427  0.00  0.00     0.138 C 
ATOM     24  C6  SGN d 377      31.821  17.873  20.541  0.00  0.00     0.073 C 
ATOM     25  S2  SGN d 377      34.041  18.228  19.229  0.00  0.00     0.429 S 
ATOM     26  C1  SGN d 377      28.791  16.917  18.765  0.00  0.00     0.148 C 
ATOM     27  H   SGN d 377      28.166  12.582  17.869  0.00  0.00     0.231 HD
ATOM     28  H   SGN d 377      29.253  14.315  16.602  0.00  0.00     0.231 HD
ATOM     29  H   SGN d 377      29.509  14.978  18.181  0.00  0.00     0.076 H 
ATOM     30  H   SGN d 377      26.863  15.773  18.474  0.00  0.00     0.140 HD
ATOM     31  H   SGN d 377      32.096  18.385  19.780  0.00  0.00     0.081 H 
ATOM     32  H   SGN d 377      31.815  18.472  21.472  0.00  0.00     0.081 H 
ATOM     33  H   SGN d 377      28.549  15.280  21.017  0.00  0.00     0.089 H 
ATOM     34  H   SGN d 377      31.298  15.235  19.856  0.00  0.00     0.092 H 
ATOM     35  H   SGN d 377      29.874  13.268  19.513  0.00  0.00     0.210 HD
ATOM     36  H   SGN d 377      25.936  14.151  15.610  0.00  0.00     0.231 HD
ATOM     37  H   SGN d 377      26.938  17.122  19.388  0.00  0.00     0.212 HD
ATOM     38  H   SGN d 377      31.631  18.894  20.801  0.00  0.00     0.081 H 
ATOM     39  H   SGN d 377      32.413  17.399  21.296  0.00  0.00     0.081 H 
ATOM     40  H   SGN d 377      28.561  17.197  17.758  0.00  0.00     0.131 H 
ATOM     41  O2  IXD d   2      30.929  13.989  24.655  0.00  0.00    -0.244 OA
ATOM     42  O3  IXD d   2      32.978  12.425  25.118  0.00  0.00    -0.393 OA
ATOM     43  C2  IXD d   2      31.216  13.134  23.542  0.00  0.00     0.132 C 
ATOM     44  O5  IXD d   2      31.826  13.080  21.220  0.00  0.00    -0.343 OA
ATOM     45  O2S IXD d   2      28.531  13.478  24.668  0.00  0.00    -0.572 OA
ATOM     46  O1S IXD d   2      29.530  14.521  26.685  0.00  0.00    -0.572 OA
ATOM     47  C3  IXD d   2      32.414  12.209  23.815  0.00  0.00     0.069 C 
ATOM     48  O3S IXD d   2      29.948  12.232  26.117  0.00  0.00    -0.572 OA
ATOM     49  S   IXD d   2      29.724  13.582  25.548  0.00  0.00     0.252 S 
ATOM     50  C4  IXD d   2      33.473  12.345  22.749  0.00  0.00    -0.005 C 
ATOM     51  C6  IXD d   2      33.791  11.731  20.402  0.00  0.00     0.203 C 
ATOM     52  O61 IXD d   2      34.991  11.409  20.551  0.00  0.00    -0.646 OA
ATOM     53  C1  IXD d   2      31.352  13.954  22.255  0.00  0.00     0.161 C 
ATOM     54  C5  IXD d   2      33.058  12.376  21.482  0.00  0.00     0.127 C 
ATOM     55  O62 IXD d   2      33.189  11.520  19.344  0.00  0.00    -0.646 OA
ATOM     56  H   IXD d   2      32.285  12.334  25.790  0.00  0.00     0.210 HD
ATOM     57  H   IXD d   2      30.387  12.475  23.398  0.00  0.00     0.097 H 
ATOM     58  H   IXD d   2      32.038  11.207  23.788  0.00  0.00     0.087 H 
ATOM     59  H   IXD d   2      34.141  11.515  22.850  0.00  0.00     0.041 H 
ATOM     60  H   IXD d   2      33.916  13.305  22.920  0.00  0.00     0.041 H 
ATOM     61  H   IXD d   2      31.172  14.740  22.959  0.00  0.00     0.133 H 
ATOM     62  H   IXD d   2      33.848  11.911  20.929  0.00  0.00     0.100 H 
ENDROOT
TORSDOF 13
ENDMDL
MODEL 5
REMARK VINA RESULT:      -8.2      2.367      3.179
REMARK  0 active torsions:
REMARK  status: ('A' for Active; 'I' for Inactive)
REMARK       I    between atoms: O2_2  and  S_22 
REMARK       I    between atoms: O2_2  and  C2_6 
REMARK       I    between atoms: O3S_3  and  S1_31 
REMARK       I    between atoms: O2S_4  and  S1_31 
REMARK       I    between atoms: O3_5  and  C3_13 
REMARK       I    between atoms: C2_12  and  N_17 
REMARK       I    between atoms: N_17  and  S1_31 
REMARK       I    between atoms: C3_23  and  O3_27 
REMARK       I    between atoms: C4_25  and  O4_26 
REMARK       I    between atoms: O4_26  and  C1_34 
REMARK       I    between atoms: O1S_29  and  S1_31 
REMARK       I    between atoms: C6_30  and  C5_35 
REMARK       I    between atoms: O1_33  and  C1_41 
ROOT
ATOM      1  O6  SGN d 377      29.038  14.461  24.329  0.00  0.00    -0.249 OA
ATOM      2  O3S SGN d 377      27.764  19.936  19.392  0.00  0.00    -0.296 OA
ATOM      3  O2S SGN d 377      26.878  19.493  21.621  0.00  0.00    -0.296 OA
ATOM      4  O4S SGN d 377      32.330  13.764  24.690  0.00  0.00    -0.066 OA
ATOM      5  O4S SGN d 377      29.758  15.154  26.630  0.00  0.00    -0.166 OA
ATOM      6  C2  SGN d 377      27.793  16.956  20.828  0.00  0.00     0.081 C 
ATOM      7  O6  SGN d 377      30.491  14.077  23.218  0.00  0.00    -0.249 OA
ATOM      8  O6S SGN d 377      32.505  13.000  22.376  0.00  0.00    -0.166 OA
ATOM      9  N   SGN d 377      27.024  17.711  19.863  0.00  0.00    -0.210 NA
ATOM     10  S2  SGN d 377      31.648  13.115  23.567  0.00  0.00     0.429 S 
ATOM     11  O5  SGN d 377      27.541  15.231  22.434  0.00  0.00    -0.342 OA
ATOM     12  O5S SGN d 377      31.059  11.840  23.980  0.00  0.00    -0.166 OA
ATOM     13  C6  SGN d 377      29.162  13.625  23.092  0.00  0.00     0.073 C 
ATOM     14  C3  SGN d 377      28.953  16.193  20.202  0.00  0.00     0.084 C 
ATOM     15  C4  SGN d 377      29.624  15.345  21.292  0.00  0.00     0.102 C 
ATOM     16  O4  SGN d 377      30.758  14.623  20.810  0.00  0.00    -0.347 OA
ATOM     17  O3  SGN d 377      29.816  17.171  19.657  0.00  0.00    -0.391 OA
ATOM     18  O5S SGN d 377      29.037  12.928  26.246  0.00  0.00    -0.166 OA
ATOM     19  O1S SGN d 377      25.386  19.612  19.757  0.00  0.00    -0.296 OA
ATOM     20  S1  SGN d 377      26.751  19.257  20.178  0.00  0.00     0.156 S 
ATOM     21  O1  SGN d 377      26.242  15.140  20.554  0.00  0.00    -0.369 OA
ATOM     22  O6S SGN d 377      31.149  13.702  25.283  0.00  0.00    -0.066 OA
ATOM     23  C5  SGN d 377      28.576  14.423  21.937  0.00  0.00     0.138 C 
ATOM     24  C6  SGN d 377      29.072  13.648  23.167  0.00  0.00     0.073 C 
ATOM     25  S2  SGN d 377      29.769  14.045  25.644  0.00  0.00     0.429 S 
ATOM     26  C1  SGN d 377      26.845  16.000  21.505  0.00  0.00     0.148 C 
ATOM     27  H   SGN d 377      28.644  19.674  19.703  0.00  0.00     0.231 HD
ATOM     28  H   SGN d 377      27.775  19.261  21.908  0.00  0.00     0.231 HD
ATOM     29  H   SGN d 377      28.237  17.636  21.526  0.00  0.00     0.076 H 
ATOM     30  H   SGN d 377      26.117  17.254  19.771  0.00  0.00     0.140 HD
ATOM     31  H   SGN d 377      28.615  13.812  23.993  0.00  0.00     0.081 H 
ATOM     32  H   SGN d 377      29.114  12.571  22.915  0.00  0.00     0.081 H 
ATOM     33  H   SGN d 377      28.652  15.519  19.429  0.00  0.00     0.089 H 
ATOM     34  H   SGN d 377      30.010  16.005  22.041  0.00  0.00     0.092 H 
ATOM     35  H   SGN d 377      30.092  17.784  20.356  0.00  0.00     0.210 HD
ATOM     36  H   SGN d 377      25.222  20.549  19.949  0.00  0.00     0.231 HD
ATOM     37  H   SGN d 377      25.755  15.669  19.903  0.00  0.00     0.212 HD
ATOM     38  H   SGN d 377      28.444  12.794  23.319  0.00  0.00     0.081 H 
ATOM     39  H   SGN d 377      30.083  13.343  22.994  0.00  0.00     0.081 H 
ATOM     40  H   SGN d 377      26.083  16.569  21.996  0.00  0.00     0.131 H 
ATOM     41  O2  IXD d   2      32.610  13.440  18.668  0.00  0.00    -0.244 OA
ATOM     42  O3  IXD d   2      35.123  13.881  19.257  0.00  0.00    -0.393 OA
ATOM     43  C2  IXD d   2      32.830  14.782  19.116  0.00  0.00     0.132 C 
ATOM     44  O5  IXD d   2      32.256  16.409  20.786  0.00  0.00    -0.343 OA
ATOM     45  O2S IXD d   2      31.320  14.111  16.694  0.00  0.00    -0.572 OA
ATOM     46  O1S IXD d   2      32.241  11.809  16.780  0.00  0.00    -0.572 OA
ATOM     47  C3  IXD d   2      34.307  15.046  19.453  0.00  0.00     0.069 C 
ATOM     48  O3S IXD d   2      33.649  13.713  16.425  0.00  0.00    -0.572 OA
ATOM     49  S   IXD d   2      32.439  13.239  17.136  0.00  0.00     0.252 S 
ATOM     50  C4  IXD d   2      34.467  15.575  20.857  0.00  0.00    -0.005 C 
ATOM     51  C6  IXD d   2      34.024  17.641  22.092  0.00  0.00     0.203 C 
ATOM     52  O61 IXD d   2      35.085  17.585  22.753  0.00  0.00    -0.646 OA
ATOM     53  C1  IXD d   2      31.865  15.135  20.251  0.00  0.00     0.161 C 
ATOM     54  C5  IXD d   2      33.617  16.526  21.248  0.00  0.00     0.127 C 
ATOM     55  O62 IXD d   2      33.286  18.632  22.132  0.00  0.00    -0.646 OA
ATOM     56  H   IXD d   2      35.008  13.555  18.351  0.00  0.00     0.210 HD
ATOM     57  H   IXD d   2      32.609  15.449  18.309  0.00  0.00     0.097 H 
ATOM     58  H   IXD d   2      34.646  15.798  18.771  0.00  0.00     0.087 H 
ATOM     59  H   IXD d   2      35.458  15.973  20.941  0.00  0.00     0.041 H 
ATOM     60  H   IXD d   2      34.260  14.740  21.494  0.00  0.00     0.041 H 
ATOM     61  H   IXD d   2      31.579  14.120  20.073  0.00  0.00     0.133 H 
ATOM     62  H   IXD d   2      34.184  17.131  21.926  0.00  0.00     0.100 H 
ENDROOT
TORSDOF 13
ENDMDL
MODEL 6
REMARK VINA RESULT:      -8.1      2.508      6.455
REMARK  0 active torsions:
REMARK  status: ('A' for Active; 'I' for Inactive)
REMARK       I    between atoms: O2_2  and  S_22 
REMARK       I    between atoms: O2_2  and  C2_6 
REMARK       I    between atoms: O3S_3  and  S1_31 
REMARK       I    between atoms: O2S_4  and  S1_31 
REMARK       I    between atoms: O3_5  and  C3_13 
REMARK       I    between atoms: C2_12  and  N_17 
REMARK       I    between atoms: N_17  and  S1_31 
REMARK       I    between atoms: C3_23  and  O3_27 
REMARK       I    between atoms: C4_25  and  O4_26 
REMARK       I    between atoms: O4_26  and  C1_34 
REMARK       I    between atoms: O1S_29  and  S1_31 
REMARK       I    between atoms: C6_30  and  C5_35 
REMARK       I    between atoms: O1_33  and  C1_41 
ROOT
ATOM      1  O6  SGN d 377      27.213  14.638  18.658  0.00  0.00    -0.249 OA
ATOM      2  O3S SGN d 377      27.785  14.917  26.113  0.00  0.00    -0.296 OA
ATOM      3  O2S SGN d 377      25.998  14.176  24.627  0.00  0.00    -0.296 OA
ATOM      4  O4S SGN d 377      29.979  13.365  17.180  0.00  0.00    -0.066 OA
ATOM      5  O4S SGN d 377      26.633  12.418  17.648  0.00  0.00    -0.166 OA
ATOM      6  C2  SGN d 377      27.504  15.859  22.954  0.00  0.00     0.081 C 
ATOM      7  O6  SGN d 377      29.058  14.932  18.711  0.00  0.00    -0.249 OA
ATOM      8  O6S SGN d 377      31.349  15.237  17.947  0.00  0.00    -0.166 OA
ATOM      9  N   SGN d 377      27.207  16.345  24.284  0.00  0.00    -0.210 NA
ATOM     10  S2  SGN d 377      30.017  14.794  17.507  0.00  0.00     0.429 S 
ATOM     11  O5  SGN d 377      26.734  16.034  20.719  0.00  0.00    -0.342 OA
ATOM     12  O5S SGN d 377      29.473  15.595  16.410  0.00  0.00    -0.166 OA
ATOM     13  C6  SGN d 377      28.028  15.894  18.733  0.00  0.00     0.073 C 
ATOM     14  C3  SGN d 377      28.910  16.214  22.489  0.00  0.00     0.084 C 
ATOM     15  C4  SGN d 377      29.073  15.751  21.035  0.00  0.00     0.102 C 
ATOM     16  O4  SGN d 377      30.383  16.000  20.520  0.00  0.00    -0.347 OA
ATOM     17  O3  SGN d 377      29.793  15.559  23.377  0.00  0.00    -0.391 OA
ATOM     18  O5S SGN d 377      26.485  14.382  16.328  0.00  0.00    -0.166 OA
ATOM     19  O1S SGN d 377      25.593  15.957  26.169  0.00  0.00    -0.296 OA
ATOM     20  S1  SGN d 377      26.616  15.298  25.342  0.00  0.00     0.156 S 
ATOM     21  O1  SGN d 377      26.531  17.871  22.067  0.00  0.00    -0.369 OA
ATOM     22  O6S SGN d 377      28.678  13.559  17.035  0.00  0.00    -0.066 OA
ATOM     23  C5  SGN d 377      27.976  16.391  20.170  0.00  0.00     0.138 C 
ATOM     24  C6  SGN d 377      27.910  15.872  18.725  0.00  0.00     0.073 C 
ATOM     25  S2  SGN d 377      27.264  13.735  17.387  0.00  0.00     0.429 S 
ATOM     26  C1  SGN d 377      26.480  16.455  22.022  0.00  0.00     0.148 C 
ATOM     27  H   SGN d 377      28.430  14.487  25.530  0.00  0.00     0.231 HD
ATOM     28  H   SGN d 377      26.665  13.735  24.079  0.00  0.00     0.231 HD
ATOM     29  H   SGN d 377      27.461  14.790  22.959  0.00  0.00     0.076 H 
ATOM     30  H   SGN d 377      26.526  17.099  24.189  0.00  0.00     0.140 HD
ATOM     31  H   SGN d 377      27.094  15.450  18.455  0.00  0.00     0.081 H 
ATOM     32  H   SGN d 377      28.209  16.689  18.041  0.00  0.00     0.081 H 
ATOM     33  H   SGN d 377      29.111  17.264  22.503  0.00  0.00     0.089 H 
ATOM     34  H   SGN d 377      28.960  14.688  21.005  0.00  0.00     0.092 H 
ATOM     35  H   SGN d 377      29.613  14.606  23.367  0.00  0.00     0.210 HD
ATOM     36  H   SGN d 377      25.235  15.322  26.809  0.00  0.00     0.231 HD
ATOM     37  H   SGN d 377      26.355  18.172  22.972  0.00  0.00     0.212 HD
ATOM     38  H   SGN d 377      27.405  16.594  18.117  0.00  0.00     0.081 H 
ATOM     39  H   SGN d 377      28.909  15.719  18.373  0.00  0.00     0.081 H 
ATOM     40  H   SGN d 377      25.509  16.129  22.331  0.00  0.00     0.131 H 
ATOM     41  O2  IXD d   2      33.176  17.271  20.492  0.00  0.00    -0.244 OA
ATOM     42  O3  IXD d   2      35.009  15.489  19.922  0.00  0.00    -0.393 OA
ATOM     43  C2  IXD d   2      32.974  16.046  21.205  0.00  0.00     0.132 C 
ATOM     44  O5  IXD d   2      31.458  14.222  21.575  0.00  0.00    -0.343 OA
ATOM     45  O2S IXD d   2      32.927  18.686  22.479  0.00  0.00    -0.572 OA
ATOM     46  O1S IXD d   2      33.983  19.661  20.456  0.00  0.00    -0.572 OA
ATOM     47  C3  IXD d   2      34.055  15.001  20.879  0.00  0.00     0.069 C 
ATOM     48  O3S IXD d   2      35.125  18.058  21.822  0.00  0.00    -0.572 OA
ATOM     49  S   IXD d   2      33.795  18.448  21.297  0.00  0.00     0.252 S 
ATOM     50  C4  IXD d   2      33.446  13.705  20.405  0.00  0.00    -0.005 C 
ATOM     51  C6  IXD d   2      32.195  11.823  21.346  0.00  0.00     0.203 C 
ATOM     52  O61 IXD d   2      32.801  10.961  20.672  0.00  0.00    -0.646 OA
ATOM     53  C1  IXD d   2      31.544  15.536  21.006  0.00  0.00     0.161 C 
ATOM     54  C5  IXD d   2      32.397  13.242  21.088  0.00  0.00     0.127 C 
ATOM     55  O62 IXD d   2      31.409  11.508  22.246  0.00  0.00    -0.646 OA
ATOM     56  H   IXD d   2      35.390  16.322  20.242  0.00  0.00     0.210 HD
ATOM     57  H   IXD d   2      33.087  16.240  22.250  0.00  0.00     0.097 H 
ATOM     58  H   IXD d   2      34.581  14.811  21.791  0.00  0.00     0.087 H 
ATOM     59  H   IXD d   2      34.211  12.956  20.441  0.00  0.00     0.041 H 
ATOM     60  H   IXD d   2      33.068  13.917  19.426  0.00  0.00     0.041 H 
ATOM     61  H   IXD d   2      31.515  16.415  20.396  0.00  0.00     0.133 H 
ATOM     62  H   IXD d   2      32.481  12.177  21.019  0.00  0.00     0.100 H 
ENDROOT
TORSDOF 13
ENDMDL
MODEL 7
REMARK VINA RESULT:      -7.9      2.385      6.037
REMARK  0 active torsions:
REMARK  status: ('A' for Active; 'I' for Inactive)
REMARK       I    between atoms: O2_2  and  S_22 
REMARK       I    between atoms: O2_2  and  C2_6 
REMARK       I    between atoms: O3S_3  and  S1_31 
REMARK       I    between atoms: O2S_4  and  S1_31 
REMARK       I    between atoms: O3_5  and  C3_13 
REMARK       I    between atoms: C2_12  and  N_17 
REMARK       I    between atoms: N_17  and  S1_31 
REMARK       I    between atoms: C3_23  and  O3_27 
REMARK       I    between atoms: C4_25  and  O4_26 
REMARK       I    between atoms: O4_26  and  C1_34 
REMARK       I    between atoms: O1S_29  and  S1_31 
REMARK       I    between atoms: C6_30  and  C5_35 
REMARK       I    between atoms: O1_33  and  C1_41 
ROOT
ATOM      1  O6  SGN d 377      27.035  15.189  18.513  0.00  0.00    -0.249 OA
ATOM      2  O3S SGN d 377      26.909  17.413  25.655  0.00  0.00    -0.296 OA
ATOM      3  O2S SGN d 377      25.182  16.524  24.178  0.00  0.00    -0.296 OA
ATOM      4  O4S SGN d 377      29.698  13.227  17.799  0.00  0.00    -0.066 OA
ATOM      5  O4S SGN d 377      26.216  12.869  18.033  0.00  0.00    -0.166 OA
ATOM      6  C2  SGN d 377      27.091  17.487  22.353  0.00  0.00     0.081 C 
ATOM      7  O6  SGN d 377      28.889  15.254  18.739  0.00  0.00    -0.249 OA
ATOM      8  O6S SGN d 377      31.263  15.050  18.242  0.00  0.00    -0.166 OA
ATOM      9  N   SGN d 377      26.744  18.350  23.462  0.00  0.00    -0.210 NA
ATOM     10  S2  SGN d 377      29.927  14.675  17.753  0.00  0.00     0.429 S 
ATOM     11  O5  SGN d 377      26.581  17.142  20.064  0.00  0.00    -0.342 OA
ATOM     12  O5S SGN d 377      29.626  15.209  16.424  0.00  0.00    -0.166 OA
ATOM     13  C6  SGN d 377      28.025  16.306  18.374  0.00  0.00     0.073 C 
ATOM     14  C3  SGN d 377      28.573  17.524  22.008  0.00  0.00     0.084 C 
ATOM     15  C4  SGN d 377      28.804  16.666  20.757  0.00  0.00     0.102 C 
ATOM     16  O4  SGN d 377      30.180  16.600  20.379  0.00  0.00    -0.347 OA
ATOM     17  O3  SGN d 377      29.252  17.030  23.147  0.00  0.00    -0.391 OA
ATOM     18  O5S SGN d 377      26.508  14.402  16.248  0.00  0.00    -0.166 OA
ATOM     19  O1S SGN d 377      24.912  18.694  25.145  0.00  0.00    -0.296 OA
ATOM     20  S1  SGN d 377      25.896  17.713  24.661  0.00  0.00     0.156 S 
ATOM     21  O1  SGN d 377      26.537  19.287  20.858  0.00  0.00    -0.369 OA
ATOM     22  O6S SGN d 377      28.464  13.535  17.434  0.00  0.00    -0.066 OA
ATOM     23  C5  SGN d 377      27.911  17.178  19.616  0.00  0.00     0.138 C 
ATOM     24  C6  SGN d 377      27.907  16.298  18.357  0.00  0.00     0.073 C 
ATOM     25  S2  SGN d 377      27.068  13.976  17.533  0.00  0.00     0.429 S 
ATOM     26  C1  SGN d 377      26.269  17.930  21.169  0.00  0.00     0.148 C 
ATOM     27  H   SGN d 377      27.533  16.764  25.295  0.00  0.00     0.231 HD
ATOM     28  H   SGN d 377      25.823  15.871  23.857  0.00  0.00     0.231 HD
ATOM     29  H   SGN d 377      26.881  16.473  22.624  0.00  0.00     0.076 H 
ATOM     30  H   SGN d 377      26.202  19.128  23.085  0.00  0.00     0.140 HD
ATOM     31  H   SGN d 377      27.065  15.924  18.095  0.00  0.00     0.081 H 
ATOM     32  H   SGN d 377      28.396  16.854  17.534  0.00  0.00     0.081 H 
ATOM     33  H   SGN d 377      28.935  18.504  21.782  0.00  0.00     0.089 H 
ATOM     34  H   SGN d 377      28.529  15.657  20.985  0.00  0.00     0.092 H 
ATOM     35  H   SGN d 377      28.927  16.140  23.356  0.00  0.00     0.210 HD
ATOM     36  H   SGN d 377      24.399  18.307  25.871  0.00  0.00     0.231 HD
ATOM     37  H   SGN d 377      26.322  19.842  21.623  0.00  0.00     0.212 HD
ATOM     38  H   SGN d 377      27.583  16.884  17.522  0.00  0.00     0.081 H 
ATOM     39  H   SGN d 377      28.899  15.931  18.194  0.00  0.00     0.081 H 
ATOM     40  H   SGN d 377      25.233  17.825  21.416  0.00  0.00     0.131 H 
ATOM     41  O2  IXD d   2      33.128  17.456  20.408  0.00  0.00    -0.244 OA
ATOM     42  O3  IXD d   2      34.706  15.372  20.567  0.00  0.00    -0.393 OA
ATOM     43  C2  IXD d   2      32.668  16.506  21.376  0.00  0.00     0.132 C 
ATOM     44  O5  IXD d   2      30.855  15.056  21.990  0.00  0.00    -0.343 OA
ATOM     45  O2S IXD d   2      32.909  19.378  21.915  0.00  0.00    -0.572 OA
ATOM     46  O1S IXD d   2      34.298  19.625  19.874  0.00  0.00    -0.572 OA
ATOM     47  C3  IXD d   2      33.598  15.285  21.478  0.00  0.00     0.069 C 
ATOM     48  O3S IXD d   2      35.036  18.325  21.746  0.00  0.00    -0.572 OA
ATOM     49  S   IXD d   2      33.842  18.721  20.963  0.00  0.00     0.252 S 
ATOM     50  C4  IXD d   2      32.843  13.995  21.272  0.00  0.00    -0.005 C 
ATOM     51  C6  IXD d   2      31.226  12.613  22.482  0.00  0.00     0.203 C 
ATOM     52  O61 IXD d   2      31.753  11.531  22.140  0.00  0.00    -0.646 OA
ATOM     53  C1  IXD d   2      31.202  16.144  21.121  0.00  0.00     0.161 C 
ATOM     54  C5  IXD d   2      31.673  13.871  21.901  0.00  0.00     0.127 C 
ATOM     55  O62 IXD d   2      30.316  12.655  23.317  0.00  0.00    -0.646 OA
ATOM     56  H   IXD d   2      35.180  16.206  20.713  0.00  0.00     0.210 HD
ATOM     57  H   IXD d   2      32.706  16.962  22.343  0.00  0.00     0.097 H 
ATOM     58  H   IXD d   2      33.995  15.286  22.471  0.00  0.00     0.087 H 
ATOM     59  H   IXD d   2      33.473  13.196  21.602  0.00  0.00     0.041 H 
ATOM     60  H   IXD d   2      32.600  13.979  20.230  0.00  0.00     0.041 H 
ATOM     61  H   IXD d   2      31.371  16.821  20.309  0.00  0.00     0.133 H 
ATOM     62  H   IXD d   2      31.595  12.826  22.118  0.00  0.00     0.100 H 
ENDROOT
TORSDOF 13
ENDMDL
MODEL 8
REMARK VINA RESULT:      -7.0      2.991      7.001
REMARK  0 active torsions:
REMARK  status: ('A' for Active; 'I' for Inactive)
REMARK       I    between atoms: O2_2  and  S_22 
REMARK       I    between atoms: O2_2  and  C2_6 
REMARK       I    between atoms: O3S_3  and  S1_31 
REMARK       I    between atoms: O2S_4  and  S1_31 
REMARK       I    between atoms: O3_5  and  C3_13 
REMARK       I    between atoms: C2_12  and  N_17 
REMARK       I    between atoms: N_17  and  S1_31 
REMARK       I    between atoms: C3_23  and  O3_27 
REMARK       I    between atoms: C4_25  and  O4_26 
REMARK       I    between atoms: O4_26  and  C1_34 
REMARK       I    between atoms: O1S_29  and  S1_31 
REMARK       I    between atoms: C6_30  and  C5_35 
REMARK       I    between atoms: O1_33  and  C1_41 
ROOT
ATOM      1  O6  SGN d 377      33.392  16.600  21.992  0.00  0.00    -0.249 OA
ATOM      2  O3S SGN d 377      29.191  11.171  24.968  0.00  0.00    -0.296 OA
ATOM      3  O2S SGN d 377      31.266  12.230  25.693  0.00  0.00    -0.296 OA
ATOM      4  O4S SGN d 377      31.558  19.231  20.912  0.00  0.00    -0.066 OA
ATOM      5  O4S SGN d 377      33.890  18.577  23.451  0.00  0.00    -0.166 OA
ATOM      6  C2  SGN d 377      31.242  12.791  22.939  0.00  0.00     0.081 C 
ATOM      7  O6  SGN d 377      31.898  16.879  20.905  0.00  0.00    -0.249 OA
ATOM      8  O6S SGN d 377      30.450  17.866  19.216  0.00  0.00    -0.166 OA
ATOM      9  N   SGN d 377      30.922  11.438  23.339  0.00  0.00    -0.210 NA
ATOM     10  S2  SGN d 377      31.681  18.101  19.986  0.00  0.00     0.429 S 
ATOM     11  O5  SGN d 377      33.057  14.092  22.144  0.00  0.00    -0.342 OA
ATOM     12  O5S SGN d 377      32.871  18.243  19.145  0.00  0.00    -0.166 OA
ATOM     13  C6  SGN d 377      32.959  15.975  20.701  0.00  0.00     0.073 C 
ATOM     14  C3  SGN d 377      30.389  13.288  21.779  0.00  0.00     0.084 C 
ATOM     15  C4  SGN d 377      30.888  14.680  21.369  0.00  0.00     0.102 C 
ATOM     16  O4  SGN d 377      30.117  15.253  20.311  0.00  0.00    -0.347 OA
ATOM     17  O3  SGN d 377      29.056  13.298  22.250  0.00  0.00    -0.391 OA
ATOM     18  O5S SGN d 377      35.125  18.253  21.453  0.00  0.00    -0.166 OA
ATOM     19  O1S SGN d 377      31.219   9.875  25.283  0.00  0.00    -0.296 OA
ATOM     20  S1  SGN d 377      30.641  11.171  24.893  0.00  0.00     0.156 S 
ATOM     21  O1  SGN d 377      32.953  11.898  21.505  0.00  0.00    -0.369 OA
ATOM     22  O6S SGN d 377      32.757  18.859  21.331  0.00  0.00    -0.066 OA
ATOM     23  C5  SGN d 377      32.384  14.604  21.024  0.00  0.00     0.138 C 
ATOM     24  C6  SGN d 377      33.056  15.962  20.770  0.00  0.00     0.073 C 
ATOM     25  S2  SGN d 377      33.794  18.107  22.047  0.00  0.00     0.429 S 
ATOM     26  C1  SGN d 377      32.700  12.811  22.559  0.00  0.00     0.148 C 
ATOM     27  H   SGN d 377      28.854  12.042  24.704  0.00  0.00     0.231 HD
ATOM     28  H   SGN d 377      30.891  13.088  25.443  0.00  0.00     0.231 HD
ATOM     29  H   SGN d 377      31.035  13.452  23.755  0.00  0.00     0.076 H 
ATOM     30  H   SGN d 377      31.706  10.845  23.065  0.00  0.00     0.140 HD
ATOM     31  H   SGN d 377      33.777  16.202  21.353  0.00  0.00     0.081 H 
ATOM     32  H   SGN d 377      33.339  16.024  19.702  0.00  0.00     0.081 H 
ATOM     33  H   SGN d 377      30.449  12.669  20.909  0.00  0.00     0.089 H 
ATOM     34  H   SGN d 377      30.759  15.342  22.199  0.00  0.00     0.092 H 
ATOM     35  H   SGN d 377      28.996  13.858  23.040  0.00  0.00     0.210 HD
ATOM     36  H   SGN d 377      31.048   9.715  26.224  0.00  0.00     0.231 HD
ATOM     37  H   SGN d 377      32.707  11.003  21.787  0.00  0.00     0.212 HD
ATOM     38  H   SGN d 377      33.947  15.809  20.197  0.00  0.00     0.081 H 
ATOM     39  H   SGN d 377      32.370  16.587  20.237  0.00  0.00     0.081 H 
ATOM     40  H   SGN d 377      33.277  12.528  23.415  0.00  0.00     0.131 H 
ATOM     41  O2  IXD d   2      28.094  15.233  18.003  0.00  0.00    -0.244 OA
ATOM     42  O3  IXD d   2      26.459  17.272  18.174  0.00  0.00    -0.393 OA
ATOM     43  C2  IXD d   2      27.624  15.435  19.341  0.00  0.00     0.132 C 
ATOM     44  O5  IXD d   2      28.287  15.904  21.600  0.00  0.00    -0.343 OA
ATOM     45  O2S IXD d   2      27.609  12.830  17.997  0.00  0.00    -0.572 OA
ATOM     46  O1S IXD d   2      27.977  13.969  15.824  0.00  0.00    -0.572 OA
ATOM     47  C3  IXD d   2      26.657  16.627  19.442  0.00  0.00     0.069 C 
ATOM     48  O3S IXD d   2      25.974  14.303  17.094  0.00  0.00    -0.572 OA
ATOM     49  S   IXD d   2      27.434  14.074  17.204  0.00  0.00     0.252 S 
ATOM     50  C4  IXD d   2      27.113  17.623  20.479  0.00  0.00    -0.005 C 
ATOM     51  C6  IXD d   2      27.252  17.788  22.917  0.00  0.00     0.203 C 
ATOM     52  O61 IXD d   2      26.898  18.987  22.950  0.00  0.00    -0.646 OA
ATOM     53  C1  IXD d   2      28.800  15.511  20.319  0.00  0.00     0.161 C 
ATOM     54  C5  IXD d   2      27.534  17.134  21.646  0.00  0.00     0.127 C 
ATOM     55  O62 IXD d   2      27.379  17.119  23.948  0.00  0.00    -0.646 OA
ATOM     56  H   IXD d   2      26.167  16.618  17.520  0.00  0.00     0.210 HD
ATOM     57  H   IXD d   2      27.042  14.585  19.628  0.00  0.00     0.097 H 
ATOM     58  H   IXD d   2      25.713  16.228  19.752  0.00  0.00     0.087 H 
ATOM     59  H   IXD d   2      26.291  18.278  20.681  0.00  0.00     0.041 H 
ATOM     60  H   IXD d   2      27.972  18.096  20.050  0.00  0.00     0.041 H 
ATOM     61  H   IXD d   2      29.331  15.390  19.398  0.00  0.00     0.133 H 
ATOM     62  H   IXD d   2      27.260  17.879  22.364  0.00  0.00     0.100 H 
ENDROOT
TORSDOF 13
ENDMDL
MODEL 9
REMARK VINA RESULT:      -5.8      3.247      6.992
REMARK  0 active torsions:
REMARK  status: ('A' for Active; 'I' for Inactive)
REMARK       I    between atoms: O2_2  and  S_22 
REMARK       I    between atoms: O2_2  and  C2_6 
REMARK       I    between atoms: O3S_3  and  S1_31 
REMARK       I    between atoms: O2S_4  and  S1_31 
REMARK       I    between atoms: O3_5  and  C3_13 
REMARK       I    between atoms: C2_12  and  N_17 
REMARK       I    between atoms: N_17  and  S1_31 
REMARK       I    between atoms: C3_23  and  O3_27 
REMARK       I    between atoms: C4_25  and  O4_26 
REMARK       I    between atoms: O4_26  and  C1_34 
REMARK       I    between atoms: O1S_29  and  S1_31 
REMARK       I    between atoms: C6_30  and  C5_35 
REMARK       I    between atoms: O1_33  and  C1_41 
ROOT
ATOM      1  O6  SGN d 377      32.898  13.317  21.295  0.00  0.00    -0.249 OA
ATOM      2  O3S SGN d 377      32.779  17.678  15.217  0.00  0.00    -0.296 OA
ATOM      3  O2S SGN d 377      34.319  15.939  15.964  0.00  0.00    -0.296 OA
ATOM      4  O4S SGN d 377      29.872  11.979  22.006  0.00  0.00    -0.066 OA
ATOM      5  O4S SGN d 377      33.006  10.841  20.912  0.00  0.00    -0.166 OA
ATOM      6  C2  SGN d 377      33.063  16.694  18.363  0.00  0.00     0.081 C 
ATOM      7  O6  SGN d 377      31.145  13.924  21.514  0.00  0.00    -0.249 OA
ATOM      8  O6S SGN d 377      28.913  14.181  22.450  0.00  0.00    -0.166 OA
ATOM      9  N   SGN d 377      33.514  17.757  17.491  0.00  0.00    -0.210 NA
ATOM     10  S2  SGN d 377      30.115  13.336  22.504  0.00  0.00     0.429 S 
ATOM     11  O5  SGN d 377      33.734  15.489  20.291  0.00  0.00    -0.342 OA
ATOM     12  O5S SGN d 377      30.739  13.302  23.828  0.00  0.00    -0.166 OA
ATOM     13  C6  SGN d 377      32.334  14.538  21.957  0.00  0.00     0.073 C 
ATOM     14  C3  SGN d 377      31.724  16.992  19.025  0.00  0.00     0.084 C 
ATOM     15  C4  SGN d 377      31.402  15.855  20.005  0.00  0.00     0.102 C 
ATOM     16  O4  SGN d 377      30.136  16.021  20.646  0.00  0.00    -0.347 OA
ATOM     17  O3  SGN d 377      30.783  17.095  17.975  0.00  0.00    -0.391 OA
ATOM     18  O5S SGN d 377      33.444  11.715  23.073  0.00  0.00    -0.166 OA
ATOM     19  O1S SGN d 377      35.125  18.162  15.608  0.00  0.00    -0.296 OA
ATOM     20  S1  SGN d 377      33.956  17.361  16.004  0.00  0.00     0.156 S 
ATOM     21  O1  SGN d 377      34.342  17.689  20.139  0.00  0.00    -0.369 OA
ATOM     22  O6S SGN d 377      31.177  11.822  22.158  0.00  0.00    -0.066 OA
ATOM     23  C5  SGN d 377      32.552  15.713  21.015  0.00  0.00     0.138 C 
ATOM     24  C6  SGN d 377      32.445  14.494  21.945  0.00  0.00     0.073 C 
ATOM     25  S2  SGN d 377      32.616  11.898  21.878  0.00  0.00     0.429 S 
ATOM     26  C1  SGN d 377      34.128  16.493  19.409  0.00  0.00     0.148 C 
ATOM     27  H   SGN d 377      32.036  17.128  15.511  0.00  0.00     0.231 HD
ATOM     28  H   SGN d 377      33.554  15.403  16.224  0.00  0.00     0.231 HD
ATOM     29  H   SGN d 377      32.908  15.810  17.779  0.00  0.00     0.076 H 
ATOM     30  H   SGN d 377      34.316  18.200  17.940  0.00  0.00     0.140 HD
ATOM     31  H   SGN d 377      33.154  13.852  21.897  0.00  0.00     0.081 H 
ATOM     32  H   SGN d 377      32.266  14.850  22.977  0.00  0.00     0.081 H 
ATOM     33  H   SGN d 377      31.720  17.899  19.591  0.00  0.00     0.089 H 
ATOM     34  H   SGN d 377      31.316  14.945  19.449  0.00  0.00     0.092 H 
ATOM     35  H   SGN d 377      30.783  16.274  17.458  0.00  0.00     0.210 HD
ATOM     36  H   SGN d 377      35.392  17.920  14.707  0.00  0.00     0.231 HD
ATOM     37  H   SGN d 377      34.617  18.393  19.532  0.00  0.00     0.212 HD
ATOM     38  H   SGN d 377      33.042  14.666  22.816  0.00  0.00     0.081 H 
ATOM     39  H   SGN d 377      31.418  14.361  22.215  0.00  0.00     0.081 H 
ATOM     40  H   SGN d 377      35.038  16.214  18.919  0.00  0.00     0.131 H 
ATOM     41  O2  IXD d   2      27.627  17.561  21.514  0.00  0.00    -0.244 OA
ATOM     42  O3  IXD d   2      25.470  16.126  21.134  0.00  0.00    -0.393 OA
ATOM     43  C2  IXD d   2      27.636  16.903  20.242  0.00  0.00     0.132 C 
ATOM     44  O5  IXD d   2      28.808  15.328  18.861  0.00  0.00    -0.343 OA
ATOM     45  O2S IXD d   2      28.236  19.751  20.595  0.00  0.00    -0.572 OA
ATOM     46  O1S IXD d   2      27.274  19.653  22.879  0.00  0.00    -0.572 OA
ATOM     47  C3  IXD d   2      26.366  16.066  20.013  0.00  0.00     0.069 C 
ATOM     48  O3S IXD d   2      25.929  19.283  20.932  0.00  0.00    -0.572 OA
ATOM     49  S   IXD d   2      27.278  19.076  21.508  0.00  0.00     0.252 S 
ATOM     50  C4  IXD d   2      26.701  14.634  19.677  0.00  0.00    -0.005 C 
ATOM     51  C6  IXD d   2      27.631  13.368  17.800  0.00  0.00     0.203 C 
ATOM     52  O61 IXD d   2      26.842  12.407  17.935  0.00  0.00    -0.646 OA
ATOM     53  C1  IXD d   2      28.936  16.116  20.054  0.00  0.00     0.161 C 
ATOM     54  C5  IXD d   2      27.680  14.431  18.794  0.00  0.00     0.127 C 
ATOM     55  O62 IXD d   2      28.392  13.452  16.830  0.00  0.00    -0.646 OA
ATOM     56  H   IXD d   2      25.266  17.052  21.337  0.00  0.00     0.210 HD
ATOM     57  H   IXD d   2      27.616  17.648  19.475  0.00  0.00     0.097 H 
ATOM     58  H   IXD d   2      25.863  16.499  19.174  0.00  0.00     0.087 H 
ATOM     59  H   IXD d   2      25.814  14.179  19.286  0.00  0.00     0.041 H 
ATOM     60  H   IXD d   2      27.060  14.211  20.592  0.00  0.00     0.041 H 
ATOM     61  H   IXD d   2      29.094  16.503  21.039  0.00  0.00     0.133 H 
ATOM     62  H   IXD d   2      27.398  13.535  18.282  0.00  0.00     0.100 H 
ENDROOT
TORSDOF 13
ENDMDL
MODEL 10
REMARK VINA RESULT:      -5.7      2.517      6.389
REMARK  0 active torsions:
REMARK  status: ('A' for Active; 'I' for Inactive)
REMARK       I    between atoms: O2_2  and  S_22 
REMARK       I    between atoms: O2_2  and  C2_6 
REMARK       I    between atoms: O3S_3  and  S1_31 
REMARK       I    between atoms: O2S_4  and  S1_31 
REMARK       I    between atoms: O3_5  and  C3_13 
REMARK       I    between atoms: C2_12  and  N_17 
REMARK       I    between atoms: N_17  and  S1_31 
REMARK       I    between atoms: C3_23  and  O3_27 
REMARK       I    between atoms: C4_25  and  O4_26 
REMARK       I    between atoms: O4_26  and  C1_34 
REMARK       I    between atoms: O1S_29  and  S1_31 
REMARK       I    between atoms: C6_30  and  C5_35 
REMARK       I    between atoms: O1_33  and  C1_41 
ROOT
ATOM      1  O6  SGN d 377      26.228  18.150  22.943  0.00  0.00    -0.249 OA
ATOM      2  O3S SGN d 377      29.512  11.613  24.511  0.00  0.00    -0.296 OA
ATOM      3  O2S SGN d 377      27.544  12.726  25.426  0.00  0.00    -0.296 OA
ATOM      4  O4S SGN d 377      25.901  18.686  19.617  0.00  0.00    -0.066 OA
ATOM      5  O4S SGN d 377      23.791  18.083  22.355  0.00  0.00    -0.166 OA
ATOM      6  C2  SGN d 377      28.960  14.867  24.280  0.00  0.00     0.081 C 
ATOM      7  O6  SGN d 377      27.323  18.103  21.429  0.00  0.00    -0.249 OA
ATOM      8  O6S SGN d 377      28.323  18.754  19.308  0.00  0.00    -0.166 OA
ATOM      9  N   SGN d 377      29.717  13.927  25.078  0.00  0.00    -0.210 NA
ATOM     10  S2  SGN d 377      27.195  19.040  20.208  0.00  0.00     0.429 S 
ATOM     11  O5  SGN d 377      27.912  16.987  24.438  0.00  0.00    -0.342 OA
ATOM     12  O5S SGN d 377      27.184  20.418  20.702  0.00  0.00    -0.166 OA
ATOM     13  C6  SGN d 377      27.641  18.594  22.712  0.00  0.00     0.073 C 
ATOM     14  C3  SGN d 377      29.711  15.339  23.042  0.00  0.00     0.084 C 
ATOM     15  C4  SGN d 377      28.865  16.409  22.338  0.00  0.00     0.102 C 
ATOM     16  O4  SGN d 377      29.467  16.885  21.133  0.00  0.00    -0.347 OA
ATOM     17  O3  SGN d 377      29.916  14.189  22.246  0.00  0.00    -0.391 OA
ATOM     18  O5S SGN d 377      24.816  20.156  22.877  0.00  0.00    -0.166 OA
ATOM     19  O1S SGN d 377      29.378  12.193  26.863  0.00  0.00    -0.296 OA
ATOM     20  S1  SGN d 377      29.000  12.555  25.488  0.00  0.00     0.156 S 
ATOM     21  O1  SGN d 377      29.810  16.637  25.666  0.00  0.00    -0.369 OA
ATOM     22  O6S SGN d 377      25.412  18.996  20.807  0.00  0.00    -0.066 OA
ATOM     23  C5  SGN d 377      28.558  17.547  23.325  0.00  0.00     0.138 C 
ATOM     24  C6  SGN d 377      27.567  18.600  22.806  0.00  0.00     0.073 C 
ATOM     25  S2  SGN d 377      25.044  18.866  22.222  0.00  0.00     0.429 S 
ATOM     26  C1  SGN d 377      28.626  16.039  25.166  0.00  0.00     0.148 C 
ATOM     27  H   SGN d 377      29.240  11.889  23.622  0.00  0.00     0.231 HD
ATOM     28  H   SGN d 377      27.285  12.965  24.523  0.00  0.00     0.231 HD
ATOM     29  H   SGN d 377      28.078  14.380  23.916  0.00  0.00     0.076 H 
ATOM     30  H   SGN d 377      29.981  14.402  25.941  0.00  0.00     0.140 HD
ATOM     31  H   SGN d 377      26.754  18.707  23.300  0.00  0.00     0.081 H 
ATOM     32  H   SGN d 377      28.106  19.557  22.667  0.00  0.00     0.081 H 
ATOM     33  H   SGN d 377      30.656  15.788  23.262  0.00  0.00     0.089 H 
ATOM     34  H   SGN d 377      27.943  15.961  22.031  0.00  0.00     0.092 H 
ATOM     35  H   SGN d 377      29.060  13.779  22.044  0.00  0.00     0.210 HD
ATOM     36  H   SGN d 377      28.943  11.362  27.111  0.00  0.00     0.231 HD
ATOM     37  H   SGN d 377      30.313  15.983  26.175  0.00  0.00     0.212 HD
ATOM     38  H   SGN d 377      27.692  19.503  23.365  0.00  0.00     0.081 H 
ATOM     39  H   SGN d 377      27.764  18.771  21.768  0.00  0.00     0.081 H 
ATOM     40  H   SGN d 377      28.038  15.686  25.988  0.00  0.00     0.131 H 
ATOM     41  O2  IXD d   2      31.752  17.285  19.124  0.00  0.00    -0.244 OA
ATOM     42  O3  IXD d   2      30.931  16.850  16.675  0.00  0.00    -0.393 OA
ATOM     43  C2  IXD d   2      30.938  16.110  19.030  0.00  0.00     0.132 C 
ATOM     44  O5  IXD d   2      28.915  15.063  19.788  0.00  0.00    -0.343 OA
ATOM     45  O2S IXD d   2      33.528  16.179  20.403  0.00  0.00    -0.572 OA
ATOM     46  O1S IXD d   2      34.036  18.341  19.297  0.00  0.00    -0.572 OA
ATOM     47  C3  IXD d   2      30.463  15.847  17.591  0.00  0.00     0.069 C 
ATOM     48  O3S IXD d   2      33.773  16.319  18.041  0.00  0.00    -0.572 OA
ATOM     49  S   IXD d   2      33.287  17.058  19.229  0.00  0.00     0.252 S 
ATOM     50  C4  IXD d   2      28.961  15.725  17.519  0.00  0.00    -0.005 C 
ATOM     51  C6  IXD d   2      27.226  14.126  18.170  0.00  0.00     0.203 C 
ATOM     52  O61 IXD d   2      26.551  14.290  17.129  0.00  0.00    -0.646 OA
ATOM     53  C1  IXD d   2      29.803  16.159  20.055  0.00  0.00     0.161 C 
ATOM     54  C5  IXD d   2      28.367  14.984  18.456  0.00  0.00     0.127 C 
ATOM     55  O62 IXD d   2      26.952  13.241  18.988  0.00  0.00    -0.646 OA
ATOM     56  H   IXD d   2      31.897  16.916  16.734  0.00  0.00     0.210 HD
ATOM     57  H   IXD d   2      31.539  15.261  19.279  0.00  0.00     0.097 H 
ATOM     58  H   IXD d   2      30.890  14.913  17.294  0.00  0.00     0.087 H 
ATOM     59  H   IXD d   2      28.717  15.298  16.568  0.00  0.00     0.041 H 
ATOM     60  H   IXD d   2      28.593  16.717  17.676  0.00  0.00     0.041 H 
ATOM     61  H   IXD d   2      30.271  17.101  20.251  0.00  0.00     0.133 H 
ATOM     62  H   IXD d   2      27.519  14.556  17.963  0.00  0.00     0.100 H 
ENDROOT
TORSDOF 13
ENDMDL
