MODEL 1
REMARK VINA RESULT:     189.0      0.000      0.000
REMARK  0 active torsions:
REMARK  status: ('A' for Active; 'I' for Inactive)
REMARK       I    between atoms: C5_1  and  C6_90 
REMARK       I    between atoms: O1_2  and  C1_51 
REMARK       I    between atoms: O1_2  and  C4_87 
REMARK       I    between atoms: C5_3  and  C6_57 
REMARK       I    between atoms: O2S_4  and  S1_10 
REMARK       I    between atoms: C2_5  and  O2_63 
REMARK       I    between atoms: C2_6  and  N_60 
REMARK       I    between atoms: C3_7  and  O3_102 
REMARK       I    between atoms: O2_9  and  C2_23 
REMARK       I    between atoms: O2_9  and  S_126 
REMARK       I    between atoms: S1_10  and  N_113 
REMARK       I    between atoms: S1_10  and  O1S_119 
REMARK       I    between atoms: S1_10  and  O3S_15 
REMARK       I    between atoms: S2_11  and  O6_74 
REMARK       I    between atoms: C2_13  and  N_113 
REMARK       I    between atoms: O1_14  and  C1_92 
REMARK       I    between atoms: S1_17  and  N_109 
REMARK       I    between atoms: S1_17  and  O1S_35 
REMARK       I    between atoms: S1_17  and  O2S_71 
REMARK       I    between atoms: S1_17  and  O3S_39 
REMARK       I    between atoms: C3_19  and  O3_81 
REMARK       I    between atoms: C3_21  and  O3_73 
REMARK       I    between atoms: O3S_22  and  S1_128 
REMARK       I    between atoms: C6_26  and  C5_103 
REMARK       I    between atoms: O1S_27  and  S1_135 
REMARK       I    between atoms: O3_28  and  C3_36 
REMARK       I    between atoms: C4_29  and  O4_108 
REMARK       I    between atoms: O3_31  and  C3_98 
REMARK       I    between atoms: C4_32  and  O4_37 
REMARK       I    between atoms: O4_33  and  C1_43 
REMARK       I    between atoms: O4_33  and  C4_115 
REMARK       I    between atoms: O2S_34  and  S1_135 
REMARK       I    between atoms: O4_37  and  C1_125 
REMARK       I    between atoms: S_38  and  O2_134 
REMARK       I    between atoms: S_40  and  O2_111 
REMARK       I    between atoms: O1S_42  and  S1_128 
REMARK       I    between atoms: S_44  and  O2_63 
REMARK       I    between atoms: O3_46  and  C3_65 
REMARK       I    between atoms: C1_47  and  O4_108 
REMARK       I    between atoms: O1_48  and  C1_75 
REMARK       I    between atoms: O1_48  and  C4_54 
REMARK       I    between atoms: O3S_52  and  S1_135 
REMARK       I    between atoms: C6_55  and  C5_88 
REMARK       I    between atoms: C6_57  and  O6_74 
REMARK       I    between atoms: C6_58  and  C5_62 
REMARK       I    between atoms: C6_58  and  O6_64 
REMARK       I    between atoms: N_60  and  S1_135 
REMARK       I    between atoms: C2_61  and  N_109 
REMARK       I    between atoms: O6_64  and  S2_66 
REMARK       I    between atoms: C5_69  and  C6_93 
REMARK       I    between atoms: C2_72  and  O2_134 
REMARK       I    between atoms: O6_80  and  C6_90 
REMARK       I    between atoms: O6_80  and  S2_99 
REMARK       I    between atoms: C3_83  and  O3_116 
REMARK       I    between atoms: S2_85  and  O6_95 
REMARK       I    between atoms: O4_86  and  C1_122 
REMARK       I    between atoms: O4_86  and  C4_123 
REMARK       I    between atoms: C5_91  and  C6_105 
REMARK       I    between atoms: C2_94  and  N_101 
REMARK       I    between atoms: O6_95  and  C6_130 
REMARK       I    between atoms: C4_97  and  O1_136 
REMARK       I    between atoms: N_101  and  S1_128 
REMARK       I    between atoms: O3_110  and  C3_129 
REMARK       I    between atoms: O2_111  and  C2_118 
REMARK       I    between atoms: C1_121  and  O1_136 
REMARK       I    between atoms: S1_128  and  O2S_137 
REMARK       I    between atoms: C6_130  and  C5_140 
ROOT
ATOM      1  C5  SGN d 302     117.591  38.958 120.539  0.00  0.00     0.091 C 
ATOM      2  O1  SGN d 302     116.555  36.199 120.099  0.00  0.00    -0.348 OA
ATOM      3  C2  SGN d 302     118.766  36.365 120.979  0.00  0.00     0.081 C 
ATOM      4  O1S SGN d 302     118.822  32.794 122.503  0.00  0.00    -0.296 OA
ATOM      5  O3  SGN d 302     119.431  37.013 123.135  0.00  0.00    -0.391 OA
ATOM      6  O4  SGN d 302     118.365  39.657 122.709  0.00  0.00    -0.348 OA
ATOM      7  O2S SGN d 302     120.625  34.197 121.890  0.00  0.00    -0.296 OA
ATOM      8  O5S SGN d 302     119.254  42.092 118.036  0.00  0.00    -0.572 OA
ATOM      9  C1  SGN d 302     117.859  36.635 119.781  0.00  0.00     0.150 C 
ATOM     10  O3S SGN d 302     119.321  33.172 120.206  0.00  0.00    -0.296 OA
ATOM     11  O4S SGN d 302     120.875  42.276 119.750  0.00  0.00    -0.572 OA
ATOM     12  N   SGN d 302     118.277  35.140 121.543  0.00  0.00    -0.210 NA
ATOM     13  O6  SGN d 302     118.594  41.172 120.373  0.00  0.00    -0.254 OA
ATOM     14  C6  SGN d 302     117.507  40.368 119.952  0.00  0.00     0.067 C 
ATOM     15  C3  SGN d 302     118.518  37.329 122.107  0.00  0.00     0.083 C 
ATOM     16  S2  SGN d 302     119.850  41.449 119.179  0.00  0.00     0.251 S 
ATOM     17  O5  SGN d 302     117.897  38.039 119.456  0.00  0.00    -0.349 OA
ATOM     18  C4  SGN d 302     118.649  38.779 121.629  0.00  0.00     0.095 C 
ATOM     19  O6S SGN d 302     120.384  40.166 118.779  0.00  0.00    -0.572 OA
ATOM     20  S1  SGN d 302     119.316  33.743 121.536  0.00  0.00     0.156 S 
ATOM     21  H   SGN d 302     116.646  38.767 121.003  0.00  0.00     0.090 H 
ATOM     22  H   SGN d 302     119.783  36.398 120.648  0.00  0.00     0.076 H 
ATOM     23  H   SGN d 302     119.393  32.010 122.507  0.00  0.00     0.231 HD
ATOM     24  H   SGN d 302     119.309  36.088 123.402  0.00  0.00     0.210 HD
ATOM     25  H   SGN d 302     121.237  33.443 121.897  0.00  0.00     0.231 HD
ATOM     26  H   SGN d 302     118.193  36.098 118.917  0.00  0.00     0.131 H 
ATOM     27  H   SGN d 302     119.898  32.392 120.191  0.00  0.00     0.231 HD
ATOM     28  H   SGN d 302     117.433  34.889 121.028  0.00  0.00     0.140 HD
ATOM     29  H   SGN d 302     116.593  40.824 120.272  0.00  0.00     0.080 H 
ATOM     30  H   SGN d 302     117.543  40.290 118.885  0.00  0.00     0.080 H 
ATOM     31  H   SGN d 302     117.518  37.239 122.477  0.00  0.00     0.089 H 
ATOM     32  H   SGN d 302     119.633  38.991 121.268  0.00  0.00     0.091 H 
ATOM     33  C5  SGN d 304     109.915  34.187 120.453  0.00  0.00     0.091 C 
ATOM     34  S2  SGN d 304     110.518  34.657 124.225  0.00  0.00     0.251 S 
ATOM     35  C3  SGN d 304     110.412  35.854 118.704  0.00  0.00     0.083 C 
ATOM     36  O3S SGN d 304     107.369  39.007 118.638  0.00  0.00    -0.296 OA
ATOM     37  C4  SGN d 304     110.905  35.262 120.024  0.00  0.00     0.095 C 
ATOM     38  O4  SGN d 304     112.168  34.668 119.806  0.00  0.00    -0.348 OA
ATOM     39  O4S SGN d 304     110.575  36.081 124.217  0.00  0.00    -0.572 OA
ATOM     40  O1S SGN d 304     105.972  37.230 118.018  0.00  0.00    -0.296 OA
ATOM     41  O6S SGN d 304     109.845  34.164 125.395  0.00  0.00    -0.572 OA
ATOM     42  C6  SGN d 304     110.320  33.531 121.754  0.00  0.00     0.067 C 
ATOM     43  O3  SGN d 304     111.295  36.863 118.264  0.00  0.00    -0.391 OA
ATOM     44  O6  SGN d 304     109.596  34.124 122.827  0.00  0.00    -0.254 OA
ATOM     45  O5S SGN d 304     111.851  34.102 124.171  0.00  0.00    -0.572 OA
ATOM     46  C2  SGN d 304     109.047  36.467 118.956  0.00  0.00     0.081 C 
ATOM     47  N   SGN d 304     108.551  36.900 117.681  0.00  0.00    -0.210 NA
ATOM     48  O5  SGN d 304     108.620  34.797 120.635  0.00  0.00    -0.349 OA
ATOM     49  C1  SGN d 304     108.066  35.402 119.461  0.00  0.00     0.150 C 
ATOM     50  S1  SGN d 304     107.156  37.962 117.689  0.00  0.00     0.156 S 
ATOM     51  O1  SGN d 304     107.889  34.441 118.445  0.00  0.00    -0.348 OA
ATOM     52  O2S SGN d 304     107.031  38.512 116.394  0.00  0.00    -0.296 OA
ATOM     53  H   SGN d 304     109.893  33.436 119.690  0.00  0.00     0.090 H 
ATOM     54  H   SGN d 304     110.361  35.091 117.956  0.00  0.00     0.089 H 
ATOM     55  H   SGN d 304     107.454  38.625 119.526  0.00  0.00     0.231 HD
ATOM     56  H   SGN d 304     110.986  36.018 120.776  0.00  0.00     0.091 H 
ATOM     57  H   SGN d 304     106.060  36.854 118.907  0.00  0.00     0.231 HD
ATOM     58  H   SGN d 304     111.369  33.669 121.912  0.00  0.00     0.080 H 
ATOM     59  H   SGN d 304     110.101  32.485 121.710  0.00  0.00     0.080 H 
ATOM     60  H   SGN d 304     111.349  37.562 118.935  0.00  0.00     0.210 HD
ATOM     61  H   SGN d 304     109.131  37.256 119.673  0.00  0.00     0.076 H 
ATOM     62  H   SGN d 304     108.300  36.066 117.149  0.00  0.00     0.140 HD
ATOM     63  H   SGN d 304     107.118  35.834 119.704  0.00  0.00     0.131 H 
ATOM     64  H   SGN d 304     106.265  39.107 116.368  0.00  0.00     0.231 HD
ATOM     65  O2S SGN d 308      94.279  31.014 113.485  0.00  0.00    -0.296 OA
ATOM     66  S1  SGN d 308      94.270  29.592 113.659  0.00  0.00     0.156 S 
ATOM     67  C2  SGN d 308      95.769  27.519 112.604  0.00  0.00     0.081 C 
ATOM     68  O1  SGN d 308      96.124  27.298 110.210  0.00  0.00    -0.369 OA
ATOM     69  O3S SGN d 308      94.740  29.264 114.991  0.00  0.00    -0.296 OA
ATOM     70  O5  SGN d 308      95.925  25.328 111.564  0.00  0.00    -0.350 OA
ATOM     71  O4S SGN d 308      99.050  21.960 114.465  0.00  0.00    -0.572 OA
ATOM     72  C6  SGN d 308      97.530  23.655 112.378  0.00  0.00     0.067 C 
ATOM     73  C5  SGN d 308      97.284  25.143 112.094  0.00  0.00     0.091 C 
ATOM     74  O6  SGN d 308      96.913  23.281 113.626  0.00  0.00    -0.254 OA
ATOM     75  S2  SGN d 308      97.938  22.705 114.976  0.00  0.00     0.251 S 
ATOM     76  O5S SGN d 308      97.144  21.861 115.826  0.00  0.00    -0.572 OA
ATOM     77  O6S SGN d 308      98.385  23.847 115.741  0.00  0.00    -0.572 OA
ATOM     78  C3  SGN d 308      97.230  27.470 113.046  0.00  0.00     0.083 C 
ATOM     79  O4  SGN d 308      98.869  25.822 113.866  0.00  0.00    -0.348 OA
ATOM     80  C1  SGN d 308      95.486  26.697 111.334  0.00  0.00     0.147 C 
ATOM     81  N   SGN d 308      95.370  28.899 112.432  0.00  0.00    -0.210 NA
ATOM     82  O3  SGN d 308      97.416  28.246 114.214  0.00  0.00    -0.391 OA
ATOM     83  O1S SGN d 308      92.938  29.067 113.468  0.00  0.00    -0.296 OA
ATOM     84  C4  SGN d 308      97.511  26.004 113.369  0.00  0.00     0.095 C 
ATOM     85  H   SGN d 308      93.964  31.232 112.595  0.00  0.00     0.231 HD
ATOM     86  H   SGN d 308      95.183  27.062 113.375  0.00  0.00     0.076 H 
ATOM     87  H   SGN d 308      95.799  28.205 110.100  0.00  0.00     0.212 HD
ATOM     88  H   SGN d 308      95.634  29.618 115.114  0.00  0.00     0.231 HD
ATOM     89  H   SGN d 308      98.583  23.475 112.436  0.00  0.00     0.080 H 
ATOM     90  H   SGN d 308      97.105  23.072 111.588  0.00  0.00     0.080 H 
ATOM     91  H   SGN d 308      97.987  25.474 111.358  0.00  0.00     0.090 H 
ATOM     92  H   SGN d 308      97.880  27.854 112.287  0.00  0.00     0.089 H 
ATOM     93  H   SGN d 308      94.438  26.681 111.115  0.00  0.00     0.131 H 
ATOM     94  H   SGN d 308      96.218  29.465 112.425  0.00  0.00     0.140 HD
ATOM     95  H   SGN d 308      96.836  27.916 114.917  0.00  0.00     0.210 HD
ATOM     96  H   SGN d 308      92.628  29.290 112.576  0.00  0.00     0.231 HD
ATOM     97  H   SGN d 308      96.839  25.688 114.140  0.00  0.00     0.091 H 
ATOM     98  C2  IDU d 307     101.116  25.066 113.333  0.00  0.00     0.134 C 
ATOM     99  S   IDU d 307     101.934  22.779 112.182  0.00  0.00     0.252 S 
ATOM    100  C4  IDU d 307     102.133  26.176 115.332  0.00  0.00     0.103 C 
ATOM    101  O2  IDU d 307     100.670  23.833 112.816  0.00  0.00    -0.244 OA
ATOM    102  O2S IDU d 307     103.135  23.541 111.985  0.00  0.00    -0.572 OA
ATOM    103  C5  IDU d 307     101.391  27.423 114.798  0.00  0.00     0.152 C 
ATOM    104  O62 IDU d 307     101.384  29.301 116.212  0.00  0.00    -0.646 OA
ATOM    105  O5  IDU d 307     100.655  27.400 113.561  0.00  0.00    -0.340 OA
ATOM    106  C6  IDU d 307     100.808  28.226 115.943  0.00  0.00     0.206 C 
ATOM    107  O3S IDU d 307     101.422  22.238 110.951  0.00  0.00    -0.572 OA
ATOM    108  O3  IDU d 307     102.270  23.803 115.026  0.00  0.00    -0.390 OA
ATOM    109  O61 IDU d 307      99.902  27.726 116.634  0.00  0.00    -0.646 OA
ATOM    110  C1  IDU d 307     100.053  26.172 113.110  0.00  0.00     0.161 C 
ATOM    111  C3  IDU d 307     101.450  24.902 114.826  0.00  0.00     0.094 C 
ATOM    112  O1S IDU d 307     102.163  21.745 113.139  0.00  0.00    -0.572 OA
ATOM    113  H   IDU d 307     102.002  25.368 112.814  0.00  0.00     0.097 H 
ATOM    114  H   IDU d 307     102.098  26.158 116.402  0.00  0.00     0.092 H 
ATOM    115  H   IDU d 307     102.181  27.978 114.338  0.00  0.00     0.104 H 
ATOM    116  H   IDU d 307     101.825  23.004 114.702  0.00  0.00     0.210 HD
ATOM    117  H   IDU d 307      99.754  26.279 112.088  0.00  0.00     0.133 H 
ATOM    118  H   IDU d 307     100.544  24.743 115.373  0.00  0.00     0.091 H 
ATOM    119  C3  UAP d 301     117.838  41.016 125.401  0.00  0.00     0.069 C 
ATOM    120  O5  UAP d 301     120.047  39.326 124.344  0.00  0.00    -0.343 OA
ATOM    121  O2S UAP d 301     118.408  44.472 124.394  0.00  0.00    -0.572 OA
ATOM    122  O1S UAP d 301     120.730  44.595 124.485  0.00  0.00    -0.572 OA
ATOM    123  S   UAP d 301     119.635  43.850 123.998  0.00  0.00     0.252 S 
ATOM    124  C1  UAP d 301     119.418  40.261 123.457  0.00  0.00     0.161 C 
ATOM    125  O3S UAP d 301     119.726  43.672 122.573  0.00  0.00    -0.572 OA
ATOM    126  O61 UAP d 301     119.516  37.655 127.562  0.00  0.00    -0.646 OA
ATOM    127  C5  UAP d 301     119.427  38.997 125.567  0.00  0.00     0.127 C 
ATOM    128  O3  UAP d 301     116.563  40.860 124.891  0.00  0.00    -0.393 OA
ATOM    129  C6  UAP d 301     120.030  37.920 126.458  0.00  0.00     0.203 C 
ATOM    130  O2  UAP d 301     119.725  42.259 124.724  0.00  0.00    -0.244 OA
ATOM    131  C4  UAP d 301     118.242  39.736 126.173  0.00  0.00    -0.005 C 
ATOM    132  C2  UAP d 301     118.752  41.389 124.233  0.00  0.00     0.132 C 
ATOM    133  O62 UAP d 301     121.063  37.370 126.030  0.00  0.00    -0.646 OA
ATOM    134  H   UAP d 301     117.909  41.805 126.120  0.00  0.00     0.087 H 
ATOM    135  H   UAP d 301     120.199  40.616 122.816  0.00  0.00     0.133 H 
ATOM    136  H   UAP d 301     118.956  38.903 124.611  0.00  0.00     0.100 H 
ATOM    137  H   UAP d 301     116.558  40.134 124.248  0.00  0.00     0.210 HD
ATOM    138  H   UAP d 301     117.402  39.071 126.186  0.00  0.00     0.041 H 
ATOM    139  H   UAP d 301     118.538  40.045 127.153  0.00  0.00     0.041 H 
ATOM    140  H   UAP d 301     118.104  41.825 123.502  0.00  0.00     0.097 H 
ATOM    141  O4S SGN d 306     102.790  29.777 111.064  0.00  0.00    -0.572 OA
ATOM    142  S1  SGN d 306     104.975  25.056 118.272  0.00  0.00     0.156 S 
ATOM    143  C3  SGN d 306     105.321  28.609 117.087  0.00  0.00     0.083 C 
ATOM    144  C4  SGN d 306     105.965  29.458 115.986  0.00  0.00     0.095 C 
ATOM    145  O1S SGN d 306     105.701  24.295 117.277  0.00  0.00    -0.296 OA
ATOM    146  O3S SGN d 306     105.834  25.377 119.384  0.00  0.00    -0.296 OA
ATOM    147  O1  SGN d 306     103.518  26.236 114.922  0.00  0.00    -0.348 OA
ATOM    148  O6S SGN d 306     102.921  31.359 112.848  0.00  0.00    -0.572 OA
ATOM    149  C2  SGN d 306     105.128  27.209 116.550  0.00  0.00     0.081 C 
ATOM    150  O2S SGN d 306     103.842  24.326 118.742  0.00  0.00    -0.296 OA
ATOM    151  C1  SGN d 306     104.228  27.373 115.329  0.00  0.00     0.150 C 
ATOM    152  O5S SGN d 306     104.067  31.744 110.828  0.00  0.00    -0.572 OA
ATOM    153  O3  SGN d 306     106.160  28.569 118.226  0.00  0.00    -0.391 OA
ATOM    154  S2  SGN d 306     103.629  30.730 111.746  0.00  0.00     0.251 S 
ATOM    155  O6  SGN d 306     105.068  29.877 112.369  0.00  0.00    -0.254 OA
ATOM    156  O4  SGN d 306     106.083  30.766 116.483  0.00  0.00    -0.348 OA
ATOM    157  N   SGN d 306     104.349  26.545 117.560  0.00  0.00    -0.210 NA
ATOM    158  O5  SGN d 306     104.893  28.105 114.320  0.00  0.00    -0.349 OA
ATOM    159  C6  SGN d 306     105.645  30.290 113.613  0.00  0.00     0.067 C 
ATOM    160  C5  SGN d 306     105.047  29.467 114.750  0.00  0.00     0.091 C 
ATOM    161  H   SGN d 306     104.381  29.034 117.373  0.00  0.00     0.089 H 
ATOM    162  H   SGN d 306     106.922  29.065 115.710  0.00  0.00     0.091 H 
ATOM    163  H   SGN d 306     105.111  24.087 116.535  0.00  0.00     0.231 HD
ATOM    164  H   SGN d 306     106.604  25.873 119.065  0.00  0.00     0.231 HD
ATOM    165  H   SGN d 306     106.036  26.693 116.317  0.00  0.00     0.076 H 
ATOM    166  H   SGN d 306     103.264  24.109 117.994  0.00  0.00     0.231 HD
ATOM    167  H   SGN d 306     103.398  27.974 115.635  0.00  0.00     0.131 H 
ATOM    168  H   SGN d 306     107.017  28.186 117.983  0.00  0.00     0.210 HD
ATOM    169  H   SGN d 306     104.217  27.210 118.322  0.00  0.00     0.140 HD
ATOM    170  H   SGN d 306     105.436  31.327 113.775  0.00  0.00     0.080 H 
ATOM    171  H   SGN d 306     106.704  30.138 113.582  0.00  0.00     0.080 H 
ATOM    172  H   SGN d 306     104.108  29.909 115.008  0.00  0.00     0.090 H 
ATOM    173  O2  IDS d 305     108.064  33.640 115.777  0.00  0.00    -0.244 OA
ATOM    174  O5  IDS d 305     107.889  31.463 117.794  0.00  0.00    -0.340 OA
ATOM    175  O1S IDS d 305     107.531  35.998 115.034  0.00  0.00    -0.572 OA
ATOM    176  C2  IDS d 305     106.933  32.886 116.095  0.00  0.00     0.134 C 
ATOM    177  O61 IDS d 305     106.423  32.131 121.011  0.00  0.00    -0.646 OA
ATOM    178  O3  IDS d 305     104.831  33.057 117.184  0.00  0.00    -0.390 OA
ATOM    179  C3  IDS d 305     106.067  33.636 117.125  0.00  0.00     0.094 C 
ATOM    180  C1  IDS d 305     107.307  31.441 116.490  0.00  0.00     0.161 C 
ATOM    181  C6  IDS d 305     107.342  31.850 120.222  0.00  0.00     0.206 C 
ATOM    182  O2S IDS d 305     106.704  34.280 113.682  0.00  0.00    -0.572 OA
ATOM    183  O3S IDS d 305     109.010  34.777 113.699  0.00  0.00    -0.572 OA
ATOM    184  C5  IDS d 305     107.214  32.215 118.773  0.00  0.00     0.152 C 
ATOM    185  O62 IDS d 305     108.413  31.319 120.553  0.00  0.00    -0.646 OA
ATOM    186  C4  IDS d 305     106.728  33.625 118.500  0.00  0.00     0.103 C 
ATOM    187  S   IDS d 305     107.806  34.740 114.461  0.00  0.00     0.252 S 
ATOM    188  H   IDS d 305     106.322  32.771 115.225  0.00  0.00     0.097 H 
ATOM    189  H   IDS d 305     104.424  33.072 116.303  0.00  0.00     0.210 HD
ATOM    190  H   IDS d 305     105.967  34.657 116.818  0.00  0.00     0.091 H 
ATOM    191  H   IDS d 305     108.017  30.973 115.840  0.00  0.00     0.133 H 
ATOM    192  H   IDS d 305     106.348  31.675 118.451  0.00  0.00     0.104 H 
ATOM    193  H   IDS d 305     106.039  33.966 119.243  0.00  0.00     0.092 H 
ATOM    194  C6  IDS d 303     114.529  38.136 118.794  0.00  0.00     0.206 C 
ATOM    195  S   IDS d 303     115.023  32.292 122.118  0.00  0.00     0.252 S 
ATOM    196  O3  IDS d 303     114.578  34.051 117.914  0.00  0.00    -0.390 OA
ATOM    197  C3  IDS d 303     115.272  34.406 119.063  0.00  0.00     0.094 C 
ATOM    198  C2  IDS d 303     114.404  34.084 120.298  0.00  0.00     0.134 C 
ATOM    199  C4  IDS d 303     115.677  35.896 119.021  0.00  0.00     0.103 C 
ATOM    200  C5  IDS d 303     114.436  36.706 119.281  0.00  0.00     0.152 C 
ATOM    201  O3S IDS d 303     114.264  31.476 121.191  0.00  0.00    -0.572 OA
ATOM    202  O62 IDS d 303     114.506  39.026 119.670  0.00  0.00    -0.646 OA
ATOM    203  O5  IDS d 303     113.651  36.410 120.410  0.00  0.00    -0.340 OA
ATOM    204  C1  IDS d 303     113.247  35.053 120.616  0.00  0.00     0.161 C 
ATOM    205  O2S IDS d 303     116.332  31.757 122.359  0.00  0.00    -0.572 OA
ATOM    206  O2  IDS d 303     115.205  33.882 121.406  0.00  0.00    -0.244 OA
ATOM    207  O1S IDS d 303     114.314  32.454 123.351  0.00  0.00    -0.572 OA
ATOM    208  O61 IDS d 303     114.563  38.361 117.567  0.00  0.00    -0.646 OA
ATOM    209  H   IDS d 303     114.333  33.114 117.960  0.00  0.00     0.210 HD
ATOM    210  H   IDS d 303     116.176  33.839 119.125  0.00  0.00     0.091 H 
ATOM    211  H   IDS d 303     113.894  33.184 120.027  0.00  0.00     0.097 H 
ATOM    212  H   IDS d 303     116.140  36.105 118.079  0.00  0.00     0.092 H 
ATOM    213  H   IDS d 303     113.720  36.278 118.610  0.00  0.00     0.104 H 
ATOM    214  H   IDS d 303     112.956  35.002 121.644  0.00  0.00     0.133 H 
ENDROOT
TORSDOF 67
ENDMDL
MODEL 2
REMARK VINA RESULT:     200.1      3.121     20.783
REMARK  0 active torsions:
REMARK  status: ('A' for Active; 'I' for Inactive)
REMARK       I    between atoms: C5_1  and  C6_90 
REMARK       I    between atoms: O1_2  and  C1_51 
REMARK       I    between atoms: O1_2  and  C4_87 
REMARK       I    between atoms: C5_3  and  C6_57 
REMARK       I    between atoms: O2S_4  and  S1_10 
REMARK       I    between atoms: C2_5  and  O2_63 
REMARK       I    between atoms: C2_6  and  N_60 
REMARK       I    between atoms: C3_7  and  O3_102 
REMARK       I    between atoms: O2_9  and  C2_23 
REMARK       I    between atoms: O2_9  and  S_126 
REMARK       I    between atoms: S1_10  and  N_113 
REMARK       I    between atoms: S1_10  and  O1S_119 
REMARK       I    between atoms: S1_10  and  O3S_15 
REMARK       I    between atoms: S2_11  and  O6_74 
REMARK       I    between atoms: C2_13  and  N_113 
REMARK       I    between atoms: O1_14  and  C1_92 
REMARK       I    between atoms: S1_17  and  N_109 
REMARK       I    between atoms: S1_17  and  O1S_35 
REMARK       I    between atoms: S1_17  and  O2S_71 
REMARK       I    between atoms: S1_17  and  O3S_39 
REMARK       I    between atoms: C3_19  and  O3_81 
REMARK       I    between atoms: C3_21  and  O3_73 
REMARK       I    between atoms: O3S_22  and  S1_128 
REMARK       I    between atoms: C6_26  and  C5_103 
REMARK       I    between atoms: O1S_27  and  S1_135 
REMARK       I    between atoms: O3_28  and  C3_36 
REMARK       I    between atoms: C4_29  and  O4_108 
REMARK       I    between atoms: O3_31  and  C3_98 
REMARK       I    between atoms: C4_32  and  O4_37 
REMARK       I    between atoms: O4_33  and  C1_43 
REMARK       I    between atoms: O4_33  and  C4_115 
REMARK       I    between atoms: O2S_34  and  S1_135 
REMARK       I    between atoms: O4_37  and  C1_125 
REMARK       I    between atoms: S_38  and  O2_134 
REMARK       I    between atoms: S_40  and  O2_111 
REMARK       I    between atoms: O1S_42  and  S1_128 
REMARK       I    between atoms: S_44  and  O2_63 
REMARK       I    between atoms: O3_46  and  C3_65 
REMARK       I    between atoms: C1_47  and  O4_108 
REMARK       I    between atoms: O1_48  and  C1_75 
REMARK       I    between atoms: O1_48  and  C4_54 
REMARK       I    between atoms: O3S_52  and  S1_135 
REMARK       I    between atoms: C6_55  and  C5_88 
REMARK       I    between atoms: C6_57  and  O6_74 
REMARK       I    between atoms: C6_58  and  C5_62 
REMARK       I    between atoms: C6_58  and  O6_64 
REMARK       I    between atoms: N_60  and  S1_135 
REMARK       I    between atoms: C2_61  and  N_109 
REMARK       I    between atoms: O6_64  and  S2_66 
REMARK       I    between atoms: C5_69  and  C6_93 
REMARK       I    between atoms: C2_72  and  O2_134 
REMARK       I    between atoms: O6_80  and  C6_90 
REMARK       I    between atoms: O6_80  and  S2_99 
REMARK       I    between atoms: C3_83  and  O3_116 
REMARK       I    between atoms: S2_85  and  O6_95 
REMARK       I    between atoms: O4_86  and  C1_122 
REMARK       I    between atoms: O4_86  and  C4_123 
REMARK       I    between atoms: C5_91  and  C6_105 
REMARK       I    between atoms: C2_94  and  N_101 
REMARK       I    between atoms: O6_95  and  C6_130 
REMARK       I    between atoms: C4_97  and  O1_136 
REMARK       I    between atoms: N_101  and  S1_128 
REMARK       I    between atoms: O3_110  and  C3_129 
REMARK       I    between atoms: O2_111  and  C2_118 
REMARK       I    between atoms: C1_121  and  O1_136 
REMARK       I    between atoms: S1_128  and  O2S_137 
REMARK       I    between atoms: C6_130  and  C5_140 
ROOT
ATOM      1  C5  SGN d 302      96.333  28.400 112.193  0.00  0.00     0.091 C 
ATOM      2  O1  SGN d 302      97.435  29.806 114.578  0.00  0.00    -0.348 OA
ATOM      3  C2  SGN d 302      95.244  28.893 114.815  0.00  0.00     0.081 C 
ATOM      4  O1S SGN d 302      95.329  28.736 118.693  0.00  0.00    -0.296 OA
ATOM      5  O3  SGN d 302      94.618  26.638 114.997  0.00  0.00    -0.391 OA
ATOM      6  O4  SGN d 302      95.598  26.112 112.338  0.00  0.00    -0.348 OA
ATOM      7  O2S SGN d 302      93.471  28.785 117.230  0.00  0.00    -0.296 OA
ATOM      8  O5S SGN d 302      94.518  29.601 108.438  0.00  0.00    -0.572 OA
ATOM      9  C1  SGN d 302      96.112  29.930 114.105  0.00  0.00     0.150 C 
ATOM     10  O3S SGN d 302      94.759  30.742 117.543  0.00  0.00    -0.296 OA
ATOM     11  O4S SGN d 302      92.938  27.911 108.931  0.00  0.00    -0.572 OA
ATOM     12  N   SGN d 302      95.782  28.808 116.141  0.00  0.00    -0.210 NA
ATOM     13  O6  SGN d 302      95.264  27.754 110.101  0.00  0.00    -0.254 OA
ATOM     14  C6  SGN d 302      96.362  28.449 110.665  0.00  0.00     0.067 C 
ATOM     15  C3  SGN d 302      95.494  27.500 114.304  0.00  0.00     0.083 C 
ATOM     16  S2  SGN d 302      93.970  28.753 109.464  0.00  0.00     0.251 S 
ATOM     17  O5  SGN d 302      96.026  29.734 112.679  0.00  0.00    -0.349 OA
ATOM     18  C4  SGN d 302      95.310  27.429 112.785  0.00  0.00     0.095 C 
ATOM     19  O6S SGN d 302      93.462  29.575 110.541  0.00  0.00    -0.572 OA
ATOM     20  S1  SGN d 302      94.784  29.296 117.482  0.00  0.00     0.156 S 
ATOM     21  H   SGN d 302      97.295  28.048 112.503  0.00  0.00     0.090 H 
ATOM     22  H   SGN d 302      94.218  29.175 114.702  0.00  0.00     0.076 H 
ATOM     23  H   SGN d 302      94.780  29.003 119.448  0.00  0.00     0.231 HD
ATOM     24  H   SGN d 302      94.773  26.718 115.951  0.00  0.00     0.210 HD
ATOM     25  H   SGN d 302      92.881  29.037 117.958  0.00  0.00     0.231 HD
ATOM     26  H   SGN d 302      95.770  30.923 114.312  0.00  0.00     0.131 H 
ATOM     27  H   SGN d 302      94.204  31.024 118.287  0.00  0.00     0.231 HD
ATOM     28  H   SGN d 302      96.619  29.390 116.163  0.00  0.00     0.140 HD
ATOM     29  H   SGN d 302      97.271  28.001 110.319  0.00  0.00     0.080 H 
ATOM     30  H   SGN d 302      96.301  29.473 110.361  0.00  0.00     0.080 H 
ATOM     31  H   SGN d 302      96.506  27.200 114.484  0.00  0.00     0.089 H 
ATOM     32  H   SGN d 302      94.311  27.677 112.494  0.00  0.00     0.091 H 
ATOM     33  C5  SGN d 304     104.136  30.286 116.347  0.00  0.00     0.091 C 
ATOM     34  S2  SGN d 304     103.619  26.585 117.267  0.00  0.00     0.251 S 
ATOM     35  C3  SGN d 304     103.547  31.321 114.187  0.00  0.00     0.083 C 
ATOM     36  O3S SGN d 304     106.496  30.307 111.109  0.00  0.00    -0.296 OA
ATOM     37  C4  SGN d 304     103.105  30.291 115.225  0.00  0.00     0.095 C 
ATOM     38  O4  SGN d 304     101.855  30.687 115.748  0.00  0.00    -0.348 OA
ATOM     39  O4S SGN d 304     103.522  26.085 115.935  0.00  0.00    -0.572 OA
ATOM     40  O1S SGN d 304     107.927  31.539 112.500  0.00  0.00    -0.296 OA
ATOM     41  O6S SGN d 304     104.337  25.676 118.118  0.00  0.00    -0.572 OA
ATOM     42  C6  SGN d 304     103.785  29.297 117.435  0.00  0.00     0.067 C 
ATOM     43  O3  SGN d 304     102.625  31.362 113.119  0.00  0.00    -0.391 OA
ATOM     44  O6  SGN d 304     104.519  28.094 117.236  0.00  0.00    -0.254 OA
ATOM     45  O5S SGN d 304     102.301  26.813 117.814  0.00  0.00    -0.572 OA
ATOM     46  C2  SGN d 304     104.900  30.888 113.654  0.00  0.00     0.081 C 
ATOM     47  N   SGN d 304     105.350  31.933 112.781  0.00  0.00    -0.210 NA
ATOM     48  O5  SGN d 304     105.417  29.918 115.796  0.00  0.00    -0.349 OA
ATOM     49  C1  SGN d 304     105.923  30.808 114.793  0.00  0.00     0.150 C 
ATOM     50  S1  SGN d 304     106.714  31.568 111.741  0.00  0.00     0.156 S 
ATOM     51  O1  SGN d 304     106.101  32.101 115.325  0.00  0.00    -0.348 OA
ATOM     52  O2S SGN d 304     106.789  32.585 110.764  0.00  0.00    -0.296 OA
ATOM     53  H   SGN d 304     104.160  31.266 116.777  0.00  0.00     0.090 H 
ATOM     54  H   SGN d 304     103.600  32.292 114.633  0.00  0.00     0.089 H 
ATOM     55  H   SGN d 304     106.446  29.612 111.784  0.00  0.00     0.231 HD
ATOM     56  H   SGN d 304     103.023  29.318 114.789  0.00  0.00     0.091 H 
ATOM     57  H   SGN d 304     107.873  30.839 113.170  0.00  0.00     0.231 HD
ATOM     58  H   SGN d 304     102.736  29.085 117.400  0.00  0.00     0.080 H 
ATOM     59  H   SGN d 304     104.031  29.713 118.389  0.00  0.00     0.080 H 
ATOM     60  H   SGN d 304     102.568  30.486 112.706  0.00  0.00     0.210 HD
ATOM     61  H   SGN d 304     104.813  29.936 113.175  0.00  0.00     0.076 H 
ATOM     62  H   SGN d 304     105.610  32.730 113.362  0.00  0.00     0.140 HD
ATOM     63  H   SGN d 304     106.865  30.441 114.443  0.00  0.00     0.131 H 
ATOM     64  H   SGN d 304     107.537  32.410 110.171  0.00  0.00     0.231 HD
ATOM     65  O2S SGN d 308     119.667  38.152 116.283  0.00  0.00    -0.296 OA
ATOM     66  S1  SGN d 308     119.721  38.495 117.673  0.00  0.00     0.156 S 
ATOM     67  C2  SGN d 308     118.255  40.196 119.289  0.00  0.00     0.081 C 
ATOM     68  O1  SGN d 308     117.842  42.507 118.660  0.00  0.00    -0.369 OA
ATOM     69  O3S SGN d 308     119.296  37.360 118.469  0.00  0.00    -0.296 OA
ATOM     70  O5  SGN d 308     118.133  41.944 120.973  0.00  0.00    -0.350 OA
ATOM     71  O4S SGN d 308     115.181  40.384 125.260  0.00  0.00    -0.572 OA
ATOM     72  C6  SGN d 308     116.598  41.755 122.882  0.00  0.00     0.067 C 
ATOM     73  C5  SGN d 308     116.794  41.495 121.382  0.00  0.00     0.091 C 
ATOM     74  O6  SGN d 308     117.258  40.730 123.652  0.00  0.00    -0.254 OA
ATOM     75  S2  SGN d 308     116.285  39.657 124.706  0.00  0.00     0.251 S 
ATOM     76  O5S SGN d 308     117.124  39.175 125.767  0.00  0.00    -0.572 OA
ATOM     77  O6S SGN d 308     115.826  38.531 123.926  0.00  0.00    -0.572 OA
ATOM     78  C3  SGN d 308     116.807  39.779 119.544  0.00  0.00     0.083 C 
ATOM     79  O4  SGN d 308     115.238  39.574 121.433  0.00  0.00    -0.348 OA
ATOM     80  C1  SGN d 308     118.527  41.679 119.596  0.00  0.00     0.147 C 
ATOM     81  N   SGN d 308     118.610  39.873 117.924  0.00  0.00    -0.210 NA
ATOM     82  O3  SGN d 308     116.630  38.409 119.239  0.00  0.00    -0.391 OA
ATOM     83  O1S SGN d 308     121.062  38.880 118.048  0.00  0.00    -0.296 OA
ATOM     84  C4  SGN d 308     116.576  39.994 121.038  0.00  0.00     0.095 C 
ATOM     85  H   SGN d 308     119.952  38.912 115.752  0.00  0.00     0.231 HD
ATOM     86  H   SGN d 308     118.872  39.647 119.968  0.00  0.00     0.076 H 
ATOM     87  H   SGN d 308     118.139  42.292 117.761  0.00  0.00     0.212 HD
ATOM     88  H   SGN d 308     118.395  37.106 118.213  0.00  0.00     0.231 HD
ATOM     89  H   SGN d 308     115.552  41.749 123.109  0.00  0.00     0.080 H 
ATOM     90  H   SGN d 308     117.018  42.707 123.132  0.00  0.00     0.080 H 
ATOM     91  H   SGN d 308     116.063  42.055 120.837  0.00  0.00     0.090 H 
ATOM     92  H   SGN d 308     116.127  40.342 118.939  0.00  0.00     0.089 H 
ATOM     93  H   SGN d 308     119.568  41.905 119.497  0.00  0.00     0.131 H 
ATOM     94  H   SGN d 308     117.745  39.666 117.423  0.00  0.00     0.140 HD
ATOM     95  H   SGN d 308     117.238  37.878 119.776  0.00  0.00     0.210 HD
ATOM     96  H   SGN d 308     121.342  39.639 117.513  0.00  0.00     0.231 HD
ATOM     97  H   SGN d 308     117.277  39.395 121.583  0.00  0.00     0.091 H 
ATOM     98  C2  IDU d 307     113.000  40.309 122.030  0.00  0.00     0.134 C 
ATOM     99  S   IDU d 307     112.216  42.185 123.789  0.00  0.00     0.252 S 
ATOM    100  C4  IDU d 307     112.004  38.031 121.739  0.00  0.00     0.103 C 
ATOM    101  O2  IDU d 307     113.467  41.236 122.983  0.00  0.00    -0.244 OA
ATOM    102  O2S IDU d 307     110.990  42.082 123.049  0.00  0.00    -0.572 OA
ATOM    103  C5  IDU d 307     112.697  38.098 120.358  0.00  0.00     0.152 C 
ATOM    104  O62 IDU d 307     112.687  36.109 119.104  0.00  0.00    -0.646 OA
ATOM    105  O5  IDU d 307     113.400  39.273 119.914  0.00  0.00    -0.340 OA
ATOM    106  C6  IDU d 307     113.287  36.751 119.992  0.00  0.00     0.206 C 
ATOM    107  O3S IDU d 307     112.711  43.536 123.839  0.00  0.00    -0.572 OA
ATOM    108  O3  IDU d 307     111.927  39.158 123.852  0.00  0.00    -0.390 OA
ATOM    109  O61 IDU d 307     114.224  36.296 120.672  0.00  0.00    -0.646 OA
ATOM    110  C1  IDU d 307     114.025  40.139 120.880  0.00  0.00     0.161 C 
ATOM    111  C3  IDU d 307     112.710  38.966 122.725  0.00  0.00     0.094 C 
ATOM    112  O1S IDU d 307     112.042  41.654 125.102  0.00  0.00    -0.572 OA
ATOM    113  H   IDU d 307     112.092  40.674 121.596  0.00  0.00     0.097 H 
ATOM    114  H   IDU d 307     112.068  37.038 122.133  0.00  0.00     0.092 H 
ATOM    115  H   IDU d 307     111.879  38.319 119.704  0.00  0.00     0.104 H 
ATOM    116  H   IDU d 307     112.385  39.752 124.468  0.00  0.00     0.210 HD
ATOM    117  H   IDU d 307     114.293  41.061 120.407  0.00  0.00     0.133 H 
ATOM    118  H   IDU d 307     113.633  38.525 123.035  0.00  0.00     0.091 H 
ATOM    119  C3  UAP d 301      96.157  23.120 112.004  0.00  0.00     0.069 C 
ATOM    120  O5  UAP d 301      93.969  24.677 113.286  0.00  0.00    -0.343 OA
ATOM    121  O2S UAP d 301      95.462  22.826 108.438  0.00  0.00    -0.572 OA
ATOM    122  O1S UAP d 301      93.141  22.663 108.438  0.00  0.00    -0.572 OA
ATOM    123  S   UAP d 301      94.244  23.399 108.922  0.00  0.00     0.252 S 
ATOM    124  C1  UAP d 301      94.547  25.183 112.076  0.00  0.00     0.161 C 
ATOM    125  O3S UAP d 301      94.121  24.793 108.587  0.00  0.00    -0.572 OA
ATOM    126  O61 UAP d 301      94.630  22.271 115.970  0.00  0.00    -0.646 OA
ATOM    127  C5  UAP d 301      94.629  23.660 114.006  0.00  0.00     0.127 C 
ATOM    128  O3  UAP d 301      97.422  23.671 111.924  0.00  0.00    -0.393 OA
ATOM    129  C6  UAP d 301      94.080  23.201 115.350  0.00  0.00     0.203 C 
ATOM    130  O2  UAP d 301      94.218  23.285 110.670  0.00  0.00    -0.244 OA
ATOM    131  C4  UAP d 301      95.809  22.848 113.488  0.00  0.00    -0.005 C 
ATOM    132  C2  UAP d 301      95.201  24.066 111.273  0.00  0.00     0.132 C 
ATOM    133  O62 UAP d 301      93.053  23.781 115.748  0.00  0.00    -0.646 OA
ATOM    134  H   UAP d 301      96.081  22.167 111.524  0.00  0.00     0.087 H 
ATOM    135  H   UAP d 301      93.740  25.644 111.545  0.00  0.00     0.133 H 
ATOM    136  H   UAP d 301      95.078  24.594 113.738  0.00  0.00     0.100 H 
ATOM    137  H   UAP d 301      97.430  24.530 112.373  0.00  0.00     0.210 HD
ATOM    138  H   UAP d 301      96.667  23.084 114.083  0.00  0.00     0.041 H 
ATOM    139  H   UAP d 301      95.530  21.818 113.557  0.00  0.00     0.041 H 
ATOM    140  H   UAP d 301      95.818  24.604 110.584  0.00  0.00     0.097 H 
ATOM    141  O4S SGN d 306     111.134  40.731 116.883  0.00  0.00    -0.572 OA
ATOM    142  S1  SGN d 306     109.273  35.640 123.929  0.00  0.00     0.156 S 
ATOM    143  C3  SGN d 306     108.797  35.480 120.201  0.00  0.00     0.083 C 
ATOM    144  C4  SGN d 306     108.099  36.198 119.041  0.00  0.00     0.095 C 
ATOM    145  O1S SGN d 306     108.543  36.830 124.312  0.00  0.00    -0.296 OA
ATOM    146  O3S SGN d 306     108.435  34.474 124.054  0.00  0.00    -0.296 OA
ATOM    147  O1  SGN d 306     110.608  38.373 121.587  0.00  0.00    -0.348 OA
ATOM    148  O6S SGN d 306     111.006  38.500 116.043  0.00  0.00    -0.572 OA
ATOM    149  C2  SGN d 306     109.014  36.483 121.312  0.00  0.00     0.081 C 
ATOM    150  O2S SGN d 306     110.438  35.477 124.737  0.00  0.00    -0.296 OA
ATOM    151  C1  SGN d 306     109.877  37.579 120.694  0.00  0.00     0.150 C 
ATOM    152  O5S SGN d 306     109.796  40.235 115.008  0.00  0.00    -0.572 OA
ATOM    153  O3  SGN d 306     107.988  34.418 120.672  0.00  0.00    -0.391 OA
ATOM    154  S2  SGN d 306     110.287  39.743 116.266  0.00  0.00     0.251 S 
ATOM    155  O6  SGN d 306     108.889  39.443 117.334  0.00  0.00    -0.254 OA
ATOM    156  O4  SGN d 306     107.958  35.268 117.999  0.00  0.00    -0.348 OA
ATOM    157  N   SGN d 306     109.837  35.786 122.263  0.00  0.00    -0.210 NA
ATOM    158  O5  SGN d 306     109.165  38.252 119.676  0.00  0.00    -0.349 OA
ATOM    159  C6  SGN d 306     108.334  38.126 117.410  0.00  0.00     0.067 C 
ATOM    160  C5  SGN d 306     108.985  37.364 118.561  0.00  0.00     0.091 C 
ATOM    161  H   SGN d 306     109.731  35.076 119.871  0.00  0.00     0.089 H 
ATOM    162  H   SGN d 306     107.148  36.582 119.344  0.00  0.00     0.091 H 
ATOM    163  H   SGN d 306     109.119  37.606 124.223  0.00  0.00     0.231 HD
ATOM    164  H   SGN d 306     107.643  34.585 123.504  0.00  0.00     0.231 HD
ATOM    165  H   SGN d 306     108.116  36.870 121.744  0.00  0.00     0.076 H 
ATOM    166  H   SGN d 306     111.002  36.261 124.654  0.00  0.00     0.231 HD
ATOM    167  H   SGN d 306     110.698  37.091 120.211  0.00  0.00     0.131 H 
ATOM    168  H   SGN d 306     107.136  34.769 120.975  0.00  0.00     0.210 HD
ATOM    169  H   SGN d 306     109.971  34.839 121.907  0.00  0.00     0.140 HD
ATOM    170  H   SGN d 306     108.517  37.609 116.492  0.00  0.00     0.080 H 
ATOM    171  H   SGN d 306     107.279  38.193 117.579  0.00  0.00     0.080 H 
ATOM    172  H   SGN d 306     109.917  36.979 118.206  0.00  0.00     0.090 H 
ATOM    173  O2  IDS d 305     105.878  34.878 115.134  0.00  0.00    -0.244 OA
ATOM    174  O5  IDS d 305     106.168  33.768 117.877  0.00  0.00    -0.340 OA
ATOM    175  O1S IDS d 305     106.325  34.742 112.648  0.00  0.00    -0.572 OA
ATOM    176  C2  IDS d 305     107.038  34.865 115.911  0.00  0.00     0.134 C 
ATOM    177  O61 IDS d 305     107.698  30.545 118.341  0.00  0.00    -0.646 OA
ATOM    178  O3  IDS d 305     109.163  33.816 116.062  0.00  0.00    -0.390 OA
ATOM    179  C3  IDS d 305     107.909  33.648 115.544  0.00  0.00     0.094 C 
ATOM    180  C1  IDS d 305     106.715  35.003 117.415  0.00  0.00     0.161 C 
ATOM    181  C6  IDS d 305     106.767  31.370 118.357  0.00  0.00     0.206 C 
ATOM    182  O2S IDS d 305     107.165  36.628 113.745  0.00  0.00    -0.572 OA
ATOM    183  O3S IDS d 305     104.847  36.402 113.368  0.00  0.00    -0.572 OA
ATOM    184  C5  IDS d 305     106.846  32.597 117.498  0.00  0.00     0.152 C 
ATOM    185  O62 IDS d 305     105.720  31.233 119.009  0.00  0.00    -0.646 OA
ATOM    186  C4  IDS d 305     107.285  32.357 116.065  0.00  0.00     0.103 C 
ATOM    187  S   IDS d 305     106.071  35.721 113.630  0.00  0.00     0.252 S 
ATOM    188  H   IDS d 305     107.630  35.728 115.688  0.00  0.00     0.097 H 
ATOM    189  H   IDS d 305     109.546  34.640 115.721  0.00  0.00     0.210 HD
ATOM    190  H   IDS d 305     107.973  33.574 114.478  0.00  0.00     0.091 H 
ATOM    191  H   IDS d 305     106.003  35.767 117.647  0.00  0.00     0.133 H 
ATOM    192  H   IDS d 305     107.719  33.101 117.857  0.00  0.00     0.104 H 
ATOM    193  H   IDS d 305     107.984  31.552 115.986  0.00  0.00     0.092 H 
ATOM    194  C6  IDS d 303      99.371  30.367 112.233  0.00  0.00     0.206 C 
ATOM    195  S   IDS d 303      99.130  29.329 118.890  0.00  0.00     0.252 S 
ATOM    196  O3  IDS d 303      99.414  32.640 115.740  0.00  0.00    -0.390 OA
ATOM    197  C3  IDS d 303      98.741  31.430 115.841  0.00  0.00     0.094 C 
ATOM    198  C2  IDS d 303      99.649  30.402 116.548  0.00  0.00     0.134 C 
ATOM    199  C4  IDS d 303      98.293  30.934 114.448  0.00  0.00     0.103 C 
ATOM    200  C5  IDS d 303      99.517  30.422 113.739  0.00  0.00     0.152 C 
ATOM    201  O3S IDS d 303      99.886  30.496 119.296  0.00  0.00    -0.572 OA
ATOM    202  O62 IDS d 303      99.392  29.233 111.712  0.00  0.00    -0.646 OA
ATOM    203  O5  IDS d 303     100.339  29.482 114.388  0.00  0.00    -0.340 OA
ATOM    204  C1  IDS d 303     100.786  29.778 115.715  0.00  0.00     0.161 C 
ATOM    205  O2S IDS d 303      97.843  29.275 119.522  0.00  0.00    -0.572 OA
ATOM    206  O2  IDS d 303      98.884  29.427 117.158  0.00  0.00    -0.244 OA
ATOM    207  O1S IDS d 303      99.866  28.129 119.150  0.00  0.00    -0.572 OA
ATOM    208  O61 IDS d 303      99.298  31.434 111.589  0.00  0.00    -0.646 OA
ATOM    209  H   IDS d 303      99.686  32.933 116.624  0.00  0.00     0.210 HD
ATOM    210  H   IDS d 303      97.854  31.560 116.425  0.00  0.00     0.091 H 
ATOM    211  H   IDS d 303     100.178  30.983 117.275  0.00  0.00     0.097 H 
ATOM    212  H   IDS d 303      97.799  31.733 113.935  0.00  0.00     0.092 H 
ATOM    213  H   IDS d 303     100.226  31.211 113.875  0.00  0.00     0.104 H 
ATOM    214  H   IDS d 303     101.106  28.840 116.116  0.00  0.00     0.133 H 
ENDROOT
TORSDOF 67
ENDMDL
