REMARK  0 active torsions:
REMARK  status: ('A' for Active; 'I' for Inactive)
REMARK       I    between atoms: C3_1  and  O3_90 
REMARK       I    between atoms: O1_4  and  C1_76 
REMARK       I    between atoms: C2_5  and  N2_21 
REMARK       I    between atoms: C8_6  and  C7_66 
REMARK       I    between atoms: C4_7  and  O4_24 
REMARK       I    between atoms: N2_9  and  C2_60 
REMARK       I    between atoms: N2_9  and  C7_69 
REMARK       I    between atoms: O4_12  and  C4_26 
REMARK       I    between atoms: O3_13  and  C3_65 
REMARK       I    between atoms: O3_13  and  C1_61 
REMARK       I    between atoms: C3_14  and  O3_35 
REMARK       I    between atoms: C6_15  and  C5_53 
REMARK       I    between atoms: C6_15  and  O6_46 
REMARK       I    between atoms: O6_16  and  C6_54 
REMARK       I    between atoms: C4_17  and  O4_49 
REMARK       I    between atoms: O4_18  and  C4_28 
REMARK       I    between atoms: O4_18  and  C1_47 
REMARK       I    between atoms: C3_19  and  O3_43 
REMARK       I    between atoms: C1_20  and  O4_91 
REMARK       I    between atoms: N2_21  and  C7_66 
REMARK       I    between atoms: O3_22  and  C3_82 
REMARK       I    between atoms: C7_23  and  C8_62 
REMARK       I    between atoms: C7_23  and  N2_51 
REMARK       I    between atoms: C2_25  and  N2_41 
REMARK       I    between atoms: C1_27  and  O3_90 
REMARK       I    between atoms: O6_29  and  C6_74 
REMARK       I    between atoms: O2_30  and  C2_37 
REMARK       I    between atoms: C2_31  and  O2_42 
REMARK       I    between atoms: O3_32  and  C3_45 
REMARK       I    between atoms: O4_33  and  C4_73 
REMARK       I    between atoms: O4_34  and  C4_84 
REMARK       I    between atoms: O4_34  and  C1_85 
REMARK       I    between atoms: C5_36  and  C6_48 
REMARK       I    between atoms: C6_38  and  C5_40 
REMARK       I    between atoms: C6_38  and  O6_89 
REMARK       I    between atoms: N2_41  and  C7_50 
REMARK       I    between atoms: C5_44  and  C6_74 
REMARK       I    between atoms: C7_50  and  C8_75 
REMARK       I    between atoms: N2_51  and  C2_58 
REMARK       I    between atoms: C1_52  and  O3_87 
REMARK       I    between atoms: C6_54  and  C5_86 
REMARK       I    between atoms: O2_59  and  C2_93 
REMARK       I    between atoms: C8_64  and  C7_69 
REMARK       I    between atoms: C6_70  and  C5_80 
REMARK       I    between atoms: C4_72  and  O4_91 
REMARK       I    between atoms: C5_77  and  C6_79 
REMARK       I    between atoms: C3_83  and  O3_87 
ROOT
ATOM      1  C3  NAG d1177      10.384 -12.253  10.952  0.00  0.00     0.093 C 
ATOM      2  O7  NAG d1177       7.700  -9.474  11.282  0.00  0.00    -0.274 OA
ATOM      3  C4  NAG d1177      11.615 -12.619  11.800  0.00  0.00     0.089 C 
ATOM      4  C2  NAG d1177       9.213 -11.887  11.849  0.00  0.00     0.087 C 
ATOM      5  C6  NAG d1177      12.433 -13.918  13.838  0.00  0.00     0.043 C 
ATOM      6  C5  NAG d1177      11.262 -13.623  12.886  0.00  0.00     0.089 C 
ATOM      7  N2  NAG d1177       7.954 -11.763  11.092  0.00  0.00    -0.349 N 
ATOM      8  O4  NAG d1177      12.642 -13.148  10.984  0.00  0.00    -0.390 OA
ATOM      9  C7  NAG d1177       7.319 -10.612  10.858  0.00  0.00     0.214 C 
ATOM     10  O5  NAG d1177      10.174 -13.136  13.662  0.00  0.00    -0.349 OA
ATOM     11  C8  NAG d1177       6.046 -10.812  10.077  0.00  0.00    -0.003 C 
ATOM     12  C1  NAG d1177       8.992 -12.956  12.918  0.00  0.00     0.154 C 
ATOM     13  O6  NAG d1177      12.818 -12.753  14.546  0.00  0.00    -0.398 OA
ATOM     14  O3  NAG d1177      10.670 -11.123  10.174  0.00  0.00    -0.348 OA
ATOM     15  H   NAG d1177      10.141 -13.097  10.341  0.00  0.00     0.091 H 
ATOM     16  H   NAG d1177      11.960 -11.720  12.267  0.00  0.00     0.091 H 
ATOM     17  H   NAG d1177       9.464 -10.946  12.293  0.00  0.00     0.084 H 
ATOM     18  H   NAG d1177      13.266 -14.273  13.268  0.00  0.00     0.078 H 
ATOM     19  H   NAG d1177      12.120 -14.658  14.544  0.00  0.00     0.078 H 
ATOM     20  H   NAG d1177      11.006 -14.531  12.382  0.00  0.00     0.090 H 
ATOM     21  H   NAG d1177       7.553 -12.588  10.733  0.00  0.00     0.163 HD
ATOM     22  H   NAG d1177      12.331 -13.963  10.560  0.00  0.00     0.210 HD
ATOM     23  H   NAG d1177       5.575  -9.865   9.915  0.00  0.00     0.040 H 
ATOM     24  H   NAG d1177       5.386 -11.449  10.628  0.00  0.00     0.040 H 
ATOM     25  H   NAG d1177       6.273 -11.264   9.134  0.00  0.00     0.040 H 
ATOM     26  H   NAG d1177       8.745 -13.888  12.455  0.00  0.00     0.132 H 
ATOM     27  H   NAG d1177      13.105 -12.072  13.917  0.00  0.00     0.209 HD
ATOM     28  O6A BDP d1178      13.321 -13.452   6.940  0.00  0.00    -0.646 OA
ATOM     29  O4  BDP d1178      10.552 -11.537   4.748  0.00  0.00    -0.348 OA
ATOM     30  O3  BDP d1178      10.590  -8.966   5.968  0.00  0.00    -0.390 OA
ATOM     31  C1  BDP d1178      10.425 -11.339   8.777  0.00  0.00     0.160 C 
ATOM     32  C4  BDP d1178      11.112 -11.288   6.016  0.00  0.00     0.103 C 
ATOM     33  C2  BDP d1178      10.580  -9.999   8.089  0.00  0.00     0.110 C 
ATOM     34  O2  BDP d1178       9.704  -9.055   8.649  0.00  0.00    -0.388 OA
ATOM     35  O6B BDP d1178      11.912 -14.343   5.456  0.00  0.00    -0.646 OA
ATOM     36  O5  BDP d1178      11.351 -12.249   8.212  0.00  0.00    -0.340 OA
ATOM     37  C6  BDP d1178      12.192 -13.527   6.378  0.00  0.00     0.206 C 
ATOM     38  C5  BDP d1178      11.104 -12.556   6.855  0.00  0.00     0.152 C 
ATOM     39  C3  BDP d1178      10.250 -10.169   6.633  0.00  0.00     0.092 C 
ATOM     40  H   BDP d1178      10.386  -9.050   5.023  0.00  0.00     0.210 HD
ATOM     41  H   BDP d1178       9.447 -11.753   8.650  0.00  0.00     0.133 H 
ATOM     42  H   BDP d1178      12.137 -10.985   5.961  0.00  0.00     0.092 H 
ATOM     43  H   BDP d1178      11.585  -9.653   8.212  0.00  0.00     0.094 H 
ATOM     44  H   BDP d1178       8.789  -9.360   8.543  0.00  0.00     0.210 HD
ATOM     45  H   BDP d1178      10.141 -13.009   6.749  0.00  0.00     0.104 H 
ATOM     46  H   BDP d1178       9.212 -10.410   6.532  0.00  0.00     0.091 H 
ATOM     47  O1  NAG d1175       1.526 -16.597  20.656  0.00  0.00    -0.369 OA
ATOM     48  O3  NAG d1175       4.706 -15.282  17.480  0.00  0.00    -0.348 OA
ATOM     49  O6  NAG d1175      -1.269 -16.251  16.511  0.00  0.00    -0.398 OA
ATOM     50  C7  NAG d1175       5.232 -15.904  20.454  0.00  0.00     0.214 C 
ATOM     51  O4  NAG d1175       2.467 -14.929  15.523  0.00  0.00    -0.390 OA
ATOM     52  N2  NAG d1175       3.967 -15.540  20.209  0.00  0.00    -0.349 N 
ATOM     53  C6  NAG d1175       0.077 -16.484  16.195  0.00  0.00     0.043 C 
ATOM     54  C2  NAG d1175       3.151 -15.982  19.067  0.00  0.00     0.087 C 
ATOM     55  C8  NAG d1175       5.763 -17.146  19.814  0.00  0.00    -0.003 C 
ATOM     56  O7  NAG d1175       5.969 -15.238  21.198  0.00  0.00    -0.274 OA
ATOM     57  C3  NAG d1175       3.340 -15.138  17.816  0.00  0.00     0.093 C 
ATOM     58  C4  NAG d1175       2.397 -15.683  16.734  0.00  0.00     0.089 C 
ATOM     59  C1  NAG d1175       1.681 -15.899  19.453  0.00  0.00     0.151 C 
ATOM     60  C5  NAG d1175       0.950 -15.791  17.230  0.00  0.00     0.089 C 
ATOM     61  O5  NAG d1175       0.867 -16.497  18.454  0.00  0.00    -0.349 OA
ATOM     62  H   NAG d1175       2.081 -16.190  21.340  0.00  0.00     0.212 HD
ATOM     63  H   NAG d1175      -1.835 -16.689  15.857  0.00  0.00     0.209 HD
ATOM     64  H   NAG d1175       3.390 -14.874  15.229  0.00  0.00     0.210 HD
ATOM     65  H   NAG d1175       3.546 -14.922  20.849  0.00  0.00     0.163 HD
ATOM     66  H   NAG d1175       0.291 -16.092  15.223  0.00  0.00     0.078 H 
ATOM     67  H   NAG d1175       0.275 -17.536  16.198  0.00  0.00     0.078 H 
ATOM     68  H   NAG d1175       3.466 -16.979  18.840  0.00  0.00     0.084 H 
ATOM     69  H   NAG d1175       4.999 -17.591  19.211  0.00  0.00     0.040 H 
ATOM     70  H   NAG d1175       6.066 -17.837  20.573  0.00  0.00     0.040 H 
ATOM     71  H   NAG d1175       6.604 -16.899  19.200  0.00  0.00     0.040 H 
ATOM     72  H   NAG d1175       3.107 -14.101  17.939  0.00  0.00     0.091 H 
ATOM     73  H   NAG d1175       2.739 -16.673  16.514  0.00  0.00     0.091 H 
ATOM     74  H   NAG d1175       1.385 -14.876  19.555  0.00  0.00     0.132 H 
ATOM     75  H   NAG d1175       0.599 -14.793  17.387  0.00  0.00     0.090 H 
ATOM     76  C2  NAG d1181      12.805 -18.311  -5.042  0.00  0.00     0.087 C 
ATOM     77  C8  NAG d1181      14.638 -20.259  -3.821  0.00  0.00    -0.003 C 
ATOM     78  O5  NAG d1181      10.586 -17.273  -4.988  0.00  0.00    -0.349 OA
ATOM     79  O4  NAG d1181      10.864 -19.374  -7.995  0.00  0.00    -0.390 OA
ATOM     80  C3  NAG d1181      12.606 -18.629  -6.515  0.00  0.00     0.086 C 
ATOM     81  C1  NAG d1181      11.945 -17.124  -4.603  0.00  0.00     0.154 C 
ATOM     82  N2  NAG d1181      14.203 -18.042  -4.752  0.00  0.00    -0.349 N 
ATOM     83  C4  NAG d1181      11.117 -18.904  -6.689  0.00  0.00     0.089 C 
ATOM     84  O6  NAG d1181       8.101 -18.001  -5.605  0.00  0.00    -0.398 OA
ATOM     85  O3  NAG d1181      13.409 -19.721  -6.932  0.00  0.00    -0.391 OA
ATOM     86  C5  NAG d1181      10.382 -17.592  -6.362  0.00  0.00     0.089 C 
ATOM     87  O7  NAG d1181      15.825 -18.310  -3.210  0.00  0.00    -0.274 OA
ATOM     88  C7  NAG d1181      14.930 -18.787  -3.905  0.00  0.00     0.214 C 
ATOM     89  C6  NAG d1181       8.886 -17.596  -6.708  0.00  0.00     0.043 C 
ATOM     90  H   NAG d1181      12.496 -19.173  -4.489  0.00  0.00     0.084 H 
ATOM     91  H   NAG d1181      13.836 -20.502  -4.487  0.00  0.00     0.040 H 
ATOM     92  H   NAG d1181      14.358 -20.511  -2.819  0.00  0.00     0.040 H 
ATOM     93  H   NAG d1181      15.511 -20.812  -4.097  0.00  0.00     0.040 H 
ATOM     94  H   NAG d1181      11.352 -20.199  -8.142  0.00  0.00     0.210 HD
ATOM     95  H   NAG d1181      12.914 -17.812  -7.133  0.00  0.00     0.090 H 
ATOM     96  H   NAG d1181      12.254 -16.211  -5.067  0.00  0.00     0.132 H 
ATOM     97  H   NAG d1181      14.637 -17.278  -5.197  0.00  0.00     0.163 HD
ATOM     98  H   NAG d1181      10.766 -19.672  -6.032  0.00  0.00     0.091 H 
ATOM     99  H   NAG d1181       7.164 -17.993  -5.855  0.00  0.00     0.209 HD
ATOM    100  H   NAG d1181      13.183 -20.506  -6.410  0.00  0.00     0.210 HD
ATOM    101  H   NAG d1181      10.805 -16.837  -6.991  0.00  0.00     0.090 H 
ATOM    102  H   NAG d1181       8.594 -16.609  -6.999  0.00  0.00     0.078 H 
ATOM    103  H   NAG d1181       8.728 -18.291  -7.506  0.00  0.00     0.078 H 
ATOM    104  C4  NAG d1179      11.814 -11.211   0.792  0.00  0.00     0.089 C 
ATOM    105  N2  NAG d1179      10.349 -13.772   3.213  0.00  0.00    -0.349 N 
ATOM    106  C6  NAG d1179      12.829  -9.017   1.545  0.00  0.00     0.043 C 
ATOM    107  O4  NAG d1179      12.704 -11.344  -0.312  0.00  0.00    -0.390 OA
ATOM    108  O6  NAG d1179      11.637  -8.270   1.409  0.00  0.00    -0.398 OA
ATOM    109  C1  NAG d1179      11.433 -11.643   3.626  0.00  0.00     0.154 C 
ATOM    110  C5  NAG d1179      12.503 -10.452   1.923  0.00  0.00     0.089 C 
ATOM    111  O5  NAG d1179      11.653 -10.389   3.054  0.00  0.00    -0.349 OA
ATOM    112  C2  NAG d1179      10.655 -12.483   2.619  0.00  0.00     0.087 C 
ATOM    113  C8  NAG d1179       8.935 -15.560   3.927  0.00  0.00    -0.003 C 
ATOM    114  C7  NAG d1179       9.134 -14.312   3.135  0.00  0.00     0.214 C 
ATOM    115  C3  NAG d1179      11.401 -12.594   1.279  0.00  0.00     0.093 C 
ATOM    116  O3  NAG d1179      10.557 -13.185   0.302  0.00  0.00    -0.348 OA
ATOM    117  O7  NAG d1179       8.223 -13.848   2.457  0.00  0.00    -0.274 OA
ATOM    118  H   NAG d1179      10.945 -10.667   0.484  0.00  0.00     0.091 H 
ATOM    119  H   NAG d1179      11.060 -14.261   3.687  0.00  0.00     0.163 HD
ATOM    120  H   NAG d1179      13.361  -9.007   0.617  0.00  0.00     0.078 H 
ATOM    121  H   NAG d1179      13.432  -8.580   2.313  0.00  0.00     0.078 H 
ATOM    122  H   NAG d1179      13.492 -11.837  -0.035  0.00  0.00     0.210 HD
ATOM    123  H   NAG d1179      11.087  -8.663   0.713  0.00  0.00     0.209 HD
ATOM    124  H   NAG d1179      12.380 -12.055   3.905  0.00  0.00     0.132 H 
ATOM    125  H   NAG d1179      13.408 -10.984   2.130  0.00  0.00     0.090 H 
ATOM    126  H   NAG d1179       9.729 -12.000   2.385  0.00  0.00     0.084 H 
ATOM    127  H   NAG d1179       9.839 -15.801   4.447  0.00  0.00     0.040 H 
ATOM    128  H   NAG d1179       8.678 -16.363   3.268  0.00  0.00     0.040 H 
ATOM    129  H   NAG d1179       8.146 -15.412   4.634  0.00  0.00     0.040 H 
ATOM    130  H   NAG d1179      12.270 -13.200   1.426  0.00  0.00     0.091 H 
ATOM    131  O5  BDP d1180      12.095 -14.103  -1.150  0.00  0.00    -0.340 OA
ATOM    132  O6A BDP d1180      14.910 -15.397  -2.423  0.00  0.00    -0.646 OA
ATOM    133  O2  BDP d1180       9.118 -15.697   0.175  0.00  0.00    -0.388 OA
ATOM    134  O3  BDP d1180       9.309 -16.722  -2.576  0.00  0.00    -0.390 OA
ATOM    135  C5  BDP d1180      12.638 -15.244  -1.777  0.00  0.00     0.152 C 
ATOM    136  C2  BDP d1180       9.929 -15.174  -0.855  0.00  0.00     0.110 C 
ATOM    137  C3  BDP d1180      10.382 -16.335  -1.736  0.00  0.00     0.092 C 
ATOM    138  C6  BDP d1180      13.828 -14.802  -2.615  0.00  0.00     0.206 C 
ATOM    139  C1  BDP d1180      11.090 -14.412  -0.216  0.00  0.00     0.160 C 
ATOM    140  C4  BDP d1180      11.561 -15.929  -2.604  0.00  0.00     0.103 C 
ATOM    141  O6B BDP d1180      13.655 -13.857  -3.428  0.00  0.00    -0.646 OA
ATOM    142  O4  BDP d1180      12.095 -17.093  -3.174  0.00  0.00    -0.348 OA
ATOM    143  H   BDP d1180       8.818 -14.975   0.749  0.00  0.00     0.210 HD
ATOM    144  H   BDP d1180       8.550 -16.983  -2.031  0.00  0.00     0.210 HD
ATOM    145  H   BDP d1180      12.981 -15.960  -1.060  0.00  0.00     0.104 H 
ATOM    146  H   BDP d1180       9.402 -14.482  -1.479  0.00  0.00     0.094 H 
ATOM    147  H   BDP d1180      10.681 -17.146  -1.105  0.00  0.00     0.091 H 
ATOM    148  H   BDP d1180      11.530 -15.021   0.546  0.00  0.00     0.133 H 
ATOM    149  H   BDP d1180      11.229 -15.243  -3.355  0.00  0.00     0.092 H 
ATOM    150  C3  BDP d1176       7.628 -13.300  16.107  0.00  0.00     0.092 C 
ATOM    151  O4  BDP d1176       7.901 -12.567  13.765  0.00  0.00    -0.348 OA
ATOM    152  O3  BDP d1176       9.012 -13.490  16.376  0.00  0.00    -0.390 OA
ATOM    153  O5  BDP d1176       5.100 -14.402  15.349  0.00  0.00    -0.340 OA
ATOM    154  O2  BDP d1176       7.014 -13.855  18.368  0.00  0.00    -0.388 OA
ATOM    155  C1  BDP d1176       5.315 -14.207  16.731  0.00  0.00     0.160 C 
ATOM    156  O6B BDP d1176       4.762 -13.054  12.384  0.00  0.00    -0.646 OA
ATOM    157  C5  BDP d1176       5.772 -13.482  14.483  0.00  0.00     0.152 C 
ATOM    158  O6A BDP d1176       5.577 -15.096  12.735  0.00  0.00    -0.646 OA
ATOM    159  C6  BDP d1176       5.352 -13.910  13.096  0.00  0.00     0.206 C 
ATOM    160  C4  BDP d1176       7.296 -13.523  14.622  0.00  0.00     0.103 C 
ATOM    161  C2  BDP d1176       6.818 -14.233  17.016  0.00  0.00     0.110 C 
ATOM    162  H   BDP d1176       7.366 -12.284  16.318  0.00  0.00     0.091 H 
ATOM    163  H   BDP d1176       9.255 -14.410  16.186  0.00  0.00     0.210 HD
ATOM    164  H   BDP d1176       7.962 -13.864  18.572  0.00  0.00     0.210 HD
ATOM    165  H   BDP d1176       4.888 -13.268  17.017  0.00  0.00     0.133 H 
ATOM    166  H   BDP d1176       5.509 -12.472  14.718  0.00  0.00     0.104 H 
ATOM    167  H   BDP d1176       7.692 -14.470  14.319  0.00  0.00     0.092 H 
ATOM    168  H   BDP d1176       7.169 -15.225  16.822  0.00  0.00     0.094 H 
ENDROOT
TORSDOF 43
