MODEL 1
REMARK VINA RESULT:     -11.9      0.000      0.000
REMARK  0 active torsions:
REMARK  status: ('A' for Active; 'I' for Inactive)
REMARK       I    between atoms: C3_1  and  O3_90 
REMARK       I    between atoms: O1_4  and  C1_76 
REMARK       I    between atoms: C2_5  and  N2_21 
REMARK       I    between atoms: C8_6  and  C7_66 
REMARK       I    between atoms: C4_7  and  O4_24 
REMARK       I    between atoms: N2_9  and  C2_60 
REMARK       I    between atoms: N2_9  and  C7_69 
REMARK       I    between atoms: O4_12  and  C4_26 
REMARK       I    between atoms: O3_13  and  C3_65 
REMARK       I    between atoms: O3_13  and  C1_61 
REMARK       I    between atoms: C3_14  and  O3_35 
REMARK       I    between atoms: C6_15  and  C5_53 
REMARK       I    between atoms: C6_15  and  O6_46 
REMARK       I    between atoms: O6_16  and  C6_54 
REMARK       I    between atoms: C4_17  and  O4_49 
REMARK       I    between atoms: O4_18  and  C4_28 
REMARK       I    between atoms: O4_18  and  C1_47 
REMARK       I    between atoms: C3_19  and  O3_43 
REMARK       I    between atoms: C1_20  and  O4_91 
REMARK       I    between atoms: N2_21  and  C7_66 
REMARK       I    between atoms: O3_22  and  C3_82 
REMARK       I    between atoms: C7_23  and  C8_62 
REMARK       I    between atoms: C7_23  and  N2_51 
REMARK       I    between atoms: C2_25  and  N2_41 
REMARK       I    between atoms: C1_27  and  O3_90 
REMARK       I    between atoms: O6_29  and  C6_74 
REMARK       I    between atoms: O2_30  and  C2_37 
REMARK       I    between atoms: C2_31  and  O2_42 
REMARK       I    between atoms: O3_32  and  C3_45 
REMARK       I    between atoms: O4_33  and  C4_73 
REMARK       I    between atoms: O4_34  and  C4_84 
REMARK       I    between atoms: O4_34  and  C1_85 
REMARK       I    between atoms: C5_36  and  C6_48 
REMARK       I    between atoms: C6_38  and  C5_40 
REMARK       I    between atoms: C6_38  and  O6_89 
REMARK       I    between atoms: N2_41  and  C7_50 
REMARK       I    between atoms: C5_44  and  C6_74 
REMARK       I    between atoms: C7_50  and  C8_75 
REMARK       I    between atoms: N2_51  and  C2_58 
REMARK       I    between atoms: C1_52  and  O3_87 
REMARK       I    between atoms: C6_54  and  C5_86 
REMARK       I    between atoms: O2_59  and  C2_93 
REMARK       I    between atoms: C8_64  and  C7_69 
REMARK       I    between atoms: C6_70  and  C5_80 
REMARK       I    between atoms: C4_72  and  O4_91 
REMARK       I    between atoms: C5_77  and  C6_79 
REMARK       I    between atoms: C3_83  and  O3_87 
ROOT
ATOM      1  C3  NAG d1177      10.531 -12.444  10.382  0.00  0.00     0.093 C 
ATOM      2  O7  NAG d1177       8.090  -9.530  11.145  0.00  0.00    -0.274 OA
ATOM      3  C4  NAG d1177      11.822 -12.929  11.066  0.00  0.00     0.089 C 
ATOM      4  C2  NAG d1177       9.494 -12.057  11.423  0.00  0.00     0.087 C 
ATOM      5  C6  NAG d1177      12.773 -14.383  12.935  0.00  0.00     0.043 C 
ATOM      6  C5  NAG d1177      11.526 -13.967  12.137  0.00  0.00     0.089 C 
ATOM      7  N2  NAG d1177       8.169 -11.817  10.821  0.00  0.00    -0.349 N 
ATOM      8  O4  NAG d1177      12.714 -13.475  10.114  0.00  0.00    -0.390 OA
ATOM      9  C7  NAG d1177       7.590 -10.618  10.715  0.00  0.00     0.214 C 
ATOM     10  O5  NAG d1177      10.565 -13.457  13.054  0.00  0.00    -0.349 OA
ATOM     11  C8  NAG d1177       6.228 -10.699  10.076  0.00  0.00    -0.003 C 
ATOM     12  C1  NAG d1177       9.323 -13.166  12.459  0.00  0.00     0.154 C 
ATOM     13  O6  NAG d1177      13.311 -13.283  13.647  0.00  0.00    -0.398 OA
ATOM     14  O3  NAG d1177      10.803 -11.294   9.630  0.00  0.00    -0.348 OA
ATOM     15  H   NAG d1177      10.166 -13.238   9.764  0.00  0.00     0.091 H 
ATOM     16  H   NAG d1177      12.275 -12.079  11.532  0.00  0.00     0.091 H 
ATOM     17  H   NAG d1177       9.854 -11.158  11.879  0.00  0.00     0.084 H 
ATOM     18  H   NAG d1177      13.512 -14.756  12.258  0.00  0.00     0.078 H 
ATOM     19  H   NAG d1177      12.492 -15.139  13.637  0.00  0.00     0.078 H 
ATOM     20  H   NAG d1177      11.156 -14.829  11.624  0.00  0.00     0.090 H 
ATOM     21  H   NAG d1177       7.677 -12.595  10.473  0.00  0.00     0.163 HD
ATOM     22  H   NAG d1177      12.305 -14.246   9.691  0.00  0.00     0.210 HD
ATOM     23  H   NAG d1177       5.805  -9.718  10.013  0.00  0.00     0.040 H 
ATOM     24  H   NAG d1177       5.592 -11.323  10.669  0.00  0.00     0.040 H 
ATOM     25  H   NAG d1177       6.318 -11.113   9.093  0.00  0.00     0.040 H 
ATOM     26  H   NAG d1177       8.965 -14.055  11.985  0.00  0.00     0.132 H 
ATOM     27  H   NAG d1177      13.570 -12.588  13.022  0.00  0.00     0.209 HD
ATOM     28  O6A BDP d1178      12.919 -13.602   6.010  0.00  0.00    -0.646 OA
ATOM     29  O4  BDP d1178      10.056 -11.409   4.239  0.00  0.00    -0.348 OA
ATOM     30  O3  BDP d1178      10.399  -8.914   5.565  0.00  0.00    -0.390 OA
ATOM     31  C1  BDP d1178      10.391 -11.419   8.261  0.00  0.00     0.160 C 
ATOM     32  C4  BDP d1178      10.769 -11.262   5.445  0.00  0.00     0.103 C 
ATOM     33  C2  BDP d1178      10.557 -10.056   7.623  0.00  0.00     0.110 C 
ATOM     34  O2  BDP d1178       9.813  -9.092   8.323  0.00  0.00    -0.388 OA
ATOM     35  O6B BDP d1178      11.298 -14.326   4.657  0.00  0.00    -0.646 OA
ATOM     36  O5  BDP d1178      11.186 -12.352   7.553  0.00  0.00    -0.340 OA
ATOM     37  C6  BDP d1178      11.732 -13.579   5.577  0.00  0.00     0.206 C 
ATOM     38  C5  BDP d1178      10.770 -12.571   6.220  0.00  0.00     0.152 C 
ATOM     39  C3  BDP d1178      10.057 -10.128   6.208  0.00  0.00     0.092 C 
ATOM     40  H   BDP d1178      10.087  -8.934   4.647  0.00  0.00     0.210 HD
ATOM     41  H   BDP d1178       9.379 -11.766   8.228  0.00  0.00     0.133 H 
ATOM     42  H   BDP d1178      11.799 -11.019   5.288  0.00  0.00     0.092 H 
ATOM     43  H   BDP d1178      11.590  -9.779   7.646  0.00  0.00     0.094 H 
ATOM     44  H   BDP d1178       8.873  -9.335   8.308  0.00  0.00     0.210 HD
ATOM     45  H   BDP d1178       9.773 -12.958   6.204  0.00  0.00     0.104 H 
ATOM     46  H   BDP d1178       9.000 -10.300   6.215  0.00  0.00     0.091 H 
ATOM     47  O1  NAG d1175       2.537 -16.758  20.822  0.00  0.00    -0.369 OA
ATOM     48  O3  NAG d1175       5.425 -15.470  17.368  0.00  0.00    -0.348 OA
ATOM     49  O6  NAG d1175      -0.671 -16.022  17.044  0.00  0.00    -0.398 OA
ATOM     50  C7  NAG d1175       6.236 -16.281  20.231  0.00  0.00     0.214 C 
ATOM     51  O4  NAG d1175       3.011 -14.878  15.698  0.00  0.00    -0.390 OA
ATOM     52  N2  NAG d1175       4.978 -15.828  20.149  0.00  0.00    -0.349 N 
ATOM     53  C6  NAG d1175       0.613 -16.319  16.566  0.00  0.00     0.043 C 
ATOM     54  C2  NAG d1175       4.013 -16.158  19.088  0.00  0.00     0.087 C 
ATOM     55  C8  NAG d1175       6.609 -17.517  19.477  0.00  0.00    -0.003 C 
ATOM     56  O7  NAG d1175       7.093 -15.701  20.916  0.00  0.00    -0.274 OA
ATOM     57  C3  NAG d1175       4.117 -15.262  17.864  0.00  0.00     0.093 C 
ATOM     58  C4  NAG d1175       3.026 -15.690  16.873  0.00  0.00     0.089 C 
ATOM     59  C1  NAG d1175       2.604 -16.007  19.643  0.00  0.00     0.151 C 
ATOM     60  C5  NAG d1175       1.639 -15.736  17.526  0.00  0.00     0.089 C 
ATOM     61  O5  NAG d1175       1.646 -16.501  18.717  0.00  0.00    -0.349 OA
ATOM     62  H   NAG d1175       3.191 -16.423  21.456  0.00  0.00     0.212 HD
ATOM     63  H   NAG d1175      -1.334 -16.389  16.439  0.00  0.00     0.209 HD
ATOM     64  H   NAG d1175       3.897 -14.863  15.304  0.00  0.00     0.210 HD
ATOM     65  H   NAG d1175       4.673 -15.221  20.861  0.00  0.00     0.163 HD
ATOM     66  H   NAG d1175       0.743 -15.889  15.595  0.00  0.00     0.078 H 
ATOM     67  H   NAG d1175       0.740 -17.380  16.497  0.00  0.00     0.078 H 
ATOM     68  H   NAG d1175       4.234 -17.159  18.781  0.00  0.00     0.084 H 
ATOM     69  H   NAG d1175       5.755 -17.882  18.945  0.00  0.00     0.040 H 
ATOM     70  H   NAG d1175       6.948 -18.264  20.164  0.00  0.00     0.040 H 
ATOM     71  H   NAG d1175       7.391 -17.288  18.783  0.00  0.00     0.040 H 
ATOM     72  H   NAG d1175       3.969 -14.220  18.061  0.00  0.00     0.091 H 
ATOM     73  H   NAG d1175       3.275 -16.685  16.570  0.00  0.00     0.091 H 
ATOM     74  H   NAG d1175       2.389 -14.975  19.826  0.00  0.00     0.132 H 
ATOM     75  H   NAG d1175       1.375 -14.729  17.768  0.00  0.00     0.090 H 
ATOM     76  C2  NAG d1181      10.755 -17.772  -6.048  0.00  0.00     0.087 C 
ATOM     77  C8  NAG d1181      12.579 -19.890  -5.136  0.00  0.00    -0.003 C 
ATOM     78  O5  NAG d1181       8.629 -16.606  -5.692  0.00  0.00    -0.349 OA
ATOM     79  O4  NAG d1181       8.432 -18.556  -8.806  0.00  0.00    -0.390 OA
ATOM     80  C3  NAG d1181      10.373 -17.998  -7.501  0.00  0.00     0.086 C 
ATOM     81  C1  NAG d1181      10.030 -16.561  -5.459  0.00  0.00     0.154 C 
ATOM     82  N2  NAG d1181      12.191 -17.604  -5.907  0.00  0.00    -0.349 N 
ATOM     83  C4  NAG d1181       8.859 -18.173  -7.517  0.00  0.00     0.089 C 
ATOM     84  O6  NAG d1181       6.049 -17.148  -6.055  0.00  0.00    -0.398 OA
ATOM     85  O3  NAG d1181      11.051 -19.113  -8.058  0.00  0.00    -0.391 OA
ATOM     86  C5  NAG d1181       8.253 -16.838  -7.047  0.00  0.00     0.089 C 
ATOM     87  O7  NAG d1181      13.953 -18.052  -4.574  0.00  0.00    -0.274 OA
ATOM     88  C7  NAG d1181      12.957 -18.436  -5.184  0.00  0.00     0.214 C 
ATOM     89  C6  NAG d1181       6.731 -16.733  -7.220  0.00  0.00     0.043 C 
ATOM     90  H   NAG d1181      10.453 -18.642  -5.503  0.00  0.00     0.084 H 
ATOM     91  H   NAG d1181      11.694 -20.048  -5.716  0.00  0.00     0.040 H 
ATOM     92  H   NAG d1181      12.396 -20.178  -4.121  0.00  0.00     0.040 H 
ATOM     93  H   NAG d1181      13.378 -20.479  -5.535  0.00  0.00     0.040 H 
ATOM     94  H   NAG d1181       8.845 -19.400  -9.046  0.00  0.00     0.210 HD
ATOM     95  H   NAG d1181      10.664 -17.169  -8.112  0.00  0.00     0.090 H 
ATOM     96  H   NAG d1181      10.345 -15.644  -5.912  0.00  0.00     0.132 H 
ATOM     97  H   NAG d1181      12.623 -16.845  -6.363  0.00  0.00     0.163 HD
ATOM     98  H   NAG d1181       8.533 -18.952  -6.860  0.00  0.00     0.091 H 
ATOM     99  H   NAG d1181       5.092 -17.070  -6.195  0.00  0.00     0.209 HD
ATOM    100  H   NAG d1181      10.833 -19.910  -7.550  0.00  0.00     0.210 HD
ATOM    101  H   NAG d1181       8.653 -16.078  -7.685  0.00  0.00     0.090 H 
ATOM    102  H   NAG d1181       6.475 -15.716  -7.430  0.00  0.00     0.078 H 
ATOM    103  H   NAG d1181       6.440 -17.374  -8.026  0.00  0.00     0.078 H 
ATOM    104  C4  NAG d1179      10.890 -10.948   0.185  0.00  0.00     0.089 C 
ATOM    105  N2  NAG d1179       9.537 -13.542   2.636  0.00  0.00    -0.349 N 
ATOM    106  C6  NAG d1179      12.125  -8.863   0.918  0.00  0.00     0.043 C 
ATOM    107  O4  NAG d1179      11.641 -11.075  -1.019  0.00  0.00    -0.390 OA
ATOM    108  O6  NAG d1179      10.978  -8.039   0.954  0.00  0.00    -0.398 OA
ATOM    109  C1  NAG d1179      10.798 -11.507   3.020  0.00  0.00     0.154 C 
ATOM    110  C5  NAG d1179      11.749 -10.294   1.264  0.00  0.00     0.089 C 
ATOM    111  O5  NAG d1179      11.036 -10.240   2.486  0.00  0.00    -0.349 OA
ATOM    112  C2  NAG d1179       9.859 -12.244   2.071  0.00  0.00     0.087 C 
ATOM    113  C8  NAG d1179       8.095 -15.277   3.423  0.00  0.00    -0.003 C 
ATOM    114  C7  NAG d1179       8.287 -14.002   2.672  0.00  0.00     0.214 C 
ATOM    115  C3  NAG d1179      10.443 -12.328   0.651  0.00  0.00     0.093 C 
ATOM    116  O3  NAG d1179       9.458 -12.813  -0.250  0.00  0.00    -0.348 OA
ATOM    117  O7  NAG d1179       7.339 -13.448   2.125  0.00  0.00    -0.274 OA
ATOM    118  H   NAG d1179      10.030 -10.337   0.003  0.00  0.00     0.091 H 
ATOM    119  H   NAG d1179      10.262 -14.098   3.002  0.00  0.00     0.163 HD
ATOM    120  H   NAG d1179      12.550  -8.836  -0.063  0.00  0.00     0.078 H 
ATOM    121  H   NAG d1179      12.837  -8.505   1.631  0.00  0.00     0.078 H 
ATOM    122  H   NAG d1179      12.421 -11.629  -0.857  0.00  0.00     0.210 HD
ATOM    123  H   NAG d1179      10.329  -8.360   0.308  0.00  0.00     0.209 HD
ATOM    124  H   NAG d1179      11.741 -11.990   3.170  0.00  0.00     0.132 H 
ATOM    125  H   NAG d1179      12.634 -10.890   1.341  0.00  0.00     0.090 H 
ATOM    126  H   NAG d1179       8.947 -11.694   1.967  0.00  0.00     0.084 H 
ATOM    127  H   NAG d1179       9.034 -15.599   3.824  0.00  0.00     0.040 H 
ATOM    128  H   NAG d1179       7.714 -16.026   2.761  0.00  0.00     0.040 H 
ATOM    129  H   NAG d1179       7.401 -15.119   4.221  0.00  0.00     0.040 H 
ATOM    130  H   NAG d1179      11.281 -12.992   0.669  0.00  0.00     0.091 H 
ATOM    131  O5  BDP d1180      10.762 -13.744  -1.909  0.00  0.00    -0.340 OA
ATOM    132  O6A BDP d1180      13.326 -15.135  -3.554  0.00  0.00    -0.646 OA
ATOM    133  O2  BDP d1180       7.851 -15.223  -0.328  0.00  0.00    -0.388 OA
ATOM    134  O3  BDP d1180       7.667 -16.109  -3.127  0.00  0.00    -0.390 OA
ATOM    135  C5  BDP d1180      11.155 -14.880  -2.646  0.00  0.00     0.152 C 
ATOM    136  C2  BDP d1180       8.576 -14.696  -1.418  0.00  0.00     0.110 C 
ATOM    137  C3  BDP d1180       8.850 -15.833  -2.398  0.00  0.00     0.092 C 
ATOM    138  C6  BDP d1180      12.271 -14.467  -3.593  0.00  0.00     0.206 C 
ATOM    139  C1  BDP d1180       9.848 -14.041  -0.882  0.00  0.00     0.160 C 
ATOM    140  C4  BDP d1180       9.950 -15.453  -3.376  0.00  0.00     0.103 C 
ATOM    141  O6B BDP d1180      12.072 -13.471  -4.336  0.00  0.00    -0.646 OA
ATOM    142  O4  BDP d1180      10.339 -16.615  -4.056  0.00  0.00    -0.348 OA
ATOM    143  H   BDP d1180       7.665 -14.516   0.309  0.00  0.00     0.210 HD
ATOM    144  H   BDP d1180       6.958 -16.352  -2.512  0.00  0.00     0.210 HD
ATOM    145  H   BDP d1180      11.527 -15.653  -2.007  0.00  0.00     0.104 H 
ATOM    146  H   BDP d1180       8.030 -13.941  -1.945  0.00  0.00     0.094 H 
ATOM    147  H   BDP d1180       9.163 -16.693  -1.844  0.00  0.00     0.091 H 
ATOM    148  H   BDP d1180      10.329 -14.715  -0.204  0.00  0.00     0.133 H 
ATOM    149  H   BDP d1180       9.583 -14.709  -4.051  0.00  0.00     0.092 H 
ATOM    150  C3  BDP d1176       8.301 -13.597  15.764  0.00  0.00     0.092 C 
ATOM    151  O4  BDP d1176       8.360 -12.758  13.443  0.00  0.00    -0.348 OA
ATOM    152  O3  BDP d1176       9.691 -13.885  15.864  0.00  0.00    -0.390 OA
ATOM    153  O5  BDP d1176       5.637 -14.502  15.249  0.00  0.00    -0.340 OA
ATOM    154  O2  BDP d1176       7.907 -14.235  18.052  0.00  0.00    -0.388 OA
ATOM    155  C1  BDP d1176       6.017 -14.395  16.605  0.00  0.00     0.160 C 
ATOM    156  O6B BDP d1176       5.062 -12.979  12.408  0.00  0.00    -0.646 OA
ATOM    157  C5  BDP d1176       6.269 -13.580  14.356  0.00  0.00     0.152 C 
ATOM    158  O6A BDP d1176       5.774 -15.083  12.569  0.00  0.00    -0.646 OA
ATOM    159  C6  BDP d1176       5.670 -13.906  13.008  0.00  0.00     0.206 C 
ATOM    160  C4  BDP d1176       7.792 -13.720  14.318  0.00  0.00     0.103 C 
ATOM    161  C2  BDP d1176       7.537 -14.527  16.715  0.00  0.00     0.110 C 
ATOM    162  H   BDP d1176       8.132 -12.580  16.050  0.00  0.00     0.091 H 
ATOM    163  H   BDP d1176       9.850 -14.807  15.605  0.00  0.00     0.210 HD
ATOM    164  H   BDP d1176       8.869 -14.312  18.146  0.00  0.00     0.210 HD
ATOM    165  H   BDP d1176       5.687 -13.449  16.981  0.00  0.00     0.133 H 
ATOM    166  H   BDP d1176       6.101 -12.570  14.666  0.00  0.00     0.104 H 
ATOM    167  H   BDP d1176       8.089 -14.672  13.928  0.00  0.00     0.092 H 
ATOM    168  H   BDP d1176       7.798 -15.527  16.437  0.00  0.00     0.094 H 
ENDROOT
TORSDOF 43
ENDMDL
MODEL 2
REMARK VINA RESULT:     -11.2      1.310      1.616
REMARK  0 active torsions:
REMARK  status: ('A' for Active; 'I' for Inactive)
REMARK       I    between atoms: C3_1  and  O3_90 
REMARK       I    between atoms: O1_4  and  C1_76 
REMARK       I    between atoms: C2_5  and  N2_21 
REMARK       I    between atoms: C8_6  and  C7_66 
REMARK       I    between atoms: C4_7  and  O4_24 
REMARK       I    between atoms: N2_9  and  C2_60 
REMARK       I    between atoms: N2_9  and  C7_69 
REMARK       I    between atoms: O4_12  and  C4_26 
REMARK       I    between atoms: O3_13  and  C3_65 
REMARK       I    between atoms: O3_13  and  C1_61 
REMARK       I    between atoms: C3_14  and  O3_35 
REMARK       I    between atoms: C6_15  and  C5_53 
REMARK       I    between atoms: C6_15  and  O6_46 
REMARK       I    between atoms: O6_16  and  C6_54 
REMARK       I    between atoms: C4_17  and  O4_49 
REMARK       I    between atoms: O4_18  and  C4_28 
REMARK       I    between atoms: O4_18  and  C1_47 
REMARK       I    between atoms: C3_19  and  O3_43 
REMARK       I    between atoms: C1_20  and  O4_91 
REMARK       I    between atoms: N2_21  and  C7_66 
REMARK       I    between atoms: O3_22  and  C3_82 
REMARK       I    between atoms: C7_23  and  C8_62 
REMARK       I    between atoms: C7_23  and  N2_51 
REMARK       I    between atoms: C2_25  and  N2_41 
REMARK       I    between atoms: C1_27  and  O3_90 
REMARK       I    between atoms: O6_29  and  C6_74 
REMARK       I    between atoms: O2_30  and  C2_37 
REMARK       I    between atoms: C2_31  and  O2_42 
REMARK       I    between atoms: O3_32  and  C3_45 
REMARK       I    between atoms: O4_33  and  C4_73 
REMARK       I    between atoms: O4_34  and  C4_84 
REMARK       I    between atoms: O4_34  and  C1_85 
REMARK       I    between atoms: C5_36  and  C6_48 
REMARK       I    between atoms: C6_38  and  C5_40 
REMARK       I    between atoms: C6_38  and  O6_89 
REMARK       I    between atoms: N2_41  and  C7_50 
REMARK       I    between atoms: C5_44  and  C6_74 
REMARK       I    between atoms: C7_50  and  C8_75 
REMARK       I    between atoms: N2_51  and  C2_58 
REMARK       I    between atoms: C1_52  and  O3_87 
REMARK       I    between atoms: C6_54  and  C5_86 
REMARK       I    between atoms: O2_59  and  C2_93 
REMARK       I    between atoms: C8_64  and  C7_69 
REMARK       I    between atoms: C6_70  and  C5_80 
REMARK       I    between atoms: C4_72  and  O4_91 
REMARK       I    between atoms: C5_77  and  C6_79 
REMARK       I    between atoms: C3_83  and  O3_87 
ROOT
ATOM      1  C3  NAG d1177      10.400 -12.154  11.192  0.00  0.00     0.093 C 
ATOM      2  O7  NAG d1177       7.644  -9.447  11.527  0.00  0.00    -0.274 OA
ATOM      3  C4  NAG d1177      11.619 -12.512  12.060  0.00  0.00     0.089 C 
ATOM      4  C2  NAG d1177       9.200 -11.837  12.071  0.00  0.00     0.087 C 
ATOM      5  C6  NAG d1177      12.421 -13.842  14.084  0.00  0.00     0.043 C 
ATOM      6  C5  NAG d1177      11.265 -13.551  13.113  0.00  0.00     0.089 C 
ATOM      7  N2  NAG d1177       7.956 -11.724  11.288  0.00  0.00    -0.349 N 
ATOM      8  O4  NAG d1177      12.677 -12.997  11.255  0.00  0.00    -0.390 OA
ATOM      9  C7  NAG d1177       7.299 -10.582  11.067  0.00  0.00     0.214 C 
ATOM     10  O5  NAG d1177      10.149 -13.109  13.875  0.00  0.00    -0.349 OA
ATOM     11  C8  NAG d1177       6.050 -10.792  10.252  0.00  0.00    -0.003 C 
ATOM     12  C1  NAG d1177       8.980 -12.937  13.108  0.00  0.00     0.154 C 
ATOM     13  O6  NAG d1177      12.762 -12.687  14.829  0.00  0.00    -0.398 OA
ATOM     14  O3  NAG d1177      10.676 -10.999  10.449  0.00  0.00    -0.348 OA
ATOM     15  H   NAG d1177      10.191 -12.988  10.556  0.00  0.00     0.091 H 
ATOM     16  H   NAG d1177      11.932 -11.617  12.557  0.00  0.00     0.091 H 
ATOM     17  H   NAG d1177       9.419 -10.902  12.543  0.00  0.00     0.084 H 
ATOM     18  H   NAG d1177      13.275 -14.164  13.525  0.00  0.00     0.078 H 
ATOM     19  H   NAG d1177      12.110 -14.607  14.764  0.00  0.00     0.078 H 
ATOM     20  H   NAG d1177      11.043 -14.452  12.581  0.00  0.00     0.090 H 
ATOM     21  H   NAG d1177       7.583 -12.549  10.899  0.00  0.00     0.163 HD
ATOM     22  H   NAG d1177      12.395 -13.808  10.805  0.00  0.00     0.210 HD
ATOM     23  H   NAG d1177       5.560  -9.853  10.102  0.00  0.00     0.040 H 
ATOM     24  H   NAG d1177       5.393 -11.458  10.771  0.00  0.00     0.040 H 
ATOM     25  H   NAG d1177       6.309 -11.215   9.304  0.00  0.00     0.040 H 
ATOM     26  H   NAG d1177       8.766 -13.863  12.617  0.00  0.00     0.132 H 
ATOM     27  H   NAG d1177      13.047 -11.984  14.224  0.00  0.00     0.209 HD
ATOM     28  O6A BDP d1178      13.455 -13.184   7.222  0.00  0.00    -0.646 OA
ATOM     29  O4  BDP d1178      10.692 -11.280   5.013  0.00  0.00    -0.348 OA
ATOM     30  O3  BDP d1178      10.641  -8.740   6.296  0.00  0.00    -0.390 OA
ATOM     31  C1  BDP d1178      10.468 -11.185   9.042  0.00  0.00     0.160 C 
ATOM     32  C4  BDP d1178      11.217 -11.050   6.300  0.00  0.00     0.103 C 
ATOM     33  C2  BDP d1178      10.607  -9.825   8.391  0.00  0.00     0.110 C 
ATOM     34  O2  BDP d1178       9.697  -8.916   8.953  0.00  0.00    -0.388 OA
ATOM     35  O6B BDP d1178      12.102 -14.071   5.684  0.00  0.00    -0.646 OA
ATOM     36  O5  BDP d1178      11.428 -12.059   8.477  0.00  0.00    -0.340 OA
ATOM     37  C6  BDP d1178      12.341 -13.272   6.632  0.00  0.00     0.206 C 
ATOM     38  C5  BDP d1178      11.220 -12.338   7.107  0.00  0.00     0.152 C 
ATOM     39  C3  BDP d1178      10.315  -9.967   6.924  0.00  0.00     0.092 C 
ATOM     40  H   BDP d1178      10.461  -8.805   5.345  0.00  0.00     0.210 HD
ATOM     41  H   BDP d1178       9.504 -11.619   8.882  0.00  0.00     0.133 H 
ATOM     42  H   BDP d1178      12.235 -10.722   6.276  0.00  0.00     0.092 H 
ATOM     43  H   BDP d1178      11.601  -9.459   8.545  0.00  0.00     0.094 H 
ATOM     44  H   BDP d1178       8.792  -9.239   8.818  0.00  0.00     0.210 HD
ATOM     45  H   BDP d1178      10.270 -12.810   6.968  0.00  0.00     0.104 H 
ATOM     46  H   BDP d1178       9.285 -10.229   6.792  0.00  0.00     0.091 H 
ATOM     47  O1  NAG d1175       1.428 -16.942  20.578  0.00  0.00    -0.369 OA
ATOM     48  O3  NAG d1175       4.648 -15.475  17.510  0.00  0.00    -0.348 OA
ATOM     49  O6  NAG d1175      -1.279 -16.557  16.379  0.00  0.00    -0.398 OA
ATOM     50  C7  NAG d1175       5.120 -16.158  20.480  0.00  0.00     0.214 C 
ATOM     51  O4  NAG d1175       2.446 -15.125  15.511  0.00  0.00    -0.390 OA
ATOM     52  N2  NAG d1175       3.853 -15.818  20.214  0.00  0.00    -0.349 N 
ATOM     53  C6  NAG d1175       0.079 -16.751  16.089  0.00  0.00     0.043 C 
ATOM     54  C2  NAG d1175       3.074 -16.250  19.043  0.00  0.00     0.087 C 
ATOM     55  C8  NAG d1175       5.695 -17.371  19.822  0.00  0.00    -0.003 C 
ATOM     56  O7  NAG d1175       5.824 -15.494  21.257  0.00  0.00    -0.274 OA
ATOM     57  C3  NAG d1175       3.271 -15.371  17.818  0.00  0.00     0.093 C 
ATOM     58  C4  NAG d1175       2.366 -15.910  16.701  0.00  0.00     0.089 C 
ATOM     59  C1  NAG d1175       1.594 -16.210  19.397  0.00  0.00     0.151 C 
ATOM     60  C5  NAG d1175       0.911 -16.064  17.160  0.00  0.00     0.089 C 
ATOM     61  O5  NAG d1175       0.817 -16.802  18.365  0.00  0.00    -0.349 OA
ATOM     62  H   NAG d1175       1.958 -16.539  21.285  0.00  0.00     0.212 HD
ATOM     63  H   NAG d1175      -1.819 -16.992  15.701  0.00  0.00     0.209 HD
ATOM     64  H   NAG d1175       3.374 -15.041  15.240  0.00  0.00     0.210 HD
ATOM     65  H   NAG d1175       3.403 -15.226  20.859  0.00  0.00     0.163 HD
ATOM     66  H   NAG d1175       0.306 -16.330  15.132  0.00  0.00     0.078 H 
ATOM     67  H   NAG d1175       0.302 -17.798  16.071  0.00  0.00     0.078 H 
ATOM     68  H   NAG d1175       3.418 -17.233  18.799  0.00  0.00     0.084 H 
ATOM     69  H   NAG d1175       4.956 -17.819  19.191  0.00  0.00     0.040 H 
ATOM     70  H   NAG d1175       5.997 -18.074  20.571  0.00  0.00     0.040 H 
ATOM     71  H   NAG d1175       6.544 -17.090  19.234  0.00  0.00     0.040 H 
ATOM     72  H   NAG d1175       3.011 -14.343  17.960  0.00  0.00     0.091 H 
ATOM     73  H   NAG d1175       2.737 -16.886  16.465  0.00  0.00     0.091 H 
ATOM     74  H   NAG d1175       1.272 -15.197  19.516  0.00  0.00     0.132 H 
ATOM     75  H   NAG d1175       0.533 -15.079  17.333  0.00  0.00     0.090 H 
ATOM     76  C2  NAG d1181      13.327 -17.755  -4.883  0.00  0.00     0.087 C 
ATOM     77  C8  NAG d1181      15.178 -19.689  -3.667  0.00  0.00    -0.003 C 
ATOM     78  O5  NAG d1181      11.084 -16.770  -4.856  0.00  0.00    -0.349 OA
ATOM     79  O4  NAG d1181      11.480 -18.788  -7.906  0.00  0.00    -0.390 OA
ATOM     80  C3  NAG d1181      13.170 -18.040  -6.368  0.00  0.00     0.086 C 
ATOM     81  C1  NAG d1181      12.430 -16.599  -4.436  0.00  0.00     0.154 C 
ATOM     82  N2  NAG d1181      14.712 -17.461  -4.554  0.00  0.00    -0.349 N 
ATOM     83  C4  NAG d1181      11.692 -18.345  -6.583  0.00  0.00     0.089 C 
ATOM     84  O6  NAG d1181       8.631 -17.540  -5.548  0.00  0.00    -0.398 OA
ATOM     85  O3  NAG d1181      14.008 -19.103  -6.792  0.00  0.00    -0.391 OA
ATOM     86  C5  NAG d1181      10.919 -17.059  -6.242  0.00  0.00     0.089 C 
ATOM     87  O7  NAG d1181      16.304 -17.729  -2.982  0.00  0.00    -0.274 OA
ATOM     88  C7  NAG d1181      15.437 -18.209  -3.709  0.00  0.00     0.214 C 
ATOM     89  C6  NAG d1181       9.432 -17.089  -6.622  0.00  0.00     0.043 C 
ATOM     90  H   NAG d1181      13.026 -18.637  -4.359  0.00  0.00     0.084 H 
ATOM     91  H   NAG d1181      14.397 -19.934  -4.358  0.00  0.00     0.040 H 
ATOM     92  H   NAG d1181      14.881 -19.973  -2.679  0.00  0.00     0.040 H 
ATOM     93  H   NAG d1181      16.070 -20.215  -3.936  0.00  0.00     0.040 H 
ATOM     94  H   NAG d1181      11.991 -19.598  -8.061  0.00  0.00     0.210 HD
ATOM     95  H   NAG d1181      13.472 -17.201  -6.958  0.00  0.00     0.090 H 
ATOM     96  H   NAG d1181      12.727 -15.668  -4.870  0.00  0.00     0.132 H 
ATOM     97  H   NAG d1181      15.137 -16.676  -4.970  0.00  0.00     0.163 HD
ATOM     98  H   NAG d1181      11.344 -19.137  -5.953  0.00  0.00     0.091 H 
ATOM     99  H   NAG d1181       7.700 -17.547  -5.820  0.00  0.00     0.209 HD
ATOM    100  H   NAG d1181      13.788 -19.906  -6.295  0.00  0.00     0.210 HD
ATOM    101  H   NAG d1181      11.338 -16.279  -6.842  0.00  0.00     0.090 H 
ATOM    102  H   NAG d1181       9.123 -16.102  -6.896  0.00  0.00     0.078 H 
ATOM    103  H   NAG d1181       9.308 -17.768  -7.441  0.00  0.00     0.078 H 
ATOM    104  C4  NAG d1179      12.036 -10.827   1.097  0.00  0.00     0.089 C 
ATOM    105  N2  NAG d1179      10.577 -13.480   3.420  0.00  0.00    -0.349 N 
ATOM    106  C6  NAG d1179      12.981  -8.629   1.927  0.00  0.00     0.043 C 
ATOM    107  O4  NAG d1179      12.954 -10.912   0.011  0.00  0.00    -0.390 OA
ATOM    108  O6  NAG d1179      11.775  -7.907   1.781  0.00  0.00    -0.398 OA
ATOM    109  C1  NAG d1179      11.601 -11.338   3.910  0.00  0.00     0.154 C 
ATOM    110  C5  NAG d1179      12.681 -10.080   2.262  0.00  0.00     0.089 C 
ATOM    111  O5  NAG d1179      11.804 -10.065   3.374  0.00  0.00    -0.349 OA
ATOM    112  C2  NAG d1179      10.866 -12.170   2.865  0.00  0.00     0.087 C 
ATOM    113  C8  NAG d1179       9.190 -15.318   4.057  0.00  0.00    -0.003 C 
ATOM    114  C7  NAG d1179       9.377 -14.046   3.301  0.00  0.00     0.214 C 
ATOM    115  C3  NAG d1179      11.645 -12.231   1.540  0.00  0.00     0.093 C 
ATOM    116  O3  NAG d1179      10.837 -12.816   0.530  0.00  0.00    -0.348 OA
ATOM    117  O7  NAG d1179       8.471 -13.587   2.613  0.00  0.00    -0.274 OA
ATOM    118  H   NAG d1179      11.161 -10.295   0.782  0.00  0.00     0.091 H 
ATOM    119  H   NAG d1179      11.288 -13.964   3.899  0.00  0.00     0.163 HD
ATOM    120  H   NAG d1179      13.534  -8.584   1.012  0.00  0.00     0.078 H 
ATOM    121  H   NAG d1179      13.556  -8.198   2.719  0.00  0.00     0.078 H 
ATOM    122  H   NAG d1179      13.746 -11.393   0.294  0.00  0.00     0.210 HD
ATOM    123  H   NAG d1179      11.250  -8.295   1.063  0.00  0.00     0.209 HD
ATOM    124  H   NAG d1179      12.550 -11.735   4.201  0.00  0.00     0.132 H 
ATOM    125  H   NAG d1179      13.593 -10.596   2.477  0.00  0.00     0.090 H 
ATOM    126  H   NAG d1179       9.934 -11.703   2.621  0.00  0.00     0.084 H 
ATOM    127  H   NAG d1179      10.087 -15.551   4.592  0.00  0.00     0.040 H 
ATOM    128  H   NAG d1179       8.967 -16.110   3.373  0.00  0.00     0.040 H 
ATOM    129  H   NAG d1179       8.382 -15.206   4.749  0.00  0.00     0.040 H 
ATOM    130  H   NAG d1179      12.524 -12.820   1.693  0.00  0.00     0.091 H 
ATOM    131  O5  BDP d1180      12.429 -13.662  -0.908  0.00  0.00    -0.340 OA
ATOM    132  O6A BDP d1180      15.302 -14.859  -2.146  0.00  0.00    -0.646 OA
ATOM    133  O2  BDP d1180       9.462 -15.357   0.308  0.00  0.00    -0.388 OA
ATOM    134  O3  BDP d1180       9.739 -16.309  -2.462  0.00  0.00    -0.390 OA
ATOM    135  C5  BDP d1180      13.013 -14.774  -1.549  0.00  0.00     0.152 C 
ATOM    136  C2  BDP d1180      10.283 -14.790  -0.689  0.00  0.00     0.110 C 
ATOM    137  C3  BDP d1180      10.783 -15.918  -1.588  0.00  0.00     0.092 C 
ATOM    138  C6  BDP d1180      14.211 -14.284  -2.348  0.00  0.00     0.206 C 
ATOM    139  C1  BDP d1180      11.411 -14.018  -0.005  0.00  0.00     0.160 C 
ATOM    140  C4  BDP d1180      11.972 -15.463  -2.418  0.00  0.00     0.103 C 
ATOM    141  O6B BDP d1180      14.035 -13.324  -3.142  0.00  0.00    -0.646 OA
ATOM    142  O4  BDP d1180      12.546 -16.600  -3.003  0.00  0.00    -0.348 OA
ATOM    143  H   BDP d1180       9.131 -14.657   0.892  0.00  0.00     0.210 HD
ATOM    144  H   BDP d1180       8.975 -16.601  -1.941  0.00  0.00     0.210 HD
ATOM    145  H   BDP d1180      13.357 -15.500  -0.842  0.00  0.00     0.104 H 
ATOM    146  H   BDP d1180       9.754 -14.095  -1.309  0.00  0.00     0.094 H 
ATOM    147  H   BDP d1180      11.087 -16.737  -0.970  0.00  0.00     0.091 H 
ATOM    148  H   BDP d1180      11.848 -14.635   0.752  0.00  0.00     0.133 H 
ATOM    149  H   BDP d1180      11.641 -14.767  -3.159  0.00  0.00     0.092 H 
ATOM    150  C3  BDP d1176       7.552 -13.392  16.255  0.00  0.00     0.092 C 
ATOM    151  O4  BDP d1176       7.861 -12.595  13.938  0.00  0.00    -0.348 OA
ATOM    152  O3  BDP d1176       8.934 -13.557  16.551  0.00  0.00    -0.390 OA
ATOM    153  O5  BDP d1176       5.069 -14.533  15.411  0.00  0.00    -0.340 OA
ATOM    154  O2  BDP d1176       6.900 -14.017  18.487  0.00  0.00    -0.388 OA
ATOM    155  C1  BDP d1176       5.248 -14.368  16.802  0.00  0.00     0.160 C 
ATOM    156  O6B BDP d1176       4.767 -13.120  12.473  0.00  0.00    -0.646 OA
ATOM    157  C5  BDP d1176       5.739 -13.577  14.584  0.00  0.00     0.152 C 
ATOM    158  O6A BDP d1176       5.622 -15.151  12.793  0.00  0.00    -0.646 OA
ATOM    159  C6  BDP d1176       5.361 -13.980  13.177  0.00  0.00     0.206 C 
ATOM    160  C4  BDP d1176       7.260 -13.586  14.757  0.00  0.00     0.103 C 
ATOM    161  C2  BDP d1176       6.744 -14.366  17.122  0.00  0.00     0.110 C 
ATOM    162  H   BDP d1176       7.262 -12.388  16.484  0.00  0.00     0.091 H 
ATOM    163  H   BDP d1176       9.203 -14.466  16.345  0.00  0.00     0.210 HD
ATOM    164  H   BDP d1176       7.843 -14.009  18.712  0.00  0.00     0.210 HD
ATOM    165  H   BDP d1176       4.792 -13.446  17.101  0.00  0.00     0.133 H 
ATOM    166  H   BDP d1176       5.447 -12.579  14.837  0.00  0.00     0.104 H 
ATOM    167  H   BDP d1176       7.685 -14.516  14.441  0.00  0.00     0.092 H 
ATOM    168  H   BDP d1176       7.123 -15.344  16.912  0.00  0.00     0.094 H 
ENDROOT
TORSDOF 43
ENDMDL
MODEL 3
REMARK VINA RESULT:      -9.4      4.483     19.170
REMARK  0 active torsions:
REMARK  status: ('A' for Active; 'I' for Inactive)
REMARK       I    between atoms: C3_1  and  O3_90 
REMARK       I    between atoms: O1_4  and  C1_76 
REMARK       I    between atoms: C2_5  and  N2_21 
REMARK       I    between atoms: C8_6  and  C7_66 
REMARK       I    between atoms: C4_7  and  O4_24 
REMARK       I    between atoms: N2_9  and  C2_60 
REMARK       I    between atoms: N2_9  and  C7_69 
REMARK       I    between atoms: O4_12  and  C4_26 
REMARK       I    between atoms: O3_13  and  C3_65 
REMARK       I    between atoms: O3_13  and  C1_61 
REMARK       I    between atoms: C3_14  and  O3_35 
REMARK       I    between atoms: C6_15  and  C5_53 
REMARK       I    between atoms: C6_15  and  O6_46 
REMARK       I    between atoms: O6_16  and  C6_54 
REMARK       I    between atoms: C4_17  and  O4_49 
REMARK       I    between atoms: O4_18  and  C4_28 
REMARK       I    between atoms: O4_18  and  C1_47 
REMARK       I    between atoms: C3_19  and  O3_43 
REMARK       I    between atoms: C1_20  and  O4_91 
REMARK       I    between atoms: N2_21  and  C7_66 
REMARK       I    between atoms: O3_22  and  C3_82 
REMARK       I    between atoms: C7_23  and  C8_62 
REMARK       I    between atoms: C7_23  and  N2_51 
REMARK       I    between atoms: C2_25  and  N2_41 
REMARK       I    between atoms: C1_27  and  O3_90 
REMARK       I    between atoms: O6_29  and  C6_74 
REMARK       I    between atoms: O2_30  and  C2_37 
REMARK       I    between atoms: C2_31  and  O2_42 
REMARK       I    between atoms: O3_32  and  C3_45 
REMARK       I    between atoms: O4_33  and  C4_73 
REMARK       I    between atoms: O4_34  and  C4_84 
REMARK       I    between atoms: O4_34  and  C1_85 
REMARK       I    between atoms: C5_36  and  C6_48 
REMARK       I    between atoms: C6_38  and  C5_40 
REMARK       I    between atoms: C6_38  and  O6_89 
REMARK       I    between atoms: N2_41  and  C7_50 
REMARK       I    between atoms: C5_44  and  C6_74 
REMARK       I    between atoms: C7_50  and  C8_75 
REMARK       I    between atoms: N2_51  and  C2_58 
REMARK       I    between atoms: C1_52  and  O3_87 
REMARK       I    between atoms: C6_54  and  C5_86 
REMARK       I    between atoms: O2_59  and  C2_93 
REMARK       I    between atoms: C8_64  and  C7_69 
REMARK       I    between atoms: C6_70  and  C5_80 
REMARK       I    between atoms: C4_72  and  O4_91 
REMARK       I    between atoms: C5_77  and  C6_79 
REMARK       I    between atoms: C3_83  and  O3_87 
ROOT
ATOM      1  C3  NAG d1177      15.196  -8.730   1.827  0.00  0.00     0.093 C 
ATOM      2  O7  NAG d1177      17.002 -12.061   1.002  0.00  0.00    -0.274 OA
ATOM      3  C4  NAG d1177      15.484  -7.267   1.448  0.00  0.00     0.089 C 
ATOM      4  C2  NAG d1177      15.436  -9.643   0.635  0.00  0.00     0.087 C 
ATOM      5  C6  NAG d1177      15.150  -5.467  -0.330  0.00  0.00     0.043 C 
ATOM      6  C5  NAG d1177      14.785  -6.881   0.154  0.00  0.00     0.089 C 
ATOM      7  N2  NAG d1177      14.947 -11.012   0.879  0.00  0.00    -0.349 N 
ATOM      8  O4  NAG d1177      15.076  -6.395   2.484  0.00  0.00    -0.390 OA
ATOM      9  C7  NAG d1177      15.730 -12.079   1.054  0.00  0.00     0.214 C 
ATOM     10  O5  NAG d1177      15.125  -7.801  -0.875  0.00  0.00    -0.349 OA
ATOM     11  C8  NAG d1177      14.936 -13.342   1.259  0.00  0.00    -0.003 C 
ATOM     12  C1  NAG d1177      14.713  -9.121  -0.605  0.00  0.00     0.154 C 
ATOM     13  O6  NAG d1177      16.530  -5.375  -0.634  0.00  0.00    -0.398 OA
ATOM     14  O3  NAG d1177      16.080  -9.136   2.836  0.00  0.00    -0.348 OA
ATOM     15  H   NAG d1177      14.178  -8.793   2.150  0.00  0.00     0.091 H 
ATOM     16  H   NAG d1177      16.541  -7.176   1.303  0.00  0.00     0.091 H 
ATOM     17  H   NAG d1177      16.496  -9.658   0.484  0.00  0.00     0.084 H 
ATOM     18  H   NAG d1177      14.913  -4.762   0.439  0.00  0.00     0.078 H 
ATOM     19  H   NAG d1177      14.590  -5.256  -1.217  0.00  0.00     0.078 H 
ATOM     20  H   NAG d1177      13.736  -6.900   0.364  0.00  0.00     0.090 H 
ATOM     21  H   NAG d1177      13.972 -11.149   0.917  0.00  0.00     0.163 HD
ATOM     22  H   NAG d1177      14.118  -6.475   2.616  0.00  0.00     0.210 HD
ATOM     23  H   NAG d1177      15.605 -14.166   1.394  0.00  0.00     0.040 H 
ATOM     24  H   NAG d1177      14.320 -13.519   0.402  0.00  0.00     0.040 H 
ATOM     25  H   NAG d1177      14.318 -13.238   2.127  0.00  0.00     0.040 H 
ATOM     26  H   NAG d1177      13.657  -9.111  -0.433  0.00  0.00     0.132 H 
ATOM     27  H   NAG d1177      17.051  -5.565   0.163  0.00  0.00     0.209 HD
ATOM     28  O6A BDP d1178      13.822  -6.836   6.374  0.00  0.00    -0.646 OA
ATOM     29  O4  BDP d1178      14.080 -10.629   7.673  0.00  0.00    -0.348 OA
ATOM     30  O3  BDP d1178      16.781 -11.237   7.012  0.00  0.00    -0.390 OA
ATOM     31  C1  BDP d1178      15.401  -9.667   3.983  0.00  0.00     0.160 C 
ATOM     32  C4  BDP d1178      14.846  -9.872   6.766  0.00  0.00     0.103 C 
ATOM     33  C2  BDP d1178      16.462 -10.243   4.897  0.00  0.00     0.110 C 
ATOM     34  O2  BDP d1178      17.217 -11.215   4.221  0.00  0.00    -0.388 OA
ATOM     35  O6B BDP d1178      12.153  -8.154   7.053  0.00  0.00    -0.646 OA
ATOM     36  O5  BDP d1178      14.690  -8.665   4.687  0.00  0.00    -0.340 OA
ATOM     37  C6  BDP d1178      13.248  -7.959   6.455  0.00  0.00     0.206 C 
ATOM     38  C5  BDP d1178      13.939  -9.151   5.781  0.00  0.00     0.152 C 
ATOM     39  C3  BDP d1178      15.782 -10.882   6.074  0.00  0.00     0.092 C 
ATOM     40  H   BDP d1178      16.367 -11.653   7.785  0.00  0.00     0.210 HD
ATOM     41  H   BDP d1178      14.692 -10.402   3.664  0.00  0.00     0.133 H 
ATOM     42  H   BDP d1178      15.415  -9.104   7.249  0.00  0.00     0.092 H 
ATOM     43  H   BDP d1178      17.115  -9.458   5.217  0.00  0.00     0.094 H 
ATOM     44  H   BDP d1178      16.633 -11.931   3.926  0.00  0.00     0.210 HD
ATOM     45  H   BDP d1178      13.206  -9.853   5.443  0.00  0.00     0.104 H 
ATOM     46  H   BDP d1178      15.220 -11.730   5.739  0.00  0.00     0.091 H 
ATOM     47  O1  NAG d1175      11.418 -12.065 -11.062  0.00  0.00    -0.369 OA
ATOM     48  O3  NAG d1175      12.643 -10.686  -6.758  0.00  0.00    -0.348 OA
ATOM     49  O6  NAG d1175       9.674 -15.835  -8.259  0.00  0.00    -0.398 OA
ATOM     50  C7  NAG d1175      13.108  -9.136  -9.382  0.00  0.00     0.214 C 
ATOM     51  O4  NAG d1175      11.713 -13.346  -5.743  0.00  0.00    -0.390 OA
ATOM     52  N2  NAG d1175      12.984 -10.456  -9.567  0.00  0.00    -0.349 N 
ATOM     53  C6  NAG d1175       9.777 -14.654  -7.510  0.00  0.00     0.043 C 
ATOM     54  C2  NAG d1175      12.002 -11.329  -8.903  0.00  0.00     0.087 C 
ATOM     55  C8  NAG d1175      11.954  -8.375  -8.813  0.00  0.00    -0.003 C 
ATOM     56  O7  NAG d1175      14.153  -8.533  -9.674  0.00  0.00    -0.274 OA
ATOM     57  C3  NAG d1175      12.459 -11.845  -7.547  0.00  0.00     0.093 C 
ATOM     58  C4  NAG d1175      11.363 -12.772  -7.003  0.00  0.00     0.089 C 
ATOM     59  C1  NAG d1175      11.746 -12.541  -9.787  0.00  0.00     0.151 C 
ATOM     60  C5  NAG d1175      10.972 -13.859  -8.012  0.00  0.00     0.089 C 
ATOM     61  O5  NAG d1175      10.665 -13.311  -9.280  0.00  0.00    -0.349 OA
ATOM     62  H   NAG d1175      12.155 -11.539 -11.410  0.00  0.00     0.212 HD
ATOM     63  H   NAG d1175       8.914 -16.350  -7.947  0.00  0.00     0.209 HD
ATOM     64  H   NAG d1175      11.956 -12.641  -5.123  0.00  0.00     0.210 HD
ATOM     65  H   NAG d1175      13.605 -10.881 -10.202  0.00  0.00     0.163 HD
ATOM     66  H   NAG d1175       9.913 -14.894  -6.477  0.00  0.00     0.078 H 
ATOM     67  H   NAG d1175       8.883 -14.075  -7.619  0.00  0.00     0.078 H 
ATOM     68  H   NAG d1175      11.126 -10.734  -8.749  0.00  0.00     0.084 H 
ATOM     69  H   NAG d1175      11.143  -9.047  -8.622  0.00  0.00     0.040 H 
ATOM     70  H   NAG d1175      11.641  -7.626  -9.511  0.00  0.00     0.040 H 
ATOM     71  H   NAG d1175      12.253  -7.907  -7.898  0.00  0.00     0.040 H 
ATOM     72  H   NAG d1175      13.365 -12.413  -7.569  0.00  0.00     0.091 H 
ATOM     73  H   NAG d1175      10.503 -12.153  -6.844  0.00  0.00     0.091 H 
ATOM     74  H   NAG d1175      12.614 -13.165  -9.816  0.00  0.00     0.132 H 
ATOM     75  H   NAG d1175      11.818 -14.506  -8.115  0.00  0.00     0.090 H 
ATOM     76  C2  NAG d1181       5.750  -8.841  16.288  0.00  0.00     0.087 C 
ATOM     77  C8  NAG d1181       4.895  -6.134  15.522  0.00  0.00    -0.003 C 
ATOM     78  O5  NAG d1181       6.037 -11.173  15.591  0.00  0.00    -0.349 OA
ATOM     79  O4  NAG d1181       3.335 -10.979  18.080  0.00  0.00    -0.390 OA
ATOM     80  C3  NAG d1181       4.970  -9.314  17.504  0.00  0.00     0.086 C 
ATOM     81  C1  NAG d1181       6.696  -9.927  15.770  0.00  0.00     0.154 C 
ATOM     82  N2  NAG d1181       6.502  -7.634  16.589  0.00  0.00    -0.349 N 
ATOM     83  C4  NAG d1181       4.220 -10.565  17.063  0.00  0.00     0.089 C 
ATOM     84  O6  NAG d1181       4.445 -13.250  15.107  0.00  0.00    -0.398 OA
ATOM     85  O3  NAG d1181       4.100  -8.308  17.997  0.00  0.00    -0.391 OA
ATOM     86  C5  NAG d1181       5.284 -11.621  16.715  0.00  0.00     0.089 C 
ATOM     87  O7  NAG d1181       7.200  -5.667  15.738  0.00  0.00    -0.274 OA
ATOM     88  C7  NAG d1181       6.294  -6.468  15.959  0.00  0.00     0.214 C 
ATOM     89  C6  NAG d1181       4.727 -13.032  16.474  0.00  0.00     0.043 C 
ATOM     90  H   NAG d1181       5.037  -8.623  15.521  0.00  0.00     0.084 H 
ATOM     91  H   NAG d1181       4.237  -6.935  15.791  0.00  0.00     0.040 H 
ATOM     92  H   NAG d1181       4.875  -5.997  14.461  0.00  0.00     0.040 H 
ATOM     93  H   NAG d1181       4.576  -5.234  16.004  0.00  0.00     0.040 H 
ATOM     94  H   NAG d1181       2.691 -10.275  18.255  0.00  0.00     0.210 HD
ATOM     95  H   NAG d1181       5.624  -9.534  18.322  0.00  0.00     0.090 H 
ATOM     96  H   NAG d1181       7.481 -10.139  16.465  0.00  0.00     0.132 H 
ATOM     97  H   NAG d1181       7.196  -7.674  17.287  0.00  0.00     0.163 HD
ATOM     98  H   NAG d1181       3.609 -10.390  16.202  0.00  0.00     0.091 H 
ATOM     99  H   NAG d1181       4.096 -14.147  14.988  0.00  0.00     0.209 HD
ATOM    100  H   NAG d1181       3.473  -8.055  17.302  0.00  0.00     0.210 HD
ATOM    101  H   NAG d1181       5.912 -11.720  17.575  0.00  0.00     0.090 H 
ATOM    102  H   NAG d1181       5.448 -13.751  16.800  0.00  0.00     0.078 H 
ATOM    103  H   NAG d1181       3.815 -13.131  17.025  0.00  0.00     0.078 H 
ATOM    104  C4  NAG d1179      13.599 -10.776  11.808  0.00  0.00     0.089 C 
ATOM    105  N2  NAG d1179      11.542 -10.386   8.617  0.00  0.00    -0.349 N 
ATOM    106  C6  NAG d1179      16.117 -10.514  11.872  0.00  0.00     0.043 C 
ATOM    107  O4  NAG d1179      13.424 -10.259  13.123  0.00  0.00    -0.390 OA
ATOM    108  O6  NAG d1179      16.394 -11.887  11.681  0.00  0.00    -0.398 OA
ATOM    109  C1  NAG d1179      13.922 -10.136   9.006  0.00  0.00     0.154 C 
ATOM    110  C5  NAG d1179      14.827 -10.140  11.161  0.00  0.00     0.089 C 
ATOM    111  O5  NAG d1179      14.958 -10.588   9.824  0.00  0.00    -0.349 OA
ATOM    112  C2  NAG d1179      12.630 -10.783   9.493  0.00  0.00     0.087 C 
ATOM    113  C8  NAG d1179       9.701 -10.736   7.135  0.00  0.00    -0.003 C 
ATOM    114  C7  NAG d1179      10.662 -11.267   8.144  0.00  0.00     0.214 C 
ATOM    115  C3  NAG d1179      12.362 -10.468  10.974  0.00  0.00     0.093 C 
ATOM    116  O3  NAG d1179      11.285 -11.260  11.451  0.00  0.00    -0.348 OA
ATOM    117  O7  NAG d1179      10.609 -12.439   8.504  0.00  0.00    -0.274 OA
ATOM    118  H   NAG d1179      13.740 -11.836  11.859  0.00  0.00     0.091 H 
ATOM    119  H   NAG d1179      11.452  -9.439   8.365  0.00  0.00     0.163 HD
ATOM    120  H   NAG d1179      16.015 -10.316  12.918  0.00  0.00     0.078 H 
ATOM    121  H   NAG d1179      16.920  -9.934  11.470  0.00  0.00     0.078 H 
ATOM    122  H   NAG d1179      13.297  -9.299  13.079  0.00  0.00     0.210 HD
ATOM    123  H   NAG d1179      15.668 -12.417  12.044  0.00  0.00     0.209 HD
ATOM    124  H   NAG d1179      13.916  -9.066   9.033  0.00  0.00     0.132 H 
ATOM    125  H   NAG d1179      14.679  -9.082  11.218  0.00  0.00     0.090 H 
ATOM    126  H   NAG d1179      12.720 -11.848   9.444  0.00  0.00     0.084 H 
ATOM    127  H   NAG d1179       9.908  -9.701   6.955  0.00  0.00     0.040 H 
ATOM    128  H   NAG d1179       8.702 -10.841   7.503  0.00  0.00     0.040 H 
ATOM    129  H   NAG d1179       9.804 -11.283   6.222  0.00  0.00     0.040 H 
ATOM    130  H   NAG d1179      12.118  -9.430  11.059  0.00  0.00     0.091 H 
ATOM    131  O5  BDP d1180      10.492  -9.972  13.191  0.00  0.00    -0.340 OA
ATOM    132  O6A BDP d1180       9.797  -7.366  15.177  0.00  0.00    -0.646 OA
ATOM    133  O2  BDP d1180       8.534 -11.594  10.603  0.00  0.00    -0.388 OA
ATOM    134  O3  BDP d1180       6.857 -11.817  13.010  0.00  0.00    -0.390 OA
ATOM    135  C5  BDP d1180       9.438  -9.235  13.770  0.00  0.00     0.152 C 
ATOM    136  C2  BDP d1180       8.952 -11.377  11.934  0.00  0.00     0.110 C 
ATOM    137  C3  BDP d1180       7.778 -10.784  12.708  0.00  0.00     0.092 C 
ATOM    138  C6  BDP d1180       9.953  -8.600  15.052  0.00  0.00     0.206 C 
ATOM    139  C1  BDP d1180      10.182 -10.468  11.912  0.00  0.00     0.160 C 
ATOM    140  C4  BDP d1180       8.249 -10.153  14.007  0.00  0.00     0.103 C 
ATOM    141  O6B BDP d1180      10.520  -9.347  15.891  0.00  0.00    -0.646 OA
ATOM    142  O4  BDP d1180       7.187  -9.399  14.527  0.00  0.00    -0.348 OA
ATOM    143  H   BDP d1180       9.267 -11.971  10.091  0.00  0.00     0.210 HD
ATOM    144  H   BDP d1180       6.550 -12.227  12.186  0.00  0.00     0.210 HD
ATOM    145  H   BDP d1180       9.102  -8.454  13.121  0.00  0.00     0.104 H 
ATOM    146  H   BDP d1180       9.238 -12.284  12.426  0.00  0.00     0.094 H 
ATOM    147  H   BDP d1180       7.318 -10.030  12.105  0.00  0.00     0.091 H 
ATOM    148  H   BDP d1180       9.985  -9.630  11.276  0.00  0.00     0.133 H 
ATOM    149  H   BDP d1180       8.551 -10.923  14.687  0.00  0.00     0.092 H 
ATOM    150  C3  BDP d1176      14.922  -9.275  -4.081  0.00  0.00     0.092 C 
ATOM    151  O4  BDP d1176      14.984  -9.986  -1.717  0.00  0.00    -0.348 OA
ATOM    152  O3  BDP d1176      15.247  -7.910  -3.844  0.00  0.00    -0.390 OA
ATOM    153  O5  BDP d1176      12.936 -11.287  -4.516  0.00  0.00    -0.340 OA
ATOM    154  O2  BDP d1176      14.895  -8.955  -6.467  0.00  0.00    -0.388 OA
ATOM    155  C1  BDP d1176      13.583 -10.779  -5.664  0.00  0.00     0.160 C 
ATOM    156  O6B BDP d1176      13.189 -12.949  -1.706  0.00  0.00    -0.646 OA
ATOM    157  C5  BDP d1176      13.720 -11.298  -3.319  0.00  0.00     0.152 C 
ATOM    158  O6A BDP d1176      11.686 -11.348  -2.072  0.00  0.00    -0.646 OA
ATOM    159  C6  BDP d1176      12.799 -11.898  -2.283  0.00  0.00     0.206 C 
ATOM    160  C4  BDP d1176      14.185  -9.905  -2.887  0.00  0.00     0.103 C 
ATOM    161  C2  BDP d1176      14.097  -9.368  -5.370  0.00  0.00     0.110 C 
ATOM    162  H   BDP d1176      15.826  -9.836  -4.197  0.00  0.00     0.091 H 
ATOM    163  H   BDP d1176      14.430  -7.398  -3.738  0.00  0.00     0.210 HD
ATOM    164  H   BDP d1176      15.233  -8.061  -6.302  0.00  0.00     0.210 HD
ATOM    165  H   BDP d1176      14.389 -11.433  -5.924  0.00  0.00     0.133 H 
ATOM    166  H   BDP d1176      14.626 -11.850  -3.459  0.00  0.00     0.104 H 
ATOM    167  H   BDP d1176      13.357  -9.280  -2.625  0.00  0.00     0.092 H 
ATOM    168  H   BDP d1176      13.246  -8.734  -5.232  0.00  0.00     0.094 H 
ENDROOT
TORSDOF 43
ENDMDL
MODEL 4
REMARK VINA RESULT:      -9.3      4.429      6.523
REMARK  0 active torsions:
REMARK  status: ('A' for Active; 'I' for Inactive)
REMARK       I    between atoms: C3_1  and  O3_90 
REMARK       I    between atoms: O1_4  and  C1_76 
REMARK       I    between atoms: C2_5  and  N2_21 
REMARK       I    between atoms: C8_6  and  C7_66 
REMARK       I    between atoms: C4_7  and  O4_24 
REMARK       I    between atoms: N2_9  and  C2_60 
REMARK       I    between atoms: N2_9  and  C7_69 
REMARK       I    between atoms: O4_12  and  C4_26 
REMARK       I    between atoms: O3_13  and  C3_65 
REMARK       I    between atoms: O3_13  and  C1_61 
REMARK       I    between atoms: C3_14  and  O3_35 
REMARK       I    between atoms: C6_15  and  C5_53 
REMARK       I    between atoms: C6_15  and  O6_46 
REMARK       I    between atoms: O6_16  and  C6_54 
REMARK       I    between atoms: C4_17  and  O4_49 
REMARK       I    between atoms: O4_18  and  C4_28 
REMARK       I    between atoms: O4_18  and  C1_47 
REMARK       I    between atoms: C3_19  and  O3_43 
REMARK       I    between atoms: C1_20  and  O4_91 
REMARK       I    between atoms: N2_21  and  C7_66 
REMARK       I    between atoms: O3_22  and  C3_82 
REMARK       I    between atoms: C7_23  and  C8_62 
REMARK       I    between atoms: C7_23  and  N2_51 
REMARK       I    between atoms: C2_25  and  N2_41 
REMARK       I    between atoms: C1_27  and  O3_90 
REMARK       I    between atoms: O6_29  and  C6_74 
REMARK       I    between atoms: O2_30  and  C2_37 
REMARK       I    between atoms: C2_31  and  O2_42 
REMARK       I    between atoms: O3_32  and  C3_45 
REMARK       I    between atoms: O4_33  and  C4_73 
REMARK       I    between atoms: O4_34  and  C4_84 
REMARK       I    between atoms: O4_34  and  C1_85 
REMARK       I    between atoms: C5_36  and  C6_48 
REMARK       I    between atoms: C6_38  and  C5_40 
REMARK       I    between atoms: C6_38  and  O6_89 
REMARK       I    between atoms: N2_41  and  C7_50 
REMARK       I    between atoms: C5_44  and  C6_74 
REMARK       I    between atoms: C7_50  and  C8_75 
REMARK       I    between atoms: N2_51  and  C2_58 
REMARK       I    between atoms: C1_52  and  O3_87 
REMARK       I    between atoms: C6_54  and  C5_86 
REMARK       I    between atoms: O2_59  and  C2_93 
REMARK       I    between atoms: C8_64  and  C7_69 
REMARK       I    between atoms: C6_70  and  C5_80 
REMARK       I    between atoms: C4_72  and  O4_91 
REMARK       I    between atoms: C5_77  and  C6_79 
REMARK       I    between atoms: C3_83  and  O3_87 
ROOT
ATOM      1  C3  NAG d1177      13.439 -10.681   6.695  0.00  0.00     0.093 C 
ATOM      2  O7  NAG d1177      11.368  -8.410   9.059  0.00  0.00    -0.274 OA
ATOM      3  C4  NAG d1177      14.948 -10.796   6.418  0.00  0.00     0.089 C 
ATOM      4  C2  NAG d1177      13.186 -10.498   8.182  0.00  0.00     0.087 C 
ATOM      5  C6  NAG d1177      17.135 -11.862   7.186  0.00  0.00     0.043 C 
ATOM      6  C5  NAG d1177      15.606 -11.810   7.340  0.00  0.00     0.089 C 
ATOM      7  N2  NAG d1177      11.756 -10.623   8.520  0.00  0.00    -0.349 N 
ATOM      8  O4  NAG d1177      15.180 -11.162   5.071  0.00  0.00    -0.390 OA
ATOM      9  C7  NAG d1177      10.976  -9.610   8.905  0.00  0.00     0.214 C 
ATOM     10  O5  NAG d1177      15.310 -11.497   8.696  0.00  0.00    -0.349 OA
ATOM     11  C8  NAG d1177       9.568 -10.058   9.203  0.00  0.00    -0.003 C 
ATOM     12  C1  NAG d1177      13.935 -11.553   8.995  0.00  0.00     0.154 C 
ATOM     13  O6  NAG d1177      17.724 -10.624   7.544  0.00  0.00    -0.398 OA
ATOM     14  O3  NAG d1177      12.929  -9.545   6.052  0.00  0.00    -0.348 OA
ATOM     15  H   NAG d1177      12.969 -11.575   6.341  0.00  0.00     0.091 H 
ATOM     16  H   NAG d1177      15.381  -9.835   6.604  0.00  0.00     0.091 H 
ATOM     17  H   NAG d1177      13.531  -9.513   8.421  0.00  0.00     0.084 H 
ATOM     18  H   NAG d1177      17.376 -12.083   6.167  0.00  0.00     0.078 H 
ATOM     19  H   NAG d1177      17.517 -12.622   7.834  0.00  0.00     0.078 H 
ATOM     20  H   NAG d1177      15.211 -12.765   7.065  0.00  0.00     0.090 H 
ATOM     21  H   NAG d1177      11.348 -11.517   8.457  0.00  0.00     0.163 HD
ATOM     22  H   NAG d1177      14.788 -12.033   4.901  0.00  0.00     0.210 HD
ATOM     23  H   NAG d1177       8.983  -9.214   9.506  0.00  0.00     0.040 H 
ATOM     24  H   NAG d1177       9.583 -10.782   9.990  0.00  0.00     0.040 H 
ATOM     25  H   NAG d1177       9.138 -10.494   8.325  0.00  0.00     0.040 H 
ATOM     26  H   NAG d1177      13.578 -12.529   8.741  0.00  0.00     0.132 H 
ATOM     27  H   NAG d1177      17.386  -9.925   6.962  0.00  0.00     0.209 HD
ATOM     28  O6A BDP d1178      12.887 -11.476   1.673  0.00  0.00    -0.646 OA
ATOM     29  O4  BDP d1178       9.131 -10.154   2.201  0.00  0.00    -0.348 OA
ATOM     30  O3  BDP d1178       9.623  -7.577   3.305  0.00  0.00    -0.390 OA
ATOM     31  C1  BDP d1178      11.817  -9.847   5.198  0.00  0.00     0.160 C 
ATOM     32  C4  BDP d1178      10.369  -9.768   2.749  0.00  0.00     0.103 C 
ATOM     33  C2  BDP d1178      11.246  -8.525   4.731  0.00  0.00     0.110 C 
ATOM     34  O2  BDP d1178      10.880  -7.732   5.830  0.00  0.00    -0.388 OA
ATOM     35  O6B BDP d1178      10.998 -12.651   1.492  0.00  0.00    -0.646 OA
ATOM     36  O5  BDP d1178      12.210 -10.598   4.063  0.00  0.00    -0.340 OA
ATOM     37  C6  BDP d1178      11.714 -11.768   2.041  0.00  0.00     0.206 C 
ATOM     38  C5  BDP d1178      11.137 -10.989   3.230  0.00  0.00     0.152 C 
ATOM     39  C3  BDP d1178      10.027  -8.798   3.897  0.00  0.00     0.092 C 
ATOM     40  H   BDP d1178       8.834  -7.727   2.760  0.00  0.00     0.210 HD
ATOM     41  H   BDP d1178      11.103 -10.431   5.740  0.00  0.00     0.133 H 
ATOM     42  H   BDP d1178      11.006  -9.291   2.032  0.00  0.00     0.092 H 
ATOM     43  H   BDP d1178      11.986  -8.003   4.160  0.00  0.00     0.094 H 
ATOM     44  H   BDP d1178      10.209  -8.197   6.355  0.00  0.00     0.210 HD
ATOM     45  H   BDP d1178      10.455 -11.608   3.773  0.00  0.00     0.104 H 
ATOM     46  H   BDP d1178       9.263  -9.222   4.517  0.00  0.00     0.091 H 
ATOM     47  O1  NAG d1175      14.623 -16.194  19.333  0.00  0.00    -0.369 OA
ATOM     48  O3  NAG d1175      14.448 -14.445  14.992  0.00  0.00    -0.348 OA
ATOM     49  O6  NAG d1175       9.723 -16.484  18.323  0.00  0.00    -0.398 OA
ATOM     50  C7  NAG d1175      16.981 -14.865  16.700  0.00  0.00     0.214 C 
ATOM     51  O4  NAG d1175      11.461 -14.558  15.168  0.00  0.00    -0.390 OA
ATOM     52  N2  NAG d1175      15.868 -14.738  17.433  0.00  0.00    -0.349 N 
ATOM     53  C6  NAG d1175      10.483 -16.486  17.144  0.00  0.00     0.043 C 
ATOM     54  C2  NAG d1175      14.566 -15.355  17.133  0.00  0.00     0.087 C 
ATOM     55  C8  NAG d1175      17.094 -16.015  15.752  0.00  0.00    -0.003 C 
ATOM     56  O7  NAG d1175      17.917 -14.055  16.792  0.00  0.00    -0.274 OA
ATOM     57  C3  NAG d1175      13.702 -14.533  16.190  0.00  0.00     0.093 C 
ATOM     58  C4  NAG d1175      12.368 -15.271  16.010  0.00  0.00     0.089 C 
ATOM     59  C1  NAG d1175      13.790 -15.520  18.433  0.00  0.00     0.151 C 
ATOM     60  C5  NAG d1175      11.713 -15.616  17.353  0.00  0.00     0.089 C 
ATOM     61  O5  NAG d1175      12.612 -16.285  18.218  0.00  0.00    -0.349 OA
ATOM     62  H   NAG d1175      15.428 -15.673  19.481  0.00  0.00     0.212 HD
ATOM     63  H   NAG d1175       8.936 -17.036  18.200  0.00  0.00     0.209 HD
ATOM     64  H   NAG d1175      11.896 -14.350  14.326  0.00  0.00     0.210 HD
ATOM     65  H   NAG d1175      15.925 -14.183  18.244  0.00  0.00     0.163 HD
ATOM     66  H   NAG d1175       9.898 -16.095  16.339  0.00  0.00     0.078 H 
ATOM     67  H   NAG d1175      10.781 -17.486  16.905  0.00  0.00     0.078 H 
ATOM     68  H   NAG d1175      14.778 -16.288  16.654  0.00  0.00     0.084 H 
ATOM     69  H   NAG d1175      16.204 -16.607  15.802  0.00  0.00     0.040 H 
ATOM     70  H   NAG d1175      17.938 -16.616  16.018  0.00  0.00     0.040 H 
ATOM     71  H   NAG d1175      17.220 -15.644  14.756  0.00  0.00     0.040 H 
ATOM     72  H   NAG d1175      13.469 -13.550  16.542  0.00  0.00     0.091 H 
ATOM     73  H   NAG d1175      12.603 -16.192  15.518  0.00  0.00     0.091 H 
ATOM     74  H   NAG d1175      13.500 -14.562  18.811  0.00  0.00     0.132 H 
ATOM     75  H   NAG d1175      11.427 -14.691  17.807  0.00  0.00     0.090 H 
ATOM     76  C2  NAG d1181       4.910 -16.746  -7.047  0.00  0.00     0.087 C 
ATOM     77  C8  NAG d1181       7.338 -18.299  -7.629  0.00  0.00    -0.003 C 
ATOM     78  O5  NAG d1181       3.234 -16.115  -5.374  0.00  0.00    -0.349 OA
ATOM     79  O4  NAG d1181       1.650 -18.233  -7.931  0.00  0.00    -0.390 OA
ATOM     80  C3  NAG d1181       3.792 -17.143  -7.998  0.00  0.00     0.086 C 
ATOM     81  C1  NAG d1181       4.434 -15.716  -6.021  0.00  0.00     0.154 C 
ATOM     82  N2  NAG d1181       6.053 -16.226  -7.777  0.00  0.00    -0.349 N 
ATOM     83  C4  NAG d1181       2.667 -17.682  -7.123  0.00  0.00     0.089 C 
ATOM     84  O6  NAG d1181       1.168 -17.290  -4.175  0.00  0.00    -0.398 OA
ATOM     85  O3  NAG d1181       4.229 -18.090  -8.959  0.00  0.00    -0.391 OA
ATOM     86  C5  NAG d1181       2.182 -16.510  -6.251  0.00  0.00     0.089 C 
ATOM     87  O7  NAG d1181       8.306 -16.152  -7.816  0.00  0.00    -0.274 OA
ATOM     88  C7  NAG d1181       7.265 -16.802  -7.745  0.00  0.00     0.214 C 
ATOM     89  C6  NAG d1181       0.891 -16.789  -5.467  0.00  0.00     0.043 C 
ATOM     90  H   NAG d1181       5.207 -17.630  -6.523  0.00  0.00     0.084 H 
ATOM     91  H   NAG d1181       6.348 -18.702  -7.578  0.00  0.00     0.040 H 
ATOM     92  H   NAG d1181       7.877 -18.563  -6.743  0.00  0.00     0.040 H 
ATOM     93  H   NAG d1181       7.841 -18.698  -8.484  0.00  0.00     0.040 H 
ATOM     94  H   NAG d1181       2.014 -18.963  -8.455  0.00  0.00     0.210 HD
ATOM     95  H   NAG d1181       3.456 -16.306  -8.572  0.00  0.00     0.090 H 
ATOM     96  H   NAG d1181       4.192 -14.778  -6.476  0.00  0.00     0.132 H 
ATOM     97  H   NAG d1181       5.934 -15.412  -8.319  0.00  0.00     0.163 HD
ATOM     98  H   NAG d1181       2.992 -18.478  -6.486  0.00  0.00     0.091 H 
ATOM     99  H   NAG d1181       0.335 -17.455  -3.707  0.00  0.00     0.209 HD
ATOM    100  H   NAG d1181       4.551 -18.885  -8.507  0.00  0.00     0.210 HD
ATOM    101  H   NAG d1181       1.928 -15.714  -6.919  0.00  0.00     0.090 H 
ATOM    102  H   NAG d1181       0.336 -15.880  -5.377  0.00  0.00     0.078 H 
ATOM    103  H   NAG d1181       0.329 -17.528  -6.000  0.00  0.00     0.078 H 
ATOM    104  C4  NAG d1179       7.214  -9.742  -1.474  0.00  0.00     0.089 C 
ATOM    105  N2  NAG d1179       8.254 -12.439   1.018  0.00  0.00    -0.349 N 
ATOM    106  C6  NAG d1179       8.123  -7.380  -1.416  0.00  0.00     0.043 C 
ATOM    107  O4  NAG d1179       7.091  -9.753  -2.893  0.00  0.00    -0.390 OA
ATOM    108  O6  NAG d1179       7.080  -6.860  -0.617  0.00  0.00    -0.398 OA
ATOM    109  C1  NAG d1179       8.984 -10.140   0.778  0.00  0.00     0.154 C 
ATOM    110  C5  NAG d1179       8.372  -8.836  -1.063  0.00  0.00     0.089 C 
ATOM    111  O5  NAG d1179       8.553  -8.887   0.341  0.00  0.00    -0.349 OA
ATOM    112  C2  NAG d1179       7.862 -11.137   0.509  0.00  0.00     0.087 C 
ATOM    113  C8  NAG d1179       8.025 -14.424   2.328  0.00  0.00    -0.003 C 
ATOM    114  C7  NAG d1179       7.427 -13.187   1.747  0.00  0.00     0.214 C 
ATOM    115  C3  NAG d1179       7.470 -11.159  -0.977  0.00  0.00     0.093 C 
ATOM    116  O3  NAG d1179       6.286 -11.922  -1.155  0.00  0.00    -0.348 OA
ATOM    117  O7  NAG d1179       6.246 -12.914   1.935  0.00  0.00    -0.274 OA
ATOM    118  H   NAG d1179       6.308  -9.370  -1.041  0.00  0.00     0.091 H 
ATOM    119  H   NAG d1179       9.156 -12.779   0.819  0.00  0.00     0.163 HD
ATOM    120  H   NAG d1179       7.850  -7.307  -2.448  0.00  0.00     0.078 H 
ATOM    121  H   NAG d1179       9.016  -6.818  -1.238  0.00  0.00     0.078 H 
ATOM    122  H   NAG d1179       7.910 -10.090  -3.287  0.00  0.00     0.210 HD
ATOM    123  H   NAG d1179       6.268  -7.366  -0.776  0.00  0.00     0.209 HD
ATOM    124  H   NAG d1179       9.905 -10.369   0.284  0.00  0.00     0.132 H 
ATOM    125  H   NAG d1179       9.231  -9.193  -1.592  0.00  0.00     0.090 H 
ATOM    126  H   NAG d1179       6.977 -10.833   1.028  0.00  0.00     0.084 H 
ATOM    127  H   NAG d1179       9.058 -14.484   2.053  0.00  0.00     0.040 H 
ATOM    128  H   NAG d1179       7.506 -15.281   1.953  0.00  0.00     0.040 H 
ATOM    129  H   NAG d1179       7.941 -14.394   3.394  0.00  0.00     0.040 H 
ATOM    130  H   NAG d1179       8.273 -11.597  -1.532  0.00  0.00     0.091 H 
ATOM    131  O5  BDP d1180       6.492 -12.602  -3.348  0.00  0.00    -0.340 OA
ATOM    132  O6A BDP d1180       7.776 -13.421  -6.331  0.00  0.00    -0.646 OA
ATOM    133  O2  BDP d1180       5.562 -14.651  -0.503  0.00  0.00    -0.388 OA
ATOM    134  O3  BDP d1180       3.934 -15.718  -2.709  0.00  0.00    -0.390 OA
ATOM    135  C5  BDP d1180       6.607 -13.650  -4.286  0.00  0.00     0.152 C 
ATOM    136  C2  BDP d1180       5.336 -14.028  -1.749  0.00  0.00     0.110 C 
ATOM    137  C3  BDP d1180       5.215 -15.120  -2.808  0.00  0.00     0.092 C 
ATOM    138  C6  BDP d1180       6.793 -13.033  -5.663  0.00  0.00     0.206 C 
ATOM    139  C1  BDP d1180       6.483 -13.052  -2.016  0.00  0.00     0.160 C 
ATOM    140  C4  BDP d1180       5.378 -14.541  -4.204  0.00  0.00     0.103 C 
ATOM    141  O6B BDP d1180       5.965 -12.161  -6.033  0.00  0.00    -0.646 OA
ATOM    142  O4  BDP d1180       5.530 -15.611  -5.097  0.00  0.00    -0.348 OA
ATOM    143  H   BDP d1180       5.643 -13.975   0.188  0.00  0.00     0.210 HD
ATOM    144  H   BDP d1180       3.820 -16.090  -1.821  0.00  0.00     0.210 HD
ATOM    145  H   BDP d1180       7.454 -14.270  -4.079  0.00  0.00     0.104 H 
ATOM    146  H   BDP d1180       4.428 -13.461  -1.764  0.00  0.00     0.094 H 
ATOM    147  H   BDP d1180       5.985 -15.844  -2.643  0.00  0.00     0.091 H 
ATOM    148  H   BDP d1180       7.413 -13.549  -1.833  0.00  0.00     0.133 H 
ATOM    149  H   BDP d1180       4.519 -13.950  -4.445  0.00  0.00     0.092 H 
ATOM    150  C3  BDP d1176      15.248 -12.026  12.189  0.00  0.00     0.092 C 
ATOM    151  O4  BDP d1176      13.700 -11.334  10.394  0.00  0.00    -0.348 OA
ATOM    152  O3  BDP d1176      16.436 -11.959  11.408  0.00  0.00    -0.390 OA
ATOM    153  O5  BDP d1176      13.110 -13.581  13.280  0.00  0.00    -0.340 OA
ATOM    154  O2  BDP d1176      16.474 -12.605  14.179  0.00  0.00    -0.388 OA
ATOM    155  C1  BDP d1176      14.194 -13.305  14.142  0.00  0.00     0.160 C 
ATOM    156  O6B BDP d1176      10.607 -12.413  11.520  0.00  0.00    -0.646 OA
ATOM    157  C5  BDP d1176      12.842 -12.586  12.286  0.00  0.00     0.152 C 
ATOM    158  O6A BDP d1176      11.729 -14.266  11.007  0.00  0.00    -0.646 OA
ATOM    159  C6  BDP d1176      11.645 -13.127  11.539  0.00  0.00     0.206 C 
ATOM    160  C4  BDP d1176      14.015 -12.353  11.331  0.00  0.00     0.103 C 
ATOM    161  C2  BDP d1176      15.452 -13.056  13.307  0.00  0.00     0.110 C 
ATOM    162  H   BDP d1176      15.059 -11.065  12.622  0.00  0.00     0.091 H 
ATOM    163  H   BDP d1176      16.612 -12.828  11.013  0.00  0.00     0.210 HD
ATOM    164  H   BDP d1176      17.283 -12.439  13.670  0.00  0.00     0.210 HD
ATOM    165  H   BDP d1176      13.953 -12.447  14.735  0.00  0.00     0.133 H 
ATOM    166  H   BDP d1176      12.670 -11.631  12.737  0.00  0.00     0.104 H 
ATOM    167  H   BDP d1176      14.223 -13.225  10.746  0.00  0.00     0.092 H 
ATOM    168  H   BDP d1176      15.711 -13.976  12.827  0.00  0.00     0.094 H 
ENDROOT
TORSDOF 43
ENDMDL
MODEL 5
REMARK VINA RESULT:      -9.2      5.487     17.936
REMARK  0 active torsions:
REMARK  status: ('A' for Active; 'I' for Inactive)
REMARK       I    between atoms: C3_1  and  O3_90 
REMARK       I    between atoms: O1_4  and  C1_76 
REMARK       I    between atoms: C2_5  and  N2_21 
REMARK       I    between atoms: C8_6  and  C7_66 
REMARK       I    between atoms: C4_7  and  O4_24 
REMARK       I    between atoms: N2_9  and  C2_60 
REMARK       I    between atoms: N2_9  and  C7_69 
REMARK       I    between atoms: O4_12  and  C4_26 
REMARK       I    between atoms: O3_13  and  C3_65 
REMARK       I    between atoms: O3_13  and  C1_61 
REMARK       I    between atoms: C3_14  and  O3_35 
REMARK       I    between atoms: C6_15  and  C5_53 
REMARK       I    between atoms: C6_15  and  O6_46 
REMARK       I    between atoms: O6_16  and  C6_54 
REMARK       I    between atoms: C4_17  and  O4_49 
REMARK       I    between atoms: O4_18  and  C4_28 
REMARK       I    between atoms: O4_18  and  C1_47 
REMARK       I    between atoms: C3_19  and  O3_43 
REMARK       I    between atoms: C1_20  and  O4_91 
REMARK       I    between atoms: N2_21  and  C7_66 
REMARK       I    between atoms: O3_22  and  C3_82 
REMARK       I    between atoms: C7_23  and  C8_62 
REMARK       I    between atoms: C7_23  and  N2_51 
REMARK       I    between atoms: C2_25  and  N2_41 
REMARK       I    between atoms: C1_27  and  O3_90 
REMARK       I    between atoms: O6_29  and  C6_74 
REMARK       I    between atoms: O2_30  and  C2_37 
REMARK       I    between atoms: C2_31  and  O2_42 
REMARK       I    between atoms: O3_32  and  C3_45 
REMARK       I    between atoms: O4_33  and  C4_73 
REMARK       I    between atoms: O4_34  and  C4_84 
REMARK       I    between atoms: O4_34  and  C1_85 
REMARK       I    between atoms: C5_36  and  C6_48 
REMARK       I    between atoms: C6_38  and  C5_40 
REMARK       I    between atoms: C6_38  and  O6_89 
REMARK       I    between atoms: N2_41  and  C7_50 
REMARK       I    between atoms: C5_44  and  C6_74 
REMARK       I    between atoms: C7_50  and  C8_75 
REMARK       I    between atoms: N2_51  and  C2_58 
REMARK       I    between atoms: C1_52  and  O3_87 
REMARK       I    between atoms: C6_54  and  C5_86 
REMARK       I    between atoms: O2_59  and  C2_93 
REMARK       I    between atoms: C8_64  and  C7_69 
REMARK       I    between atoms: C6_70  and  C5_80 
REMARK       I    between atoms: C4_72  and  O4_91 
REMARK       I    between atoms: C5_77  and  C6_79 
REMARK       I    between atoms: C3_83  and  O3_87 
ROOT
ATOM      1  C3  NAG d1177      10.290 -10.511   1.326  0.00  0.00     0.093 C 
ATOM      2  O7  NAG d1177      12.934 -12.915  -0.181  0.00  0.00    -0.274 OA
ATOM      3  C4  NAG d1177       9.485  -9.342   0.732  0.00  0.00     0.089 C 
ATOM      4  C2  NAG d1177      10.366 -11.661   0.335  0.00  0.00     0.087 C 
ATOM      5  C6  NAG d1177       7.384  -8.703  -0.567  0.00  0.00     0.043 C 
ATOM      6  C5  NAG d1177       8.162  -9.817   0.153  0.00  0.00     0.089 C 
ATOM      7  N2  NAG d1177      10.916 -12.884   0.946  0.00  0.00    -0.349 N 
ATOM      8  O4  NAG d1177       9.243  -8.354   1.714  0.00  0.00    -0.390 OA
ATOM      9  C7  NAG d1177      12.118 -13.396   0.669  0.00  0.00     0.214 C 
ATOM     10  O5  NAG d1177       8.389 -10.869  -0.778  0.00  0.00    -0.349 OA
ATOM     11  C8  NAG d1177      12.387 -14.665   1.436  0.00  0.00    -0.003 C 
ATOM     12  C1  NAG d1177       8.977 -12.010  -0.200  0.00  0.00     0.154 C 
ATOM     13  O6  NAG d1177       8.107  -8.221  -1.687  0.00  0.00    -0.398 OA
ATOM     14  O3  NAG d1177      11.606 -10.098   1.572  0.00  0.00    -0.348 OA
ATOM     15  H   NAG d1177       9.804 -10.823   2.227  0.00  0.00     0.091 H 
ATOM     16  H   NAG d1177      10.071  -8.921  -0.059  0.00  0.00     0.091 H 
ATOM     17  H   NAG d1177      11.008 -11.328  -0.454  0.00  0.00     0.084 H 
ATOM     18  H   NAG d1177       7.217  -7.896   0.115  0.00  0.00     0.078 H 
ATOM     19  H   NAG d1177       6.454  -9.103  -0.909  0.00  0.00     0.078 H 
ATOM     20  H   NAG d1177       7.575 -10.150   0.982  0.00  0.00     0.090 H 
ATOM     21  H   NAG d1177      10.358 -13.356   1.606  0.00  0.00     0.163 HD
ATOM     22  H   NAG d1177       8.712  -8.734   2.432  0.00  0.00     0.210 HD
ATOM     23  H   NAG d1177      13.357 -15.036   1.182  0.00  0.00     0.040 H 
ATOM     24  H   NAG d1177      11.647 -15.397   1.186  0.00  0.00     0.040 H 
ATOM     25  H   NAG d1177      12.346 -14.462   2.486  0.00  0.00     0.040 H 
ATOM     26  H   NAG d1177       8.351 -12.337   0.603  0.00  0.00     0.132 H 
ATOM     27  H   NAG d1177       8.955  -7.854  -1.391  0.00  0.00     0.209 HD
ATOM     28  O6A BDP d1178      10.576  -7.617   5.534  0.00  0.00    -0.646 OA
ATOM     29  O4  BDP d1178      13.492 -10.133   6.678  0.00  0.00    -0.348 OA
ATOM     30  O3  BDP d1178      15.308  -9.869   4.503  0.00  0.00    -0.390 OA
ATOM     31  C1  BDP d1178      12.014 -10.331   2.927  0.00  0.00     0.160 C 
ATOM     32  C4  BDP d1178      13.136  -9.580   5.432  0.00  0.00     0.103 C 
ATOM     33  C2  BDP d1178      13.496 -10.029   3.001  0.00  0.00     0.110 C 
ATOM     34  O2  BDP d1178      14.205 -10.820   2.082  0.00  0.00    -0.388 OA
ATOM     35  O6B BDP d1178      10.525  -9.074   7.224  0.00  0.00    -0.646 OA
ATOM     36  O5  BDP d1178      11.333  -9.487   3.837  0.00  0.00    -0.340 OA
ATOM     37  C6  BDP d1178      10.853  -8.735   6.053  0.00  0.00     0.206 C 
ATOM     38  C5  BDP d1178      11.642  -9.732   5.194  0.00  0.00     0.152 C 
ATOM     39  C3  BDP d1178      13.978 -10.341   4.390  0.00  0.00     0.092 C 
ATOM     40  H   BDP d1178      15.644 -10.059   5.393  0.00  0.00     0.210 HD
ATOM     41  H   BDP d1178      11.789 -11.342   3.194  0.00  0.00     0.133 H 
ATOM     42  H   BDP d1178      13.331  -8.529   5.378  0.00  0.00     0.092 H 
ATOM     43  H   BDP d1178      13.658  -8.998   2.766  0.00  0.00     0.094 H 
ATOM     44  H   BDP d1178      14.064 -11.758   2.287  0.00  0.00     0.210 HD
ATOM     45  H   BDP d1178      11.372 -10.733   5.459  0.00  0.00     0.104 H 
ATOM     46  H   BDP d1178      13.905 -11.395   4.560  0.00  0.00     0.091 H 
ATOM     47  O1  NAG d1175       3.218 -19.972  -5.884  0.00  0.00    -0.369 OA
ATOM     48  O3  NAG d1175       5.408 -16.607  -3.474  0.00  0.00    -0.348 OA
ATOM     49  O6  NAG d1175       5.526 -22.625  -2.313  0.00  0.00    -0.398 OA
ATOM     50  C7  NAG d1175       3.561 -16.212  -5.911  0.00  0.00     0.214 C 
ATOM     51  O4  NAG d1175       6.761 -18.755  -1.886  0.00  0.00    -0.390 OA
ATOM     52  N2  NAG d1175       4.117 -17.429  -5.865  0.00  0.00    -0.349 N 
ATOM     53  C6  NAG d1175       5.313 -21.302  -1.901  0.00  0.00     0.043 C 
ATOM     54  C2  NAG d1175       4.272 -18.259  -4.660  0.00  0.00     0.087 C 
ATOM     55  C8  NAG d1175       2.650 -15.792  -4.803  0.00  0.00    -0.003 C 
ATOM     56  O7  NAG d1175       3.782 -15.430  -6.849  0.00  0.00    -0.274 OA
ATOM     57  C3  NAG d1175       5.535 -17.959  -3.867  0.00  0.00     0.093 C 
ATOM     58  C4  NAG d1175       5.584 -18.927  -2.676  0.00  0.00     0.089 C 
ATOM     59  C1  NAG d1175       4.333 -19.722  -5.075  0.00  0.00     0.151 C 
ATOM     60  C5  NAG d1175       5.424 -20.388  -3.112  0.00  0.00     0.089 C 
ATOM     61  O5  NAG d1175       4.286 -20.568  -3.935  0.00  0.00    -0.349 OA
ATOM     62  H   NAG d1175       3.248 -19.395  -6.663  0.00  0.00     0.212 HD
ATOM     63  H   NAG d1175       5.457 -23.217  -1.548  0.00  0.00     0.209 HD
ATOM     64  H   NAG d1175       6.841 -17.825  -1.622  0.00  0.00     0.210 HD
ATOM     65  H   NAG d1175       4.453 -17.802  -6.712  0.00  0.00     0.163 HD
ATOM     66  H   NAG d1175       6.049 -21.028  -1.175  0.00  0.00     0.078 H 
ATOM     67  H   NAG d1175       4.340 -21.209  -1.464  0.00  0.00     0.078 H 
ATOM     68  H   NAG d1175       3.433 -18.039  -4.033  0.00  0.00     0.084 H 
ATOM     69  H   NAG d1175       2.573 -16.583  -4.086  0.00  0.00     0.040 H 
ATOM     70  H   NAG d1175       1.680 -15.576  -5.201  0.00  0.00     0.040 H 
ATOM     71  H   NAG d1175       3.044 -14.917  -4.330  0.00  0.00     0.040 H 
ATOM     72  H   NAG d1175       6.445 -18.091  -4.414  0.00  0.00     0.091 H 
ATOM     73  H   NAG d1175       4.745 -18.679  -2.059  0.00  0.00     0.091 H 
ATOM     74  H   NAG d1175       5.245 -19.918  -5.598  0.00  0.00     0.132 H 
ATOM     75  H   NAG d1175       6.297 -20.642  -3.676  0.00  0.00     0.090 H 
ATOM     76  C2  NAG d1181      11.196  -8.340  18.439  0.00  0.00     0.087 C 
ATOM     77  C8  NAG d1181       8.746  -6.736  18.173  0.00  0.00    -0.003 C 
ATOM     78  O5  NAG d1181      12.333 -10.446  17.914  0.00  0.00    -0.349 OA
ATOM     79  O4  NAG d1181      11.650 -10.309  21.526  0.00  0.00    -0.390 OA
ATOM     80  C3  NAG d1181      11.538  -8.536  19.907  0.00  0.00     0.086 C 
ATOM     81  C1  NAG d1181      12.173  -9.088  17.530  0.00  0.00     0.154 C 
ATOM     82  N2  NAG d1181      11.180  -6.929  18.092  0.00  0.00    -0.349 N 
ATOM     83  C4  NAG d1181      11.509 -10.040  20.148  0.00  0.00     0.089 C 
ATOM     84  O6  NAG d1181      12.176 -12.976  18.726  0.00  0.00    -0.398 OA
ATOM     85  O3  NAG d1181      10.643  -7.835  20.755  0.00  0.00    -0.391 OA
ATOM     86  C5  NAG d1181      12.634 -10.649  19.292  0.00  0.00     0.089 C 
ATOM     87  O7  NAG d1181      10.138  -5.377  16.833  0.00  0.00    -0.274 OA
ATOM     88  C7  NAG d1181      10.083  -6.298  17.645  0.00  0.00     0.214 C 
ATOM     89  C6  NAG d1181      12.922 -12.130  19.578  0.00  0.00     0.043 C 
ATOM     90  H   NAG d1181      10.218  -8.745  18.286  0.00  0.00     0.084 H 
ATOM     91  H   NAG d1181       8.881  -7.543  18.863  0.00  0.00     0.040 H 
ATOM     92  H   NAG d1181       8.130  -7.062  17.360  0.00  0.00     0.040 H 
ATOM     93  H   NAG d1181       8.273  -5.916  18.671  0.00  0.00     0.040 H 
ATOM     94  H   NAG d1181      10.916  -9.902  22.012  0.00  0.00     0.210 HD
ATOM     95  H   NAG d1181      12.503  -8.135  20.137  0.00  0.00     0.090 H 
ATOM     96  H   NAG d1181      13.161  -8.680  17.580  0.00  0.00     0.132 H 
ATOM     97  H   NAG d1181      12.013  -6.412  18.189  0.00  0.00     0.163 HD
ATOM     98  H   NAG d1181      10.577 -10.480  19.862  0.00  0.00     0.091 H 
ATOM     99  H   NAG d1181      12.380 -13.902  18.931  0.00  0.00     0.209 HD
ATOM    100  H   NAG d1181       9.739  -8.150  20.601  0.00  0.00     0.210 HD
ATOM    101  H   NAG d1181      13.535 -10.140  19.560  0.00  0.00     0.090 H 
ATOM    102  H   NAG d1181      13.964 -12.317  19.428  0.00  0.00     0.078 H 
ATOM    103  H   NAG d1181      12.639 -12.338  20.589  0.00  0.00     0.078 H 
ATOM    104  C4  NAG d1179      15.300  -8.756  10.168  0.00  0.00     0.089 C 
ATOM    105  N2  NAG d1179      12.126 -10.521   8.996  0.00  0.00    -0.349 N 
ATOM    106  C6  NAG d1179      16.873  -7.547   8.594  0.00  0.00     0.043 C 
ATOM    107  O4  NAG d1179      15.549  -7.859  11.246  0.00  0.00    -0.390 OA
ATOM    108  O6  NAG d1179      17.723  -8.656   8.384  0.00  0.00    -0.398 OA
ATOM    109  C1  NAG d1179      13.773  -9.242   7.761  0.00  0.00     0.154 C 
ATOM    110  C5  NAG d1179      15.450  -8.021   8.838  0.00  0.00     0.089 C 
ATOM    111  O5  NAG d1179      15.123  -8.886   7.766  0.00  0.00    -0.349 OA
ATOM    112  C2  NAG d1179      13.508 -10.076   9.009  0.00  0.00     0.087 C 
ATOM    113  C8  NAG d1179      10.353 -12.121   9.059  0.00  0.00    -0.003 C 
ATOM    114  C7  NAG d1179      11.790 -11.782   9.266  0.00  0.00     0.214 C 
ATOM    115  C3  NAG d1179      13.888  -9.315  10.289  0.00  0.00     0.093 C 
ATOM    116  O3  NAG d1179      13.842 -10.191  11.406  0.00  0.00    -0.348 OA
ATOM    117  O7  NAG d1179      12.581 -12.627   9.672  0.00  0.00    -0.274 OA
ATOM    118  H   NAG d1179      16.006  -9.560  10.205  0.00  0.00     0.091 H 
ATOM    119  H   NAG d1179      11.416  -9.873   8.782  0.00  0.00     0.163 HD
ATOM    120  H   NAG d1179      17.213  -6.996   9.445  0.00  0.00     0.078 H 
ATOM    121  H   NAG d1179      16.890  -6.921   7.727  0.00  0.00     0.078 H 
ATOM    122  H   NAG d1179      14.910  -7.130  11.214  0.00  0.00     0.210 HD
ATOM    123  H   NAG d1179      17.710  -9.226   9.169  0.00  0.00     0.209 HD
ATOM    124  H   NAG d1179      13.191  -8.347   7.697  0.00  0.00     0.132 H 
ATOM    125  H   NAG d1179      14.793  -7.178   8.889  0.00  0.00     0.090 H 
ATOM    126  H   NAG d1179      14.133 -10.944   9.003  0.00  0.00     0.084 H 
ATOM    127  H   NAG d1179       9.829 -11.257   8.704  0.00  0.00     0.040 H 
ATOM    128  H   NAG d1179       9.925 -12.441   9.986  0.00  0.00     0.040 H 
ATOM    129  H   NAG d1179      10.272 -12.907   8.338  0.00  0.00     0.040 H 
ATOM    130  H   NAG d1179      13.193  -8.513  10.425  0.00  0.00     0.091 H 
ATOM    131  O5  BDP d1180      13.461  -8.718  13.139  0.00  0.00    -0.340 OA
ATOM    132  O6A BDP d1180      12.538  -6.017  14.891  0.00  0.00    -0.646 OA
ATOM    133  O2  BDP d1180      11.765 -11.868  12.533  0.00  0.00    -0.388 OA
ATOM    134  O3  BDP d1180      11.959 -11.717  15.465  0.00  0.00    -0.390 OA
ATOM    135  C5  BDP d1180      12.634  -8.277  14.194  0.00  0.00     0.152 C 
ATOM    136  C2  BDP d1180      12.584 -10.986  13.270  0.00  0.00     0.110 C 
ATOM    137  C3  BDP d1180      11.854 -10.630  14.562  0.00  0.00     0.092 C 
ATOM    138  C6  BDP d1180      13.263  -7.030  14.797  0.00  0.00     0.206 C 
ATOM    139  C1  BDP d1180      12.894  -9.770  12.397  0.00  0.00     0.160 C 
ATOM    140  C4  BDP d1180      12.464  -9.397  15.208  0.00  0.00     0.103 C 
ATOM    141  O6B BDP d1180      14.472  -7.091  15.142  0.00  0.00    -0.646 OA
ATOM    142  O4  BDP d1180      11.594  -8.968  16.220  0.00  0.00    -0.348 OA
ATOM    143  H   BDP d1180      12.210 -12.108  11.706  0.00  0.00     0.210 HD
ATOM    144  H   BDP d1180      11.572 -12.510  15.062  0.00  0.00     0.210 HD
ATOM    145  H   BDP d1180      11.655  -8.022  13.845  0.00  0.00     0.104 H 
ATOM    146  H   BDP d1180      13.521 -11.428  13.540  0.00  0.00     0.094 H 
ATOM    147  H   BDP d1180      10.829 -10.427  14.330  0.00  0.00     0.091 H 
ATOM    148  H   BDP d1180      11.984  -9.410  11.965  0.00  0.00     0.133 H 
ATOM    149  H   BDP d1180      13.429  -9.643  15.600  0.00  0.00     0.092 H 
ATOM    150  C3  BDP d1176       7.480 -13.473  -2.986  0.00  0.00     0.092 C 
ATOM    151  O4  BDP d1176       9.087 -13.076  -1.154  0.00  0.00    -0.348 OA
ATOM    152  O3  BDP d1176       7.060 -12.121  -3.124  0.00  0.00    -0.390 OA
ATOM    153  O5  BDP d1176       7.048 -16.080  -1.892  0.00  0.00    -0.340 OA
ATOM    154  O2  BDP d1176       6.102 -14.190  -4.826  0.00  0.00    -0.388 OA
ATOM    155  C1  BDP d1176       6.631 -15.878  -3.226  0.00  0.00     0.160 C 
ATOM    156  O6B BDP d1176       9.530 -16.216   0.240  0.00  0.00    -0.646 OA
ATOM    157  C5  BDP d1176       8.173 -15.301  -1.471  0.00  0.00     0.152 C 
ATOM    158  O6A BDP d1176       7.456 -15.615   0.784  0.00  0.00    -0.646 OA
ATOM    159  C6  BDP d1176       8.402 -15.730  -0.041  0.00  0.00     0.206 C 
ATOM    160  C4  BDP d1176       7.927 -13.792  -1.550  0.00  0.00     0.103 C 
ATOM    161  C2  BDP d1176       6.340 -14.392  -3.443  0.00  0.00     0.110 C 
ATOM    162  H   BDP d1176       8.338 -13.638  -3.605  0.00  0.00     0.091 H 
ATOM    163  H   BDP d1176       6.282 -11.966  -2.565  0.00  0.00     0.210 HD
ATOM    164  H   BDP d1176       5.916 -13.252  -4.989  0.00  0.00     0.210 HD
ATOM    165  H   BDP d1176       7.404 -16.216  -3.884  0.00  0.00     0.133 H 
ATOM    166  H   BDP d1176       9.015 -15.468  -2.109  0.00  0.00     0.104 H 
ATOM    167  H   BDP d1176       7.156 -13.485  -0.873  0.00  0.00     0.092 H 
ATOM    168  H   BDP d1176       5.488 -14.136  -2.849  0.00  0.00     0.094 H 
ENDROOT
TORSDOF 43
ENDMDL
MODEL 6
REMARK VINA RESULT:      -9.2      5.844     17.869
REMARK  0 active torsions:
REMARK  status: ('A' for Active; 'I' for Inactive)
REMARK       I    between atoms: C3_1  and  O3_90 
REMARK       I    between atoms: O1_4  and  C1_76 
REMARK       I    between atoms: C2_5  and  N2_21 
REMARK       I    between atoms: C8_6  and  C7_66 
REMARK       I    between atoms: C4_7  and  O4_24 
REMARK       I    between atoms: N2_9  and  C2_60 
REMARK       I    between atoms: N2_9  and  C7_69 
REMARK       I    between atoms: O4_12  and  C4_26 
REMARK       I    between atoms: O3_13  and  C3_65 
REMARK       I    between atoms: O3_13  and  C1_61 
REMARK       I    between atoms: C3_14  and  O3_35 
REMARK       I    between atoms: C6_15  and  C5_53 
REMARK       I    between atoms: C6_15  and  O6_46 
REMARK       I    between atoms: O6_16  and  C6_54 
REMARK       I    between atoms: C4_17  and  O4_49 
REMARK       I    between atoms: O4_18  and  C4_28 
REMARK       I    between atoms: O4_18  and  C1_47 
REMARK       I    between atoms: C3_19  and  O3_43 
REMARK       I    between atoms: C1_20  and  O4_91 
REMARK       I    between atoms: N2_21  and  C7_66 
REMARK       I    between atoms: O3_22  and  C3_82 
REMARK       I    between atoms: C7_23  and  C8_62 
REMARK       I    between atoms: C7_23  and  N2_51 
REMARK       I    between atoms: C2_25  and  N2_41 
REMARK       I    between atoms: C1_27  and  O3_90 
REMARK       I    between atoms: O6_29  and  C6_74 
REMARK       I    between atoms: O2_30  and  C2_37 
REMARK       I    between atoms: C2_31  and  O2_42 
REMARK       I    between atoms: O3_32  and  C3_45 
REMARK       I    between atoms: O4_33  and  C4_73 
REMARK       I    between atoms: O4_34  and  C4_84 
REMARK       I    between atoms: O4_34  and  C1_85 
REMARK       I    between atoms: C5_36  and  C6_48 
REMARK       I    between atoms: C6_38  and  C5_40 
REMARK       I    between atoms: C6_38  and  O6_89 
REMARK       I    between atoms: N2_41  and  C7_50 
REMARK       I    between atoms: C5_44  and  C6_74 
REMARK       I    between atoms: C7_50  and  C8_75 
REMARK       I    between atoms: N2_51  and  C2_58 
REMARK       I    between atoms: C1_52  and  O3_87 
REMARK       I    between atoms: C6_54  and  C5_86 
REMARK       I    between atoms: O2_59  and  C2_93 
REMARK       I    between atoms: C8_64  and  C7_69 
REMARK       I    between atoms: C6_70  and  C5_80 
REMARK       I    between atoms: C4_72  and  O4_91 
REMARK       I    between atoms: C5_77  and  C6_79 
REMARK       I    between atoms: C3_83  and  O3_87 
ROOT
ATOM      1  C3  NAG d1177       9.928 -10.073   1.025  0.00  0.00     0.093 C 
ATOM      2  O7  NAG d1177      12.539 -12.152  -0.949  0.00  0.00    -0.274 OA
ATOM      3  C4  NAG d1177       8.995  -8.918   0.621  0.00  0.00     0.089 C 
ATOM      4  C2  NAG d1177       9.968 -11.128  -0.068  0.00  0.00     0.087 C 
ATOM      5  C6  NAG d1177       6.733  -8.321  -0.398  0.00  0.00     0.043 C 
ATOM      6  C5  NAG d1177       7.649  -9.434   0.138  0.00  0.00     0.089 C 
ATOM      7  N2  NAG d1177      10.654 -12.356   0.373  0.00  0.00    -0.349 N 
ATOM      8  O4  NAG d1177       8.798  -8.034   1.708  0.00  0.00    -0.390 OA
ATOM      9  C7  NAG d1177      11.848 -12.759  -0.069  0.00  0.00     0.214 C 
ATOM     10  O5  NAG d1177       7.840 -10.387  -0.901  0.00  0.00    -0.349 OA
ATOM     11  C8  NAG d1177      12.274 -14.065   0.551  0.00  0.00    -0.003 C 
ATOM     12  C1  NAG d1177       8.555 -11.528  -0.490  0.00  0.00     0.154 C 
ATOM     13  O6  NAG d1177       7.302  -7.698  -1.536  0.00  0.00    -0.398 OA
ATOM     14  O3  NAG d1177      11.235  -9.590   1.173  0.00  0.00    -0.348 OA
ATOM     15  H   NAG d1177       9.560 -10.491   1.938  0.00  0.00     0.091 H 
ATOM     16  H   NAG d1177       9.467  -8.392  -0.183  0.00  0.00     0.091 H 
ATOM     17  H   NAG d1177      10.502 -10.687  -0.885  0.00  0.00     0.084 H 
ATOM     18  H   NAG d1177       6.590  -7.588   0.368  0.00  0.00     0.078 H 
ATOM     19  H   NAG d1177       5.797  -8.756  -0.679  0.00  0.00     0.078 H 
ATOM     20  H   NAG d1177       7.175  -9.875   0.989  0.00  0.00     0.090 H 
ATOM     21  H   NAG d1177      10.199 -12.919   1.040  0.00  0.00     0.163 HD
ATOM     22  H   NAG d1177       8.371  -8.509   2.438  0.00  0.00     0.210 HD
ATOM     23  H   NAG d1177      13.233 -14.345   0.168  0.00  0.00     0.040 H 
ATOM     24  H   NAG d1177      11.558 -14.823   0.311  0.00  0.00     0.040 H 
ATOM     25  H   NAG d1177      12.332 -13.953   1.614  0.00  0.00     0.040 H 
ATOM     26  H   NAG d1177       8.038 -11.964   0.339  0.00  0.00     0.132 H 
ATOM     27  H   NAG d1177       8.153  -7.299  -1.295  0.00  0.00     0.209 HD
ATOM     28  O6A BDP d1178      10.481  -7.525   5.425  0.00  0.00    -0.646 OA
ATOM     29  O4  BDP d1178      13.649  -9.917   6.041  0.00  0.00    -0.348 OA
ATOM     30  O3  BDP d1178      15.206  -9.347   3.727  0.00  0.00    -0.390 OA
ATOM     31  C1  BDP d1178      11.798  -9.906   2.455  0.00  0.00     0.160 C 
ATOM     32  C4  BDP d1178      13.131  -9.289   4.892  0.00  0.00     0.103 C 
ATOM     33  C2  BDP d1178      13.258  -9.508   2.406  0.00  0.00     0.110 C 
ATOM     34  O2  BDP d1178      13.912 -10.169   1.354  0.00  0.00    -0.388 OA
ATOM     35  O6B BDP d1178      10.698  -9.116   6.975  0.00  0.00    -0.646 OA
ATOM     36  O5  BDP d1178      11.167  -9.190   3.501  0.00  0.00    -0.340 OA
ATOM     37  C6  BDP d1178      10.879  -8.660   5.812  0.00  0.00     0.206 C 
ATOM     38  C5  BDP d1178      11.632  -9.525   4.792  0.00  0.00     0.152 C 
ATOM     39  C3  BDP d1178      13.903  -9.900   3.706  0.00  0.00     0.092 C 
ATOM     40  H   BDP d1178      15.645  -9.586   4.559  0.00  0.00     0.210 HD
ATOM     41  H   BDP d1178      11.664 -10.949   2.651  0.00  0.00     0.133 H 
ATOM     42  H   BDP d1178      13.255  -8.226   4.912  0.00  0.00     0.092 H 
ATOM     43  H   BDP d1178      13.331  -8.452   2.250  0.00  0.00     0.094 H 
ATOM     44  H   BDP d1178      13.851 -11.128   1.486  0.00  0.00     0.210 HD
ATOM     45  H   BDP d1178      11.453 -10.560   4.991  0.00  0.00     0.104 H 
ATOM     46  H   BDP d1178      13.912 -10.967   3.787  0.00  0.00     0.091 H 
ATOM     47  O1  NAG d1175       2.722 -19.374  -6.259  0.00  0.00    -0.369 OA
ATOM     48  O3  NAG d1175       4.946 -16.076  -3.789  0.00  0.00    -0.348 OA
ATOM     49  O6  NAG d1175       5.553 -22.146  -3.191  0.00  0.00    -0.398 OA
ATOM     50  C7  NAG d1175       2.830 -15.610  -5.984  0.00  0.00     0.214 C 
ATOM     51  O4  NAG d1175       6.587 -18.249  -2.544  0.00  0.00    -0.390 OA
ATOM     52  N2  NAG d1175       3.461 -16.785  -6.103  0.00  0.00    -0.349 N 
ATOM     53  C6  NAG d1175       5.304 -20.880  -2.643  0.00  0.00     0.043 C 
ATOM     54  C2  NAG d1175       3.793 -17.699  -4.998  0.00  0.00     0.087 C 
ATOM     55  C8  NAG d1175       2.018 -15.348  -4.757  0.00  0.00    -0.003 C 
ATOM     56  O7  NAG d1175       2.902 -14.740  -6.865  0.00  0.00    -0.274 OA
ATOM     57  C3  NAG d1175       5.112 -17.379  -4.313  0.00  0.00     0.093 C 
ATOM     58  C4  NAG d1175       5.346 -18.436  -3.224  0.00  0.00     0.089 C 
ATOM     59  C1  NAG d1175       3.899 -19.115  -5.548  0.00  0.00     0.151 C 
ATOM     60  C5  NAG d1175       5.230 -19.864  -3.772  0.00  0.00     0.089 C 
ATOM     61  O5  NAG d1175       4.025 -20.054  -4.489  0.00  0.00    -0.349 OA
ATOM     62  H   NAG d1175       2.634 -18.734  -6.983  0.00  0.00     0.212 HD
ATOM     63  H   NAG d1175       5.601 -22.803  -2.479  0.00  0.00     0.209 HD
ATOM     64  H   NAG d1175       6.638 -17.340  -2.207  0.00  0.00     0.210 HD
ATOM     65  H   NAG d1175       3.727 -17.061  -7.009  0.00  0.00     0.163 HD
ATOM     66  H   NAG d1175       6.095 -20.617  -1.972  0.00  0.00     0.078 H 
ATOM     67  H   NAG d1175       4.379 -20.892  -2.103  0.00  0.00     0.078 H 
ATOM     68  H   NAG d1175       3.013 -17.591  -4.274  0.00  0.00     0.084 H 
ATOM     69  H   NAG d1175       2.065 -16.199  -4.109  0.00  0.00     0.040 H 
ATOM     70  H   NAG d1175       1.000 -15.168  -5.034  0.00  0.00     0.040 H 
ATOM     71  H   NAG d1175       2.406 -14.490  -4.249  0.00  0.00     0.040 H 
ATOM     72  H   NAG d1175       5.966 -17.401  -4.958  0.00  0.00     0.091 H 
ATOM     73  H   NAG d1175       4.564 -18.300  -2.506  0.00  0.00     0.091 H 
ATOM     74  H   NAG d1175       4.761 -19.202  -6.175  0.00  0.00     0.132 H 
ATOM     75  H   NAG d1175       6.052 -20.008  -4.441  0.00  0.00     0.090 H 
ATOM     76  C2  NAG d1181      12.508  -9.270  18.086  0.00  0.00     0.087 C 
ATOM     77  C8  NAG d1181       9.950  -7.825  18.212  0.00  0.00    -0.003 C 
ATOM     78  O5  NAG d1181      13.709 -11.241  17.263  0.00  0.00    -0.349 OA
ATOM     79  O4  NAG d1181      13.406 -11.452  20.923  0.00  0.00    -0.390 OA
ATOM     80  C3  NAG d1181      13.015  -9.563  19.488  0.00  0.00     0.086 C 
ATOM     81  C1  NAG d1181      13.427  -9.870  17.020  0.00  0.00     0.154 C 
ATOM     82  N2  NAG d1181      12.370  -7.840  17.870  0.00  0.00    -0.349 N 
ATOM     83  C4  NAG d1181      13.104 -11.081  19.596  0.00  0.00     0.089 C 
ATOM     84  O6  NAG d1181      13.794 -13.835  17.856  0.00  0.00    -0.398 OA
ATOM     85  O3  NAG d1181      12.174  -9.000  20.482  0.00  0.00    -0.391 OA
ATOM     86  C5  NAG d1181      14.166 -11.537  18.580  0.00  0.00     0.089 C 
ATOM     87  O7  NAG d1181      11.107  -6.265  16.867  0.00  0.00    -0.274 OA
ATOM     88  C7  NAG d1181      11.195  -7.253  17.594  0.00  0.00     0.214 C 
ATOM     89  C6  NAG d1181      14.573 -13.012  18.701  0.00  0.00     0.043 C 
ATOM     90  H   NAG d1181      11.546  -9.729  17.997  0.00  0.00     0.084 H 
ATOM     91  H   NAG d1181      10.207  -8.675  18.810  0.00  0.00     0.040 H 
ATOM     92  H   NAG d1181       9.273  -8.125  17.439  0.00  0.00     0.040 H 
ATOM     93  H   NAG d1181       9.484  -7.084  18.826  0.00  0.00     0.040 H 
ATOM     94  H   NAG d1181      12.705 -11.139  21.514  0.00  0.00     0.210 HD
ATOM     95  H   NAG d1181      13.973  -9.116  19.655  0.00  0.00     0.090 H 
ATOM     96  H   NAG d1181      14.388  -9.400  17.007  0.00  0.00     0.132 H 
ATOM     97  H   NAG d1181      13.175  -7.276  17.929  0.00  0.00     0.163 HD
ATOM     98  H   NAG d1181      12.175 -11.559  19.366  0.00  0.00     0.091 H 
ATOM     99  H   NAG d1181      14.075 -14.758  17.956  0.00  0.00     0.209 HD
ATOM    100  H   NAG d1181      11.280  -9.362  20.391  0.00  0.00     0.210 HD
ATOM    101  H   NAG d1181      15.059 -10.989  18.801  0.00  0.00     0.090 H 
ATOM    102  H   NAG d1181      15.603 -13.112  18.431  0.00  0.00     0.078 H 
ATOM    103  H   NAG d1181      14.412 -13.322  19.713  0.00  0.00     0.078 H 
ATOM    104  C4  NAG d1179      15.731  -8.711   9.441  0.00  0.00     0.089 C 
ATOM    105  N2  NAG d1179      12.563 -10.591   8.440  0.00  0.00    -0.349 N 
ATOM    106  C6  NAG d1179      17.051  -7.268   7.833  0.00  0.00     0.043 C 
ATOM    107  O4  NAG d1179      16.037  -7.891  10.565  0.00  0.00    -0.390 OA
ATOM    108  O6  NAG d1179      17.940  -8.294   7.439  0.00  0.00    -0.398 OA
ATOM    109  C1  NAG d1179      13.989  -9.101   7.165  0.00  0.00     0.154 C 
ATOM    110  C5  NAG d1179      15.693  -7.860   8.175  0.00  0.00     0.089 C 
ATOM    111  O5  NAG d1179      15.308  -8.654   7.067  0.00  0.00    -0.349 OA
ATOM    112  C2  NAG d1179      13.909 -10.053   8.354  0.00  0.00     0.087 C 
ATOM    113  C8  NAG d1179      10.908 -12.310   8.537  0.00  0.00    -0.003 C 
ATOM    114  C7  NAG d1179      12.336 -11.889   8.628  0.00  0.00     0.214 C 
ATOM    115  C3  NAG d1179      14.376  -9.375   9.653  0.00  0.00     0.093 C 
ATOM    116  O3  NAG d1179      14.502 -10.342  10.685  0.00  0.00    -0.348 OA
ATOM    117  O7  NAG d1179      13.215 -12.708   8.875  0.00  0.00    -0.274 OA
ATOM    118  H   NAG d1179      16.484  -9.464   9.335  0.00  0.00     0.091 H 
ATOM    119  H   NAG d1179      11.797  -9.978   8.358  0.00  0.00     0.163 HD
ATOM    120  H   NAG d1179      17.445  -6.767   8.691  0.00  0.00     0.078 H 
ATOM    121  H   NAG d1179      16.938  -6.573   7.027  0.00  0.00     0.078 H 
ATOM    122  H   NAG d1179      15.355  -7.209  10.663  0.00  0.00     0.210 HD
ATOM    123  H   NAG d1179      18.045  -8.927   8.167  0.00  0.00     0.209 HD
ATOM    124  H   NAG d1179      13.350  -8.247   7.241  0.00  0.00     0.132 H 
ATOM    125  H   NAG d1179      14.995  -7.072   8.366  0.00  0.00     0.090 H 
ATOM    126  H   NAG d1179      14.582 -10.871   8.207  0.00  0.00     0.084 H 
ATOM    127  H   NAG d1179      10.298 -11.458   8.315  0.00  0.00     0.040 H 
ATOM    128  H   NAG d1179      10.601 -12.735   9.469  0.00  0.00     0.040 H 
ATOM    129  H   NAG d1179      10.799 -13.037   7.760  0.00  0.00     0.040 H 
ATOM    130  H   NAG d1179      13.651  -8.638   9.929  0.00  0.00     0.091 H 
ATOM    131  O5  BDP d1180      14.217  -9.049  12.573  0.00  0.00    -0.340 OA
ATOM    132  O6A BDP d1180      13.323  -6.573  14.644  0.00  0.00    -0.646 OA
ATOM    133  O2  BDP d1180      12.662 -12.248  11.860  0.00  0.00    -0.388 OA
ATOM    134  O3  BDP d1180      13.156 -12.327  14.759  0.00  0.00    -0.390 OA
ATOM    135  C5  BDP d1180      13.482  -8.755  13.741  0.00  0.00     0.152 C 
ATOM    136  C2  BDP d1180      13.500 -11.375  12.587  0.00  0.00     0.110 C 
ATOM    137  C3  BDP d1180      12.890 -11.179  13.973  0.00  0.00     0.092 C 
ATOM    138  C6  BDP d1180      14.094  -7.522  14.387  0.00  0.00     0.206 C 
ATOM    139  C1  BDP d1180      13.640 -10.072  11.800  0.00  0.00     0.160 C 
ATOM    140  C4  BDP d1180      13.489  -9.965  14.662  0.00  0.00     0.103 C 
ATOM    141  O6B BDP d1180      15.334  -7.526  14.602  0.00  0.00    -0.646 OA
ATOM    142  O4  BDP d1180      12.707  -9.683  15.791  0.00  0.00    -0.348 OA
ATOM    143  H   BDP d1180      13.031 -12.386  10.974  0.00  0.00     0.210 HD
ATOM    144  H   BDP d1180      12.778 -13.109  14.327  0.00  0.00     0.210 HD
ATOM    145  H   BDP d1180      12.458  -8.542  13.516  0.00  0.00     0.104 H 
ATOM    146  H   BDP d1180      14.485 -11.771  12.722  0.00  0.00     0.094 H 
ATOM    147  H   BDP d1180      11.836 -11.030  13.864  0.00  0.00     0.091 H 
ATOM    148  H   BDP d1180      12.669  -9.742  11.496  0.00  0.00     0.133 H 
ATOM    149  H   BDP d1180      14.503 -10.174  14.932  0.00  0.00     0.092 H 
ATOM    150  C3  BDP d1176       6.863 -12.856  -3.233  0.00  0.00     0.092 C 
ATOM    151  O4  BDP d1176       8.627 -12.501  -1.542  0.00  0.00    -0.348 OA
ATOM    152  O3  BDP d1176       6.348 -11.530  -3.205  0.00  0.00    -0.390 OA
ATOM    153  O5  BDP d1176       6.709 -15.568  -2.338  0.00  0.00    -0.340 OA
ATOM    154  O2  BDP d1176       5.344 -13.512  -4.982  0.00  0.00    -0.388 OA
ATOM    155  C1  BDP d1176       6.141 -15.286  -3.600  0.00  0.00     0.160 C 
ATOM    156  O6B BDP d1176       9.406 -15.707  -0.487  0.00  0.00    -0.646 OA
ATOM    157  C5  BDP d1176       7.822 -14.750  -1.965  0.00  0.00     0.152 C 
ATOM    158  O6A BDP d1176       7.369 -15.299   0.314  0.00  0.00    -0.646 OA
ATOM    159  C6  BDP d1176       8.227 -15.279  -0.608  0.00  0.00     0.206 C 
ATOM    160  C4  BDP d1176       7.478 -13.261  -1.882  0.00  0.00     0.103 C 
ATOM    161  C2  BDP d1176       5.739 -13.811  -3.653  0.00  0.00     0.110 C 
ATOM    162  H   BDP d1176       7.659 -12.909  -3.946  0.00  0.00     0.091 H 
ATOM    163  H   BDP d1176       5.626 -11.476  -2.559  0.00  0.00     0.210 HD
ATOM    164  H   BDP d1176       5.084 -12.580  -5.040  0.00  0.00     0.210 HD
ATOM    165  H   BDP d1176       6.859 -15.514  -4.360  0.00  0.00     0.133 H 
ATOM    166  H   BDP d1176       8.601 -14.805  -2.696  0.00  0.00     0.104 H 
ATOM    167  H   BDP d1176       6.766 -13.065  -1.107  0.00  0.00     0.092 H 
ATOM    168  H   BDP d1176       4.941 -13.666  -2.956  0.00  0.00     0.094 H 
ENDROOT
TORSDOF 43
ENDMDL
MODEL 7
REMARK VINA RESULT:      -9.2      2.225      3.217
REMARK  0 active torsions:
REMARK  status: ('A' for Active; 'I' for Inactive)
REMARK       I    between atoms: C3_1  and  O3_90 
REMARK       I    between atoms: O1_4  and  C1_76 
REMARK       I    between atoms: C2_5  and  N2_21 
REMARK       I    between atoms: C8_6  and  C7_66 
REMARK       I    between atoms: C4_7  and  O4_24 
REMARK       I    between atoms: N2_9  and  C2_60 
REMARK       I    between atoms: N2_9  and  C7_69 
REMARK       I    between atoms: O4_12  and  C4_26 
REMARK       I    between atoms: O3_13  and  C3_65 
REMARK       I    between atoms: O3_13  and  C1_61 
REMARK       I    between atoms: C3_14  and  O3_35 
REMARK       I    between atoms: C6_15  and  C5_53 
REMARK       I    between atoms: C6_15  and  O6_46 
REMARK       I    between atoms: O6_16  and  C6_54 
REMARK       I    between atoms: C4_17  and  O4_49 
REMARK       I    between atoms: O4_18  and  C4_28 
REMARK       I    between atoms: O4_18  and  C1_47 
REMARK       I    between atoms: C3_19  and  O3_43 
REMARK       I    between atoms: C1_20  and  O4_91 
REMARK       I    between atoms: N2_21  and  C7_66 
REMARK       I    between atoms: O3_22  and  C3_82 
REMARK       I    between atoms: C7_23  and  C8_62 
REMARK       I    between atoms: C7_23  and  N2_51 
REMARK       I    between atoms: C2_25  and  N2_41 
REMARK       I    between atoms: C1_27  and  O3_90 
REMARK       I    between atoms: O6_29  and  C6_74 
REMARK       I    between atoms: O2_30  and  C2_37 
REMARK       I    between atoms: C2_31  and  O2_42 
REMARK       I    between atoms: O3_32  and  C3_45 
REMARK       I    between atoms: O4_33  and  C4_73 
REMARK       I    between atoms: O4_34  and  C4_84 
REMARK       I    between atoms: O4_34  and  C1_85 
REMARK       I    between atoms: C5_36  and  C6_48 
REMARK       I    between atoms: C6_38  and  C5_40 
REMARK       I    between atoms: C6_38  and  O6_89 
REMARK       I    between atoms: N2_41  and  C7_50 
REMARK       I    between atoms: C5_44  and  C6_74 
REMARK       I    between atoms: C7_50  and  C8_75 
REMARK       I    between atoms: N2_51  and  C2_58 
REMARK       I    between atoms: C1_52  and  O3_87 
REMARK       I    between atoms: C6_54  and  C5_86 
REMARK       I    between atoms: O2_59  and  C2_93 
REMARK       I    between atoms: C8_64  and  C7_69 
REMARK       I    between atoms: C6_70  and  C5_80 
REMARK       I    between atoms: C4_72  and  O4_91 
REMARK       I    between atoms: C5_77  and  C6_79 
REMARK       I    between atoms: C3_83  and  O3_87 
ROOT
ATOM      1  C3  NAG d1177      11.939 -12.114   9.188  0.00  0.00     0.093 C 
ATOM      2  O7  NAG d1177       9.739  -9.252  10.605  0.00  0.00    -0.274 OA
ATOM      3  C4  NAG d1177      13.408 -12.511   9.418  0.00  0.00     0.089 C 
ATOM      4  C2  NAG d1177      11.289 -11.706  10.500  0.00  0.00     0.087 C 
ATOM      5  C6  NAG d1177      15.004 -13.820  10.918  0.00  0.00     0.043 C 
ATOM      6  C5  NAG d1177      13.542 -13.496  10.569  0.00  0.00     0.089 C 
ATOM      7  N2  NAG d1177       9.829 -11.549  10.368  0.00  0.00    -0.349 N 
ATOM      8  O4  NAG d1177      13.960 -13.077   8.246  0.00  0.00    -0.390 OA
ATOM      9  C7  NAG d1177       9.183 -10.381  10.413  0.00  0.00     0.214 C 
ATOM     10  O5  NAG d1177      12.916 -12.971  11.733  0.00  0.00    -0.349 OA
ATOM     11  C8  NAG d1177       7.692 -10.547  10.273  0.00  0.00    -0.003 C 
ATOM     12  C1  NAG d1177      11.532 -12.760  11.579  0.00  0.00     0.154 C 
ATOM     13  O6  NAG d1177      15.689 -12.662  11.362  0.00  0.00    -0.398 OA
ATOM     14  O3  NAG d1177      11.882 -10.999   8.341  0.00  0.00    -0.348 OA
ATOM     15  H   NAG d1177      11.432 -12.954   8.762  0.00  0.00     0.091 H 
ATOM     16  H   NAG d1177      13.944 -11.620   9.669  0.00  0.00     0.091 H 
ATOM     17  H   NAG d1177      11.732 -10.770  10.770  0.00  0.00     0.084 H 
ATOM     18  H   NAG d1177      15.494 -14.204  10.048  0.00  0.00     0.078 H 
ATOM     19  H   NAG d1177      15.014 -14.545  11.704  0.00  0.00     0.078 H 
ATOM     20  H   NAG d1177      13.069 -14.400  10.246  0.00  0.00     0.090 H 
ATOM     21  H   NAG d1177       9.291 -12.364  10.237  0.00  0.00     0.163 HD
ATOM     22  H   NAG d1177      13.475 -13.885   8.017  0.00  0.00     0.210 HD
ATOM     23  H   NAG d1177       7.221  -9.588  10.315  0.00  0.00     0.040 H 
ATOM     24  H   NAG d1177       7.325 -11.160  11.069  0.00  0.00     0.040 H 
ATOM     25  H   NAG d1177       7.472 -11.013   9.335  0.00  0.00     0.040 H 
ATOM     26  H   NAG d1177      11.085 -13.687  11.289  0.00  0.00     0.132 H 
ATOM     27  H   NAG d1177      15.687 -11.995  10.658  0.00  0.00     0.209 HD
ATOM     28  O6A BDP d1178      12.790 -13.430   4.320  0.00  0.00    -0.646 OA
ATOM     29  O4  BDP d1178       9.388 -11.447   3.524  0.00  0.00    -0.348 OA
ATOM     30  O3  BDP d1178      10.019  -8.870   4.553  0.00  0.00    -0.390 OA
ATOM     31  C1  BDP d1178      11.045 -11.217   7.197  0.00  0.00     0.160 C 
ATOM     32  C4  BDP d1178      10.453 -11.207   4.414  0.00  0.00     0.103 C 
ATOM     33  C2  BDP d1178      10.915  -9.887   6.484  0.00  0.00     0.110 C 
ATOM     34  O2  BDP d1178      10.396  -8.913   7.353  0.00  0.00    -0.388 OA
ATOM     35  O6B BDP d1178      10.852 -14.289   3.620  0.00  0.00    -0.646 OA
ATOM     36  O5  BDP d1178      11.607 -12.159   6.302  0.00  0.00    -0.340 OA
ATOM     37  C6  BDP d1178      11.528 -13.475   4.310  0.00  0.00     0.206 C 
ATOM     38  C5  BDP d1178      10.783 -12.468   5.196  0.00  0.00     0.152 C 
ATOM     39  C3  BDP d1178       9.976 -10.058   5.324  0.00  0.00     0.092 C 
ATOM     40  H   BDP d1178       9.420  -8.955   3.795  0.00  0.00     0.210 HD
ATOM     41  H   BDP d1178      10.100 -11.602   7.519  0.00  0.00     0.133 H 
ATOM     42  H   BDP d1178      11.357 -10.935   3.909  0.00  0.00     0.092 H 
ATOM     43  H   BDP d1178      11.880  -9.571   6.148  0.00  0.00     0.094 H 
ATOM     44  H   BDP d1178       9.520  -9.191   7.664  0.00  0.00     0.210 HD
ATOM     45  H   BDP d1178       9.860 -12.892   5.532  0.00  0.00     0.104 H 
ATOM     46  H   BDP d1178       8.993 -10.267   5.692  0.00  0.00     0.091 H 
ATOM     47  O1  NAG d1175       8.127 -16.116  21.875  0.00  0.00    -0.369 OA
ATOM     48  O3  NAG d1175       9.624 -14.922  17.602  0.00  0.00    -0.348 OA
ATOM     49  O6  NAG d1175       3.807 -15.715  19.366  0.00  0.00    -0.398 OA
ATOM     50  C7  NAG d1175      11.385 -15.538  20.057  0.00  0.00     0.214 C 
ATOM     51  O4  NAG d1175       6.763 -14.515  16.816  0.00  0.00    -0.390 OA
ATOM     52  N2  NAG d1175      10.150 -15.138  20.383  0.00  0.00    -0.349 N 
ATOM     53  C6  NAG d1175       4.873 -15.991  18.497  0.00  0.00     0.043 C 
ATOM     54  C2  NAG d1175       8.906 -15.563  19.723  0.00  0.00     0.087 C 
ATOM     55  C8  NAG d1175      11.552 -16.800  19.273  0.00  0.00    -0.003 C 
ATOM     56  O7  NAG d1175      12.390 -14.890  20.390  0.00  0.00    -0.274 OA
ATOM     57  C3  NAG d1175       8.548 -14.734  18.499  0.00  0.00     0.093 C 
ATOM     58  C4  NAG d1175       7.213 -15.257  17.950  0.00  0.00     0.089 C 
ATOM     59  C1  NAG d1175       7.756 -15.432  20.712  0.00  0.00     0.151 C 
ATOM     60  C5  NAG d1175       6.128 -15.318  19.032  0.00  0.00     0.089 C 
ATOM     61  O5  NAG d1175       6.572 -16.012  20.182  0.00  0.00    -0.349 OA
ATOM     62  H   NAG d1175       8.935 -15.722  22.238  0.00  0.00     0.212 HD
ATOM     63  H   NAG d1175       3.002 -16.140  19.035  0.00  0.00     0.209 HD
ATOM     64  H   NAG d1175       7.465 -14.490  16.147  0.00  0.00     0.210 HD
ATOM     65  H   NAG d1175      10.067 -14.503  21.131  0.00  0.00     0.163 HD
ATOM     66  H   NAG d1175       4.648 -15.613  17.522  0.00  0.00     0.078 H 
ATOM     67  H   NAG d1175       5.026 -17.049  18.434  0.00  0.00     0.078 H 
ATOM     68  H   NAG d1175       9.065 -16.570  19.401  0.00  0.00     0.084 H 
ATOM     69  H   NAG d1175      10.590 -17.226  19.075  0.00  0.00     0.040 H 
ATOM     70  H   NAG d1175      12.140 -17.495  19.837  0.00  0.00     0.040 H 
ATOM     71  H   NAG d1175      12.044 -16.584  18.348  0.00  0.00     0.040 H 
ATOM     72  H   NAG d1175       8.417 -13.689  18.691  0.00  0.00     0.091 H 
ATOM     73  H   NAG d1175       7.400 -16.259  17.622  0.00  0.00     0.091 H 
ATOM     74  H   NAG d1175       7.560 -14.400  20.913  0.00  0.00     0.132 H 
ATOM     75  H   NAG d1175       5.905 -14.308  19.307  0.00  0.00     0.090 H 
ATOM     76  C2  NAG d1181       6.957 -18.357  -6.128  0.00  0.00     0.087 C 
ATOM     77  C8  NAG d1181       9.092 -20.351  -5.795  0.00  0.00    -0.003 C 
ATOM     78  O5  NAG d1181       5.012 -17.251  -5.128  0.00  0.00    -0.349 OA
ATOM     79  O4  NAG d1181       3.893 -19.381  -7.911  0.00  0.00    -0.390 OA
ATOM     80  C3  NAG d1181       6.125 -18.679  -7.359  0.00  0.00     0.086 C 
ATOM     81  C1  NAG d1181       6.406 -17.141  -5.380  0.00  0.00     0.154 C 
ATOM     82  N2  NAG d1181       8.347 -18.128  -6.485  0.00  0.00    -0.349 N 
ATOM     83  C4  NAG d1181       4.704 -18.909  -6.858  0.00  0.00     0.089 C 
ATOM     84  O6  NAG d1181       2.491 -17.907  -4.580  0.00  0.00    -0.398 OA
ATOM     85  O3  NAG d1181       6.637 -19.798  -8.063  0.00  0.00    -0.391 OA
ATOM     86  C5  NAG d1181       4.219 -17.573  -6.268  0.00  0.00     0.089 C 
ATOM     87  O7  NAG d1181      10.474 -18.435  -5.804  0.00  0.00    -0.274 OA
ATOM     88  C7  NAG d1181       9.353 -18.889  -6.027  0.00  0.00     0.214 C 
ATOM     89  C6  NAG d1181       2.723 -17.534  -5.924  0.00  0.00     0.043 C 
ATOM     90  H   NAG d1181       6.901 -19.205  -5.479  0.00  0.00     0.084 H 
ATOM     91  H   NAG d1181       8.073 -20.574  -6.037  0.00  0.00     0.040 H 
ATOM     92  H   NAG d1181       9.273 -20.587  -4.767  0.00  0.00     0.040 H 
ATOM     93  H   NAG d1181       9.742 -20.932  -6.414  0.00  0.00     0.040 H 
ATOM     94  H   NAG d1181       4.247 -20.221  -8.241  0.00  0.00     0.210 HD
ATOM     95  H   NAG d1181       6.151 -17.876  -8.065  0.00  0.00     0.090 H 
ATOM     96  H   NAG d1181       6.502 -16.241  -5.951  0.00  0.00     0.132 H 
ATOM     97  H   NAG d1181       8.560 -17.381  -7.090  0.00  0.00     0.163 HD
ATOM     98  H   NAG d1181       4.658 -19.662  -6.098  0.00  0.00     0.091 H 
ATOM     99  H   NAG d1181       1.540 -17.872  -4.395  0.00  0.00     0.209 HD
ATOM    100  H   NAG d1181       6.644 -20.572  -7.480  0.00  0.00     0.210 HD
ATOM    101  H   NAG d1181       4.342 -16.836  -7.033  0.00  0.00     0.090 H 
ATOM    102  H   NAG d1181       2.357 -16.541  -6.077  0.00  0.00     0.078 H 
ATOM    103  H   NAG d1181       2.214 -18.230  -6.558  0.00  0.00     0.078 H 
ATOM    104  C4  NAG d1179       8.796 -11.188  -0.591  0.00  0.00     0.089 C 
ATOM    105  N2  NAG d1179       8.479 -13.686   2.277  0.00  0.00    -0.349 N 
ATOM    106  C6  NAG d1179      10.091  -9.021  -0.402  0.00  0.00     0.043 C 
ATOM    107  O4  NAG d1179       9.109 -11.356  -1.970  0.00  0.00    -0.390 OA
ATOM    108  O6  NAG d1179       8.979  -8.239  -0.017  0.00  0.00    -0.398 OA
ATOM    109  C1  NAG d1179       9.685 -11.588   2.132  0.00  0.00     0.154 C 
ATOM    110  C5  NAG d1179       9.929 -10.443   0.109  0.00  0.00     0.089 C 
ATOM    111  O5  NAG d1179       9.663 -10.346   1.497  0.00  0.00    -0.349 OA
ATOM    112  C2  NAG d1179       8.525 -12.411   1.584  0.00  0.00     0.087 C 
ATOM    113  C8  NAG d1179       7.478 -15.425   3.574  0.00  0.00    -0.003 C 
ATOM    114  C7  NAG d1179       7.340 -14.189   2.750  0.00  0.00     0.214 C 
ATOM    115  C3  NAG d1179       8.605 -12.555   0.055  0.00  0.00     0.093 C 
ATOM    116  O3  NAG d1179       7.404 -13.126  -0.442  0.00  0.00    -0.348 OA
ATOM    117  O7  NAG d1179       6.235 -13.703   2.530  0.00  0.00    -0.274 OA
ATOM    118  H   NAG d1179       7.894 -10.620  -0.498  0.00  0.00     0.091 H 
ATOM    119  H   NAG d1179       9.313 -14.193   2.402  0.00  0.00     0.163 HD
ATOM    120  H   NAG d1179      10.163  -9.034  -1.469  0.00  0.00     0.078 H 
ATOM    121  H   NAG d1179      10.980  -8.597   0.016  0.00  0.00     0.078 H 
ATOM    122  H   NAG d1179       9.926 -11.871  -2.056  0.00  0.00     0.210 HD
ATOM    123  H   NAG d1179       8.170  -8.620  -0.394  0.00  0.00     0.209 HD
ATOM    124  H   NAG d1179      10.648 -12.027   1.976  0.00  0.00     0.132 H 
ATOM    125  H   NAG d1179      10.820 -11.001  -0.091  0.00  0.00     0.090 H 
ATOM    126  H   NAG d1179       7.602 -11.902   1.770  0.00  0.00     0.084 H 
ATOM    127  H   NAG d1179       8.512 -15.690   3.650  0.00  0.00     0.040 H 
ATOM    128  H   NAG d1179       6.938 -16.224   3.110  0.00  0.00     0.040 H 
ATOM    129  H   NAG d1179       7.082 -15.248   4.552  0.00  0.00     0.040 H 
ATOM    130  H   NAG d1179       9.435 -13.186  -0.181  0.00  0.00     0.091 H 
ATOM    131  O5  BDP d1180       8.127 -14.101  -2.402  0.00  0.00    -0.340 OA
ATOM    132  O6A BDP d1180      10.067 -15.490  -4.753  0.00  0.00    -0.646 OA
ATOM    133  O2  BDP d1180       5.994 -15.594   0.124  0.00  0.00    -0.388 OA
ATOM    134  O3  BDP d1180       4.935 -16.644  -2.412  0.00  0.00    -0.390 OA
ATOM    135  C5  BDP d1180       8.313 -15.263  -3.181  0.00  0.00     0.152 C 
ATOM    136  C2  BDP d1180       6.284 -15.104  -1.167  0.00  0.00     0.110 C 
ATOM    137  C3  BDP d1180       6.277 -16.284  -2.135  0.00  0.00     0.092 C 
ATOM    138  C6  BDP d1180       9.025 -14.863  -4.464  0.00  0.00     0.206 C 
ATOM    139  C1  BDP d1180       7.626 -14.373  -1.116  0.00  0.00     0.160 C 
ATOM    140  C4  BDP d1180       6.966 -15.920  -3.439  0.00  0.00     0.103 C 
ATOM    141  O6B BDP d1180       8.536 -13.919  -5.138  0.00  0.00    -0.646 OA
ATOM    142  O4  BDP d1180       7.167 -17.104  -4.162  0.00  0.00    -0.348 OA
ATOM    143  H   BDP d1180       5.994 -14.859   0.757  0.00  0.00     0.210 HD
ATOM    144  H   BDP d1180       4.486 -16.878  -1.585  0.00  0.00     0.210 HD
ATOM    145  H   BDP d1180       8.918 -15.984  -2.672  0.00  0.00     0.104 H 
ATOM    146  H   BDP d1180       5.554 -14.400  -1.511  0.00  0.00     0.094 H 
ATOM    147  H   BDP d1180       6.802 -17.099  -1.682  0.00  0.00     0.091 H 
ATOM    148  H   BDP d1180       8.340 -14.990  -0.612  0.00  0.00     0.133 H 
ATOM    149  H   BDP d1180       6.355 -15.230  -3.982  0.00  0.00     0.092 H 
ATOM    150  C3  BDP d1176      11.696 -13.040  15.049  0.00  0.00     0.092 C 
ATOM    151  O4  BDP d1176      10.933 -12.332  12.810  0.00  0.00    -0.348 OA
ATOM    152  O3  BDP d1176      13.053 -13.270  14.688  0.00  0.00    -0.390 OA
ATOM    153  O5  BDP d1176       9.066 -14.069  15.496  0.00  0.00    -0.340 OA
ATOM    154  O2  BDP d1176      12.122 -13.560  17.361  0.00  0.00    -0.388 OA
ATOM    155  C1  BDP d1176       9.869 -13.871  16.640  0.00  0.00     0.160 C 
ATOM    156  O6B BDP d1176       7.495 -12.733  12.953  0.00  0.00    -0.646 OA
ATOM    157  C5  BDP d1176       9.312 -13.176  14.406  0.00  0.00     0.152 C 
ATOM    158  O6A BDP d1176       8.332 -14.796  12.952  0.00  0.00    -0.646 OA
ATOM    159  C6  BDP d1176       8.317 -13.601  13.351  0.00  0.00     0.206 C 
ATOM    160  C4  BDP d1176      10.742 -13.263  13.864  0.00  0.00     0.103 C 
ATOM    161  C2  BDP d1176      11.344 -13.941  16.239  0.00  0.00     0.110 C 
ATOM    162  H   BDP d1176      11.578 -12.015  15.333  0.00  0.00     0.091 H 
ATOM    163  H   BDP d1176      13.166 -14.198  14.429  0.00  0.00     0.210 HD
ATOM    164  H   BDP d1176      13.063 -13.596  17.129  0.00  0.00     0.210 HD
ATOM    165  H   BDP d1176       9.634 -12.918  17.066  0.00  0.00     0.133 H 
ATOM    166  H   BDP d1176       9.204 -12.157  14.712  0.00  0.00     0.104 H 
ATOM    167  H   BDP d1176      10.942 -14.224  13.437  0.00  0.00     0.092 H 
ATOM    168  H   BDP d1176      11.550 -14.945  15.931  0.00  0.00     0.094 H 
ENDROOT
TORSDOF 43
ENDMDL
MODEL 8
REMARK VINA RESULT:      -9.2      5.890     17.766
REMARK  0 active torsions:
REMARK  status: ('A' for Active; 'I' for Inactive)
REMARK       I    between atoms: C3_1  and  O3_90 
REMARK       I    between atoms: O1_4  and  C1_76 
REMARK       I    between atoms: C2_5  and  N2_21 
REMARK       I    between atoms: C8_6  and  C7_66 
REMARK       I    between atoms: C4_7  and  O4_24 
REMARK       I    between atoms: N2_9  and  C2_60 
REMARK       I    between atoms: N2_9  and  C7_69 
REMARK       I    between atoms: O4_12  and  C4_26 
REMARK       I    between atoms: O3_13  and  C3_65 
REMARK       I    between atoms: O3_13  and  C1_61 
REMARK       I    between atoms: C3_14  and  O3_35 
REMARK       I    between atoms: C6_15  and  C5_53 
REMARK       I    between atoms: C6_15  and  O6_46 
REMARK       I    between atoms: O6_16  and  C6_54 
REMARK       I    between atoms: C4_17  and  O4_49 
REMARK       I    between atoms: O4_18  and  C4_28 
REMARK       I    between atoms: O4_18  and  C1_47 
REMARK       I    between atoms: C3_19  and  O3_43 
REMARK       I    between atoms: C1_20  and  O4_91 
REMARK       I    between atoms: N2_21  and  C7_66 
REMARK       I    between atoms: O3_22  and  C3_82 
REMARK       I    between atoms: C7_23  and  C8_62 
REMARK       I    between atoms: C7_23  and  N2_51 
REMARK       I    between atoms: C2_25  and  N2_41 
REMARK       I    between atoms: C1_27  and  O3_90 
REMARK       I    between atoms: O6_29  and  C6_74 
REMARK       I    between atoms: O2_30  and  C2_37 
REMARK       I    between atoms: C2_31  and  O2_42 
REMARK       I    between atoms: O3_32  and  C3_45 
REMARK       I    between atoms: O4_33  and  C4_73 
REMARK       I    between atoms: O4_34  and  C4_84 
REMARK       I    between atoms: O4_34  and  C1_85 
REMARK       I    between atoms: C5_36  and  C6_48 
REMARK       I    between atoms: C6_38  and  C5_40 
REMARK       I    between atoms: C6_38  and  O6_89 
REMARK       I    between atoms: N2_41  and  C7_50 
REMARK       I    between atoms: C5_44  and  C6_74 
REMARK       I    between atoms: C7_50  and  C8_75 
REMARK       I    between atoms: N2_51  and  C2_58 
REMARK       I    between atoms: C1_52  and  O3_87 
REMARK       I    between atoms: C6_54  and  C5_86 
REMARK       I    between atoms: O2_59  and  C2_93 
REMARK       I    between atoms: C8_64  and  C7_69 
REMARK       I    between atoms: C6_70  and  C5_80 
REMARK       I    between atoms: C4_72  and  O4_91 
REMARK       I    between atoms: C5_77  and  C6_79 
REMARK       I    between atoms: C3_83  and  O3_87 
ROOT
ATOM      1  C3  NAG d1177       9.270 -10.383   0.060  0.00  0.00     0.093 C 
ATOM      2  O7  NAG d1177      11.848 -12.276  -2.133  0.00  0.00    -0.274 OA
ATOM      3  C4  NAG d1177       8.253  -9.271  -0.252  0.00  0.00     0.089 C 
ATOM      4  C2  NAG d1177       9.292 -11.411  -1.059  0.00  0.00     0.087 C 
ATOM      5  C6  NAG d1177       5.900  -8.776  -1.105  0.00  0.00     0.043 C 
ATOM      6  C5  NAG d1177       6.907  -9.849  -0.659  0.00  0.00     0.089 C 
ATOM      7  N2  NAG d1177      10.069 -12.609  -0.695  0.00  0.00    -0.349 N 
ATOM      8  O4  NAG d1177       8.084  -8.423   0.867  0.00  0.00    -0.390 OA
ATOM      9  C7  NAG d1177      11.251 -12.938  -1.224  0.00  0.00     0.214 C 
ATOM     10  O5  NAG d1177       7.077 -10.768  -1.731  0.00  0.00    -0.349 OA
ATOM     11  C8  NAG d1177      11.785 -14.232  -0.666  0.00  0.00    -0.003 C 
ATOM     12  C1  NAG d1177       7.877 -11.878  -1.396  0.00  0.00     0.154 C 
ATOM     13  O6  NAG d1177       6.358  -8.099  -2.262  0.00  0.00    -0.398 OA
ATOM     14  O3  NAG d1177      10.558  -9.834   0.134  0.00  0.00    -0.348 OA
ATOM     15  H   NAG d1177       8.987 -10.840   0.985  0.00  0.00     0.091 H 
ATOM     16  H   NAG d1177       8.642  -8.704  -1.072  0.00  0.00     0.091 H 
ATOM     17  H   NAG d1177       9.746 -10.924  -1.898  0.00  0.00     0.084 H 
ATOM     18  H   NAG d1177       5.771  -8.068  -0.313  0.00  0.00     0.078 H 
ATOM     19  H   NAG d1177       4.972  -9.254  -1.335  0.00  0.00     0.078 H 
ATOM     20  H   NAG d1177       6.514 -10.333   0.211  0.00  0.00     0.090 H 
ATOM     21  H   NAG d1177       9.690 -13.211  -0.013  0.00  0.00     0.163 HD
ATOM     22  H   NAG d1177       7.732  -8.936   1.611  0.00  0.00     0.210 HD
ATOM     23  H   NAG d1177      12.729 -14.452  -1.119  0.00  0.00     0.040 H 
ATOM     24  H   NAG d1177      11.095 -15.022  -0.878  0.00  0.00     0.040 H 
ATOM     25  H   NAG d1177      11.908 -14.140   0.392  0.00  0.00     0.040 H 
ATOM     26  H   NAG d1177       7.440 -12.358  -0.547  0.00  0.00     0.132 H 
ATOM     27  H   NAG d1177       7.201  -7.660  -2.068  0.00  0.00     0.209 HD
ATOM     28  O6A BDP d1178       9.984  -7.904   4.476  0.00  0.00    -0.646 OA
ATOM     29  O4  BDP d1178      13.307 -10.135   4.822  0.00  0.00    -0.348 OA
ATOM     30  O3  BDP d1178      14.673  -9.432   2.426  0.00  0.00    -0.390 OA
ATOM     31  C1  BDP d1178      11.221 -10.147   1.367  0.00  0.00     0.160 C 
ATOM     32  C4  BDP d1178      12.681  -9.511   3.726  0.00  0.00     0.103 C 
ATOM     33  C2  BDP d1178      12.652  -9.670   1.233  0.00  0.00     0.110 C 
ATOM     34  O2  BDP d1178      13.267 -10.271   0.123  0.00  0.00    -0.388 OA
ATOM     35  O6B BDP d1178      10.388  -9.514   5.968  0.00  0.00    -0.646 OA
ATOM     36  O5  BDP d1178      10.625  -9.488   2.470  0.00  0.00    -0.340 OA
ATOM     37  C6  BDP d1178      10.466  -9.024   4.807  0.00  0.00     0.206 C 
ATOM     38  C5  BDP d1178      11.193  -9.825   3.719  0.00  0.00     0.152 C 
ATOM     39  C3  BDP d1178      13.402 -10.054   2.477  0.00  0.00     0.092 C 
ATOM     40  H   BDP d1178      15.179  -9.665   3.220  0.00  0.00     0.210 HD
ATOM     41  H   BDP d1178      11.156 -11.199   1.546  0.00  0.00     0.133 H 
ATOM     42  H   BDP d1178      12.750  -8.443   3.765  0.00  0.00     0.092 H 
ATOM     43  H   BDP d1178      12.659  -8.608   1.098  0.00  0.00     0.094 H 
ATOM     44  H   BDP d1178      13.265 -11.235   0.235  0.00  0.00     0.210 HD
ATOM     45  H   BDP d1178      11.082 -10.872   3.904  0.00  0.00     0.104 H 
ATOM     46  H   BDP d1178      13.473 -11.121   2.531  0.00  0.00     0.091 H 
ATOM     47  O1  NAG d1175       2.088 -19.901  -6.962  0.00  0.00    -0.369 OA
ATOM     48  O3  NAG d1175       4.297 -16.541  -4.563  0.00  0.00    -0.348 OA
ATOM     49  O6  NAG d1175       5.259 -22.582  -4.157  0.00  0.00    -0.398 OA
ATOM     50  C7  NAG d1175       2.017 -16.144  -6.600  0.00  0.00     0.214 C 
ATOM     51  O4  NAG d1175       6.130 -18.649  -3.483  0.00  0.00    -0.390 OA
ATOM     52  N2  NAG d1175       2.699 -17.280  -6.790  0.00  0.00    -0.349 N 
ATOM     53  C6  NAG d1175       4.982 -21.343  -3.562  0.00  0.00     0.043 C 
ATOM     54  C2  NAG d1175       3.152 -18.198  -5.733  0.00  0.00     0.087 C 
ATOM     55  C8  NAG d1175       1.276 -15.952  -5.316  0.00  0.00    -0.003 C 
ATOM     56  O7  NAG d1175       1.984 -15.252  -7.463  0.00  0.00    -0.274 OA
ATOM     57  C3  NAG d1175       4.496 -17.822  -5.129  0.00  0.00     0.093 C 
ATOM     58  C4  NAG d1175       4.857 -18.888  -4.084  0.00  0.00     0.089 C 
ATOM     59  C1  NAG d1175       3.294 -19.594  -6.323  0.00  0.00     0.151 C 
ATOM     60  C5  NAG d1175       4.780 -20.308  -4.658  0.00  0.00     0.089 C 
ATOM     61  O5  NAG d1175       3.540 -20.547  -5.299  0.00  0.00    -0.349 OA
ATOM     62  H   NAG d1175       1.918 -19.252  -7.662  0.00  0.00     0.212 HD
ATOM     63  H   NAG d1175       5.390 -23.250  -3.466  0.00  0.00     0.209 HD
ATOM     64  H   NAG d1175       6.155 -17.746  -3.127  0.00  0.00     0.210 HD
ATOM     65  H   NAG d1175       2.918 -17.522  -7.719  0.00  0.00     0.163 HD
ATOM     66  H   NAG d1175       5.801 -21.052  -2.939  0.00  0.00     0.078 H 
ATOM     67  H   NAG d1175       4.097 -21.416  -2.964  0.00  0.00     0.078 H 
ATOM     68  H   NAG d1175       2.418 -18.148  -4.956  0.00  0.00     0.084 H 
ATOM     69  H   NAG d1175       1.412 -16.813  -4.695  0.00  0.00     0.040 H 
ATOM     70  H   NAG d1175       0.234 -15.821  -5.522  0.00  0.00     0.040 H 
ATOM     71  H   NAG d1175       1.652 -15.086  -4.814  0.00  0.00     0.040 H 
ATOM     72  H   NAG d1175       5.304 -17.785  -5.828  0.00  0.00     0.091 H 
ATOM     73  H   NAG d1175       4.119 -18.810  -3.313  0.00  0.00     0.091 H 
ATOM     74  H   NAG d1175       4.116 -19.621  -7.008  0.00  0.00     0.132 H 
ATOM     75  H   NAG d1175       5.561 -20.394  -5.383  0.00  0.00     0.090 H 
ATOM     76  C2  NAG d1181      12.946  -9.807  16.928  0.00  0.00     0.087 C 
ATOM     77  C8  NAG d1181      10.330  -8.505  17.259  0.00  0.00    -0.003 C 
ATOM     78  O5  NAG d1181      14.190 -11.693  15.979  0.00  0.00    -0.349 OA
ATOM     79  O4  NAG d1181      14.145 -11.998  19.645  0.00  0.00    -0.390 OA
ATOM     80  C3  NAG d1181      13.561 -10.102  18.287  0.00  0.00     0.086 C 
ATOM     81  C1  NAG d1181      13.821 -10.334  15.790  0.00  0.00     0.154 C 
ATOM     82  N2  NAG d1181      12.719  -8.383  16.758  0.00  0.00    -0.349 N 
ATOM     83  C4  NAG d1181      13.736 -11.615  18.350  0.00  0.00     0.089 C 
ATOM     84  O6  NAG d1181      14.451 -14.290  16.501  0.00  0.00    -0.398 OA
ATOM     85  O3  NAG d1181      12.760  -9.606  19.347  0.00  0.00    -0.391 OA
ATOM     86  C5  NAG d1181      14.750 -11.991  17.256  0.00  0.00     0.089 C 
ATOM     87  O7  NAG d1181      11.311  -6.857  15.880  0.00  0.00    -0.274 OA
ATOM     88  C7  NAG d1181      11.499  -7.854  16.575  0.00  0.00     0.214 C 
ATOM     89  C6  NAG d1181      15.240 -13.445  17.313  0.00  0.00     0.043 C 
ATOM     90  H   NAG d1181      12.005 -10.315  16.892  0.00  0.00     0.084 H 
ATOM     91  H   NAG d1181      10.671  -9.353  17.817  0.00  0.00     0.040 H 
ATOM     92  H   NAG d1181       9.619  -8.825  16.525  0.00  0.00     0.040 H 
ATOM     93  H   NAG d1181       9.868  -7.804  17.921  0.00  0.00     0.040 H 
ATOM     94  H   NAG d1181      13.470 -11.736  20.289  0.00  0.00     0.210 HD
ATOM     95  H   NAG d1181      14.502  -9.608  18.401  0.00  0.00     0.090 H 
ATOM     96  H   NAG d1181      14.753  -9.813  15.725  0.00  0.00     0.132 H 
ATOM     97  H   NAG d1181      13.495  -7.777  16.778  0.00  0.00     0.163 HD
ATOM     98  H   NAG d1181      12.820 -12.138  18.170  0.00  0.00     0.091 H 
ATOM     99  H   NAG d1181      14.785 -15.199  16.559  0.00  0.00     0.209 HD
ATOM    100  H   NAG d1181      11.882 -10.015  19.307  0.00  0.00     0.210 HD
ATOM    101  H   NAG d1181      15.625 -11.401  17.431  0.00  0.00     0.090 H 
ATOM    102  H   NAG d1181      16.254 -13.484  16.973  0.00  0.00     0.078 H 
ATOM    103  H   NAG d1181      15.164 -13.785  18.325  0.00  0.00     0.078 H 
ATOM    104  C4  NAG d1179      15.546  -8.891   8.107  0.00  0.00     0.089 C 
ATOM    105  N2  NAG d1179      12.422 -10.917   7.271  0.00  0.00    -0.349 N 
ATOM    106  C6  NAG d1179      16.678  -7.345   6.451  0.00  0.00     0.043 C 
ATOM    107  O4  NAG d1179      15.884  -8.080   9.228  0.00  0.00    -0.390 OA
ATOM    108  O6  NAG d1179      17.591  -8.313   5.975  0.00  0.00    -0.398 OA
ATOM    109  C1  NAG d1179      13.679  -9.326   5.942  0.00  0.00     0.154 C 
ATOM    110  C5  NAG d1179      15.380  -8.016   6.867  0.00  0.00     0.089 C 
ATOM    111  O5  NAG d1179      14.963  -8.806   5.768  0.00  0.00    -0.349 OA
ATOM    112  C2  NAG d1179      13.728 -10.305   7.109  0.00  0.00     0.087 C 
ATOM    113  C8  NAG d1179      10.868 -12.724   7.433  0.00  0.00    -0.003 C 
ATOM    114  C7  NAG d1179      12.275 -12.230   7.441  0.00  0.00     0.214 C 
ATOM    115  C3  NAG d1179      14.246  -9.632   8.391  0.00  0.00     0.093 C 
ATOM    116  O3  NAG d1179      14.491 -10.612   9.388  0.00  0.00    -0.348 OA
ATOM    117  O7  NAG d1179      13.211 -13.005   7.609  0.00  0.00    -0.274 OA
ATOM    118  H   NAG d1179      16.330  -9.600   7.932  0.00  0.00     0.091 H 
ATOM    119  H   NAG d1179      11.621 -10.345   7.254  0.00  0.00     0.163 HD
ATOM    120  H   NAG d1179      17.103  -6.842   7.294  0.00  0.00     0.078 H 
ATOM    121  H   NAG d1179      16.475  -6.640   5.673  0.00  0.00     0.078 H 
ATOM    122  H   NAG d1179      15.176  -7.437   9.388  0.00  0.00     0.210 HD
ATOM    123  H   NAG d1179      17.778  -8.955   6.678  0.00  0.00     0.209 HD
ATOM    124  H   NAG d1179      13.002  -8.509   6.080  0.00  0.00     0.132 H 
ATOM    125  H   NAG d1179      14.656  -7.271   7.124  0.00  0.00     0.090 H 
ATOM    126  H   NAG d1179      14.432 -11.083   6.898  0.00  0.00     0.084 H 
ATOM    127  H   NAG d1179      10.202 -11.902   7.273  0.00  0.00     0.040 H 
ATOM    128  H   NAG d1179      10.647 -13.185   8.373  0.00  0.00     0.040 H 
ATOM    129  H   NAG d1179      10.746 -13.440   6.647  0.00  0.00     0.040 H 
ATOM    130  H   NAG d1179      13.504  -8.941   8.732  0.00  0.00     0.091 H 
ATOM    131  O5  BDP d1180      14.267  -9.377  11.322  0.00  0.00    -0.340 OA
ATOM    132  O6A BDP d1180      13.385  -6.997  13.509  0.00  0.00    -0.646 OA
ATOM    133  O2  BDP d1180      12.837 -12.638  10.634  0.00  0.00    -0.388 OA
ATOM    134  O3  BDP d1180      13.527 -12.753  13.492  0.00  0.00    -0.390 OA
ATOM    135  C5  BDP d1180      13.597  -9.148  12.543  0.00  0.00     0.152 C 
ATOM    136  C2  BDP d1180      13.674 -11.738  11.326  0.00  0.00     0.110 C 
ATOM    137  C3  BDP d1180      13.150 -11.605  12.753  0.00  0.00     0.092 C 
ATOM    138  C6  BDP d1180      14.186  -7.898  13.178  0.00  0.00     0.206 C 
ATOM    139  C1  BDP d1180      13.693 -10.413  10.564  0.00  0.00     0.160 C 
ATOM    140  C4  BDP d1180      13.729 -10.375  13.431  0.00  0.00     0.103 C 
ATOM    141  O6B BDP d1180      15.436  -7.840  13.311  0.00  0.00    -0.646 OA
ATOM    142  O4  BDP d1180      13.011 -10.160  14.616  0.00  0.00    -0.348 OA
ATOM    143  H   BDP d1180      13.152 -12.738   9.722  0.00  0.00     0.210 HD
ATOM    144  H   BDP d1180      13.163 -13.545  13.066  0.00  0.00     0.210 HD
ATOM    145  H   BDP d1180      12.551  -8.985  12.392  0.00  0.00     0.104 H 
ATOM    146  H   BDP d1180      14.686 -12.083  11.385  0.00  0.00     0.094 H 
ATOM    147  H   BDP d1180      12.085 -11.510  12.718  0.00  0.00     0.091 H 
ATOM    148  H   BDP d1180      12.688 -10.129  10.333  0.00  0.00     0.133 H 
ATOM    149  H   BDP d1180      14.769 -10.535  13.628  0.00  0.00     0.092 H 
ATOM    150  C3  BDP d1176       6.076 -13.236  -4.054  0.00  0.00     0.092 C 
ATOM    151  O4  BDP d1176       7.929 -12.823  -2.475  0.00  0.00    -0.348 OA
ATOM    152  O3  BDP d1176       5.496 -11.940  -3.960  0.00  0.00    -0.390 OA
ATOM    153  O5  BDP d1176       6.125 -15.971  -3.219  0.00  0.00    -0.340 OA
ATOM    154  O2  BDP d1176       4.479 -13.935  -5.715  0.00  0.00    -0.388 OA
ATOM    155  C1  BDP d1176       5.459 -15.693  -4.433  0.00  0.00     0.160 C 
ATOM    156  O6B BDP d1176       8.944 -16.004  -1.554  0.00  0.00    -0.646 OA
ATOM    157  C5  BDP d1176       7.216 -15.102  -2.899  0.00  0.00     0.152 C 
ATOM    158  O6A BDP d1176       6.946 -15.724  -0.610  0.00  0.00    -0.646 OA
ATOM    159  C6  BDP d1176       7.738 -15.637  -1.586  0.00  0.00     0.206 C 
ATOM    160  C4  BDP d1176       6.800 -13.636  -2.757  0.00  0.00     0.103 C 
ATOM    161  C2  BDP d1176       4.977 -14.241  -4.423  0.00  0.00     0.110 C 
ATOM    162  H   BDP d1176       6.824 -13.230  -4.819  0.00  0.00     0.091 H 
ATOM    163  H   BDP d1176       4.817 -11.939  -3.266  0.00  0.00     0.210 HD
ATOM    164  H   BDP d1176       4.168 -13.017  -5.732  0.00  0.00     0.210 HD
ATOM    165  H   BDP d1176       6.136 -15.865  -5.244  0.00  0.00     0.133 H 
ATOM    166  H   BDP d1176       7.946 -15.099  -3.682  0.00  0.00     0.104 H 
ATOM    167  H   BDP d1176       6.133 -13.495  -1.932  0.00  0.00     0.092 H 
ATOM    168  H   BDP d1176       4.222 -14.154  -3.671  0.00  0.00     0.094 H 
ENDROOT
TORSDOF 43
ENDMDL
MODEL 9
REMARK VINA RESULT:      -8.8      4.249     19.143
REMARK  0 active torsions:
REMARK  status: ('A' for Active; 'I' for Inactive)
REMARK       I    between atoms: C3_1  and  O3_90 
REMARK       I    between atoms: O1_4  and  C1_76 
REMARK       I    between atoms: C2_5  and  N2_21 
REMARK       I    between atoms: C8_6  and  C7_66 
REMARK       I    between atoms: C4_7  and  O4_24 
REMARK       I    between atoms: N2_9  and  C2_60 
REMARK       I    between atoms: N2_9  and  C7_69 
REMARK       I    between atoms: O4_12  and  C4_26 
REMARK       I    between atoms: O3_13  and  C3_65 
REMARK       I    between atoms: O3_13  and  C1_61 
REMARK       I    between atoms: C3_14  and  O3_35 
REMARK       I    between atoms: C6_15  and  C5_53 
REMARK       I    between atoms: C6_15  and  O6_46 
REMARK       I    between atoms: O6_16  and  C6_54 
REMARK       I    between atoms: C4_17  and  O4_49 
REMARK       I    between atoms: O4_18  and  C4_28 
REMARK       I    between atoms: O4_18  and  C1_47 
REMARK       I    between atoms: C3_19  and  O3_43 
REMARK       I    between atoms: C1_20  and  O4_91 
REMARK       I    between atoms: N2_21  and  C7_66 
REMARK       I    between atoms: O3_22  and  C3_82 
REMARK       I    between atoms: C7_23  and  C8_62 
REMARK       I    between atoms: C7_23  and  N2_51 
REMARK       I    between atoms: C2_25  and  N2_41 
REMARK       I    between atoms: C1_27  and  O3_90 
REMARK       I    between atoms: O6_29  and  C6_74 
REMARK       I    between atoms: O2_30  and  C2_37 
REMARK       I    between atoms: C2_31  and  O2_42 
REMARK       I    between atoms: O3_32  and  C3_45 
REMARK       I    between atoms: O4_33  and  C4_73 
REMARK       I    between atoms: O4_34  and  C4_84 
REMARK       I    between atoms: O4_34  and  C1_85 
REMARK       I    between atoms: C5_36  and  C6_48 
REMARK       I    between atoms: C6_38  and  C5_40 
REMARK       I    between atoms: C6_38  and  O6_89 
REMARK       I    between atoms: N2_41  and  C7_50 
REMARK       I    between atoms: C5_44  and  C6_74 
REMARK       I    between atoms: C7_50  and  C8_75 
REMARK       I    between atoms: N2_51  and  C2_58 
REMARK       I    between atoms: C1_52  and  O3_87 
REMARK       I    between atoms: C6_54  and  C5_86 
REMARK       I    between atoms: O2_59  and  C2_93 
REMARK       I    between atoms: C8_64  and  C7_69 
REMARK       I    between atoms: C6_70  and  C5_80 
REMARK       I    between atoms: C4_72  and  O4_91 
REMARK       I    between atoms: C5_77  and  C6_79 
REMARK       I    between atoms: C3_83  and  O3_87 
ROOT
ATOM      1  C3  NAG d1177      14.000  -8.178   0.854  0.00  0.00     0.093 C 
ATOM      2  O7  NAG d1177      17.113 -10.443   0.388  0.00  0.00    -0.274 OA
ATOM      3  C4  NAG d1177      13.525  -6.900   0.140  0.00  0.00     0.089 C 
ATOM      4  C2  NAG d1177      14.560  -9.170  -0.153  0.00  0.00     0.087 C 
ATOM      5  C6  NAG d1177      12.240  -5.987  -1.866  0.00  0.00     0.043 C 
ATOM      6  C5  NAG d1177      12.632  -7.227  -1.047  0.00  0.00     0.089 C 
ATOM      7  N2  NAG d1177      14.804 -10.493   0.451  0.00  0.00    -0.349 N 
ATOM      8  O4  NAG d1177      12.827  -6.059   1.038  0.00  0.00    -0.390 OA
ATOM      9  C7  NAG d1177      16.013 -11.010   0.683  0.00  0.00     0.214 C 
ATOM     10  O5  NAG d1177      13.294  -8.139  -1.915  0.00  0.00    -0.349 OA
ATOM     11  C8  NAG d1177      15.937 -12.388   1.287  0.00  0.00    -0.003 C 
ATOM     12  C1  NAG d1177      13.585  -9.377  -1.311  0.00  0.00     0.154 C 
ATOM     13  O6  NAG d1177      13.382  -5.376  -2.440  0.00  0.00    -0.398 OA
ATOM     14  O3  NAG d1177      15.042  -7.862   1.736  0.00  0.00    -0.348 OA
ATOM     15  H   NAG d1177      13.164  -8.598   1.372  0.00  0.00     0.091 H 
ATOM     16  H   NAG d1177      14.395  -6.392  -0.219  0.00  0.00     0.091 H 
ATOM     17  H   NAG d1177      15.483  -8.752  -0.497  0.00  0.00     0.084 H 
ATOM     18  H   NAG d1177      11.752  -5.284  -1.224  0.00  0.00     0.078 H 
ATOM     19  H   NAG d1177      11.584  -6.292  -2.654  0.00  0.00     0.078 H 
ATOM     20  H   NAG d1177      11.739  -7.654  -0.641  0.00  0.00     0.090 H 
ATOM     21  H   NAG d1177      14.019 -11.033   0.701  0.00  0.00     0.163 HD
ATOM     22  H   NAG d1177      12.037  -6.519   1.364  0.00  0.00     0.210 HD
ATOM     23  H   NAG d1177      16.927 -12.759   1.454  0.00  0.00     0.040 H 
ATOM     24  H   NAG d1177      15.419 -13.043   0.617  0.00  0.00     0.040 H 
ATOM     25  H   NAG d1177      15.411 -12.342   2.218  0.00  0.00     0.040 H 
ATOM     26  H   NAG d1177      12.669  -9.793  -0.946  0.00  0.00     0.132 H 
ATOM     27  H   NAG d1177      13.986  -5.093  -1.736  0.00  0.00     0.209 HD
ATOM     28  O6A BDP d1178      12.228  -5.954   5.105  0.00  0.00    -0.646 OA
ATOM     29  O4  BDP d1178      14.364  -8.733   7.066  0.00  0.00    -0.348 OA
ATOM     30  O3  BDP d1178      16.969  -8.228   6.038  0.00  0.00    -0.390 OA
ATOM     31  C1  BDP d1178      14.787  -8.311   3.075  0.00  0.00     0.160 C 
ATOM     32  C4  BDP d1178      14.605  -7.987   5.896  0.00  0.00     0.103 C 
ATOM     33  C2  BDP d1178      16.058  -8.086   3.866  0.00  0.00     0.110 C 
ATOM     34  O2  BDP d1178      17.134  -8.762   3.269  0.00  0.00    -0.388 OA
ATOM     35  O6B BDP d1178      11.448  -7.640   6.341  0.00  0.00    -0.646 OA
ATOM     36  O5  BDP d1178      13.738  -7.582   3.686  0.00  0.00    -0.340 OA
ATOM     37  C6  BDP d1178      12.268  -7.147   5.518  0.00  0.00     0.206 C 
ATOM     38  C5  BDP d1178      13.394  -8.039   4.978  0.00  0.00     0.152 C 
ATOM     39  C3  BDP d1178      15.856  -8.621   5.256  0.00  0.00     0.092 C 
ATOM     40  H   BDP d1178      16.863  -8.562   6.943  0.00  0.00     0.210 HD
ATOM     41  H   BDP d1178      14.495  -9.340   3.053  0.00  0.00     0.133 H 
ATOM     42  H   BDP d1178      14.771  -6.949   6.097  0.00  0.00     0.092 H 
ATOM     43  H   BDP d1178      16.279  -7.040   3.891  0.00  0.00     0.094 H 
ATOM     44  H   BDP d1178      16.944  -9.713   3.241  0.00  0.00     0.210 HD
ATOM     45  H   BDP d1178      13.063  -9.055   4.934  0.00  0.00     0.104 H 
ATOM     46  H   BDP d1178      15.745  -9.685   5.212  0.00  0.00     0.091 H 
ATOM     47  O1  NAG d1175      11.338 -16.157 -10.135  0.00  0.00    -0.369 OA
ATOM     48  O3  NAG d1175      12.068 -13.282  -6.511  0.00  0.00    -0.348 OA
ATOM     49  O6  NAG d1175      11.822 -19.405  -6.349  0.00  0.00    -0.398 OA
ATOM     50  C7  NAG d1175      11.540 -12.453  -9.434  0.00  0.00     0.214 C 
ATOM     51  O4  NAG d1175      12.602 -15.698  -4.824  0.00  0.00    -0.390 OA
ATOM     52  N2  NAG d1175      12.050 -13.686  -9.321  0.00  0.00    -0.349 N 
ATOM     53  C6  NAG d1175      11.403 -18.150  -5.888  0.00  0.00     0.043 C 
ATOM     54  C2  NAG d1175      11.657 -14.690  -8.321  0.00  0.00     0.087 C 
ATOM     55  C8  NAG d1175      10.209 -12.163  -8.819  0.00  0.00    -0.003 C 
ATOM     56  O7  NAG d1175      12.144 -11.550 -10.035  0.00  0.00    -0.274 OA
ATOM     57  C3  NAG d1175      12.403 -14.565  -7.001  0.00  0.00     0.093 C 
ATOM     58  C4  NAG d1175      11.927 -15.700  -6.083  0.00  0.00     0.089 C 
ATOM     59  C1  NAG d1175      11.947 -16.077  -8.877  0.00  0.00     0.151 C 
ATOM     60  C5  NAG d1175      12.031 -17.072  -6.758  0.00  0.00     0.089 C 
ATOM     61  O5  NAG d1175      11.407 -17.080  -8.028  0.00  0.00    -0.349 OA
ATOM     62  H   NAG d1175      11.706 -15.473 -10.716  0.00  0.00     0.212 HD
ATOM     63  H   NAG d1175      11.427 -20.100  -5.801  0.00  0.00     0.209 HD
ATOM     64  H   NAG d1175      12.523 -14.821  -4.416  0.00  0.00     0.210 HD
ATOM     65  H   NAG d1175      12.749 -13.942  -9.964  0.00  0.00     0.163 HD
ATOM     66  H   NAG d1175      11.713 -18.018  -4.872  0.00  0.00     0.078 H 
ATOM     67  H   NAG d1175      10.336 -18.081  -5.938  0.00  0.00     0.078 H 
ATOM     68  H   NAG d1175      10.617 -14.530  -8.125  0.00  0.00     0.084 H 
ATOM     69  H   NAG d1175       9.834 -13.046  -8.346  0.00  0.00     0.040 H 
ATOM     70  H   NAG d1175       9.525 -11.849  -9.581  0.00  0.00     0.040 H 
ATOM     71  H   NAG d1175      10.314 -11.385  -8.092  0.00  0.00     0.040 H 
ATOM     72  H   NAG d1175      13.466 -14.654  -7.081  0.00  0.00     0.091 H 
ATOM     73  H   NAG d1175      10.892 -15.511  -5.890  0.00  0.00     0.091 H 
ATOM     74  H   NAG d1175      13.003 -16.232  -8.945  0.00  0.00     0.132 H 
ATOM     75  H   NAG d1175      13.073 -17.277  -6.889  0.00  0.00     0.090 H 
ATOM     76  C2  NAG d1181       6.855  -8.604  16.575  0.00  0.00     0.087 C 
ATOM     77  C8  NAG d1181       4.755  -6.875  15.458  0.00  0.00    -0.003 C 
ATOM     78  O5  NAG d1181       8.170 -10.656  16.320  0.00  0.00    -0.349 OA
ATOM     79  O4  NAG d1181       5.897 -11.026  19.188  0.00  0.00    -0.390 OA
ATOM     80  C3  NAG d1181       6.489  -9.029  17.987  0.00  0.00     0.086 C 
ATOM     81  C1  NAG d1181       8.164  -9.250  16.115  0.00  0.00     0.154 C 
ATOM     82  N2  NAG d1181       6.958  -7.158  16.477  0.00  0.00    -0.349 N 
ATOM     83  C4  NAG d1181       6.398 -10.550  17.958  0.00  0.00     0.089 C 
ATOM     84  O6  NAG d1181       7.735 -13.269  16.577  0.00  0.00    -0.398 OA
ATOM     85  O3  NAG d1181       5.283  -8.425  18.424  0.00  0.00    -0.391 OA
ATOM     86  C5  NAG d1181       7.808 -11.073  17.634  0.00  0.00     0.089 C 
ATOM     87  O7  NAG d1181       6.566  -5.393  15.131  0.00  0.00    -0.274 OA
ATOM     88  C7  NAG d1181       6.171  -6.422  15.677  0.00  0.00     0.214 C 
ATOM     89  C6  NAG d1181       7.978 -12.591  17.793  0.00  0.00     0.043 C 
ATOM     90  H   NAG d1181       6.070  -8.940  15.930  0.00  0.00     0.084 H 
ATOM     91  H   NAG d1181       4.582  -7.780  16.002  0.00  0.00     0.040 H 
ATOM     92  H   NAG d1181       4.594  -7.051  14.414  0.00  0.00     0.040 H 
ATOM     93  H   NAG d1181       4.081  -6.118  15.800  0.00  0.00     0.040 H 
ATOM     94  H   NAG d1181       5.009 -10.664  19.338  0.00  0.00     0.210 HD
ATOM     95  H   NAG d1181       7.226  -8.708  18.692  0.00  0.00     0.090 H 
ATOM     96  H   NAG d1181       9.004  -8.897  16.675  0.00  0.00     0.132 H 
ATOM     97  H   NAG d1181       7.636  -6.697  17.023  0.00  0.00     0.163 HD
ATOM     98  H   NAG d1181       5.717 -10.903  17.212  0.00  0.00     0.091 H 
ATOM     99  H   NAG d1181       7.850 -14.223  16.710  0.00  0.00     0.209 HD
ATOM    100  H   NAG d1181       4.562  -8.674  17.826  0.00  0.00     0.210 HD
ATOM    101  H   NAG d1181       8.469 -10.648  18.360  0.00  0.00     0.090 H 
ATOM    102  H   NAG d1181       8.978 -12.798  18.112  0.00  0.00     0.078 H 
ATOM    103  H   NAG d1181       7.268 -12.934  18.516  0.00  0.00     0.078 H 
ATOM    104  C4  NAG d1179      14.319  -7.966  11.160  0.00  0.00     0.089 C 
ATOM    105  N2  NAG d1179      12.096  -9.402   8.409  0.00  0.00    -0.349 N 
ATOM    106  C6  NAG d1179      16.401  -6.606  10.688  0.00  0.00     0.043 C 
ATOM    107  O4  NAG d1179      14.015  -7.250  12.353  0.00  0.00    -0.390 OA
ATOM    108  O6  NAG d1179      17.286  -7.707  10.727  0.00  0.00    -0.398 OA
ATOM    109  C1  NAG d1179      14.088  -8.025   8.278  0.00  0.00     0.154 C 
ATOM    110  C5  NAG d1179      15.041  -7.050  10.176  0.00  0.00     0.089 C 
ATOM    111  O5  NAG d1179      15.272  -7.732   8.956  0.00  0.00    -0.349 OA
ATOM    112  C2  NAG d1179      13.303  -9.023   9.122  0.00  0.00     0.087 C 
ATOM    113  C8  NAG d1179      10.544 -10.915   7.407  0.00  0.00    -0.003 C 
ATOM    114  C7  NAG d1179      11.713 -10.672   8.301  0.00  0.00     0.214 C 
ATOM    115  C3  NAG d1179      13.027  -8.476  10.533  0.00  0.00     0.093 C 
ATOM    116  O3  NAG d1179      12.499  -9.505  11.357  0.00  0.00    -0.348 OA
ATOM    117  O7  NAG d1179      12.254 -11.601   8.892  0.00  0.00    -0.274 OA
ATOM    118  H   NAG d1179      14.953  -8.796  11.395  0.00  0.00     0.091 H 
ATOM    119  H   NAG d1179      11.546  -8.699   7.994  0.00  0.00     0.163 HD
ATOM    120  H   NAG d1179      16.294  -6.201  11.673  0.00  0.00     0.078 H 
ATOM    121  H   NAG d1179      16.797  -5.860  10.031  0.00  0.00     0.078 H 
ATOM    122  H   NAG d1179      13.441  -6.498  12.142  0.00  0.00     0.210 HD
ATOM    123  H   NAG d1179      16.931  -8.386  11.322  0.00  0.00     0.209 HD
ATOM    124  H   NAG d1179      13.573  -7.106   8.089  0.00  0.00     0.132 H 
ATOM    125  H   NAG d1179      14.409  -6.196  10.046  0.00  0.00     0.090 H 
ATOM    126  H   NAG d1179      13.887  -9.906   9.274  0.00  0.00     0.084 H 
ATOM    127  H   NAG d1179      10.216  -9.987   6.987  0.00  0.00     0.040 H 
ATOM    128  H   NAG d1179       9.747 -11.351   7.974  0.00  0.00     0.040 H 
ATOM    129  H   NAG d1179      10.828 -11.582   6.621  0.00  0.00     0.040 H 
ATOM    130  H   NAG d1179      12.324  -7.674  10.453  0.00  0.00     0.091 H 
ATOM    131  O5  BDP d1180      11.317  -8.290  12.920  0.00  0.00    -0.340 OA
ATOM    132  O6A BDP d1180       9.609  -5.841  14.437  0.00  0.00    -0.646 OA
ATOM    133  O2  BDP d1180      10.189 -11.240  11.135  0.00  0.00    -0.388 OA
ATOM    134  O3  BDP d1180       9.005 -11.533  13.813  0.00  0.00    -0.390 OA
ATOM    135  C5  BDP d1180      10.085  -7.975  13.530  0.00  0.00     0.152 C 
ATOM    136  C2  BDP d1180      10.549 -10.512  12.290  0.00  0.00     0.110 C 
ATOM    137  C3  BDP d1180       9.295 -10.321  13.139  0.00  0.00     0.092 C 
ATOM    138  C6  BDP d1180      10.327  -6.859  14.536  0.00  0.00     0.206 C 
ATOM    139  C1  BDP d1180      11.188  -9.195  11.851  0.00  0.00     0.160 C 
ATOM    140  C4  BDP d1180       9.501  -9.224  14.170  0.00  0.00     0.103 C 
ATOM    141  O6B BDP d1180      11.242  -7.021  15.384  0.00  0.00    -0.646 OA
ATOM    142  O4  BDP d1180       8.250  -8.913  14.721  0.00  0.00    -0.348 OA
ATOM    143  H   BDP d1180      10.972 -11.373  10.579  0.00  0.00     0.210 HD
ATOM    144  H   BDP d1180       8.872 -12.240  13.162  0.00  0.00     0.210 HD
ATOM    145  H   BDP d1180       9.369  -7.630  12.813  0.00  0.00     0.104 H 
ATOM    146  H   BDP d1180      11.269 -11.029  12.890  0.00  0.00     0.094 H 
ATOM    147  H   BDP d1180       8.487 -10.042  12.496  0.00  0.00     0.091 H 
ATOM    148  H   BDP d1180      10.569  -8.736  11.109  0.00  0.00     0.133 H 
ATOM    149  H   BDP d1180      10.184  -9.566  14.920  0.00  0.00     0.092 H 
ATOM    150  C3  BDP d1176      13.585 -10.346  -4.659  0.00  0.00     0.092 C 
ATOM    151  O4  BDP d1176      14.154 -10.294  -2.257  0.00  0.00    -0.348 OA
ATOM    152  O3  BDP d1176      13.234  -8.972  -4.769  0.00  0.00    -0.390 OA
ATOM    153  O5  BDP d1176      12.778 -13.066  -4.293  0.00  0.00    -0.340 OA
ATOM    154  O2  BDP d1176      13.232 -10.723  -7.011  0.00  0.00    -0.388 OA
ATOM    155  C1  BDP d1176      13.016 -12.651  -5.622  0.00  0.00     0.160 C 
ATOM    156  O6B BDP d1176      14.001 -13.622  -1.307  0.00  0.00    -0.646 OA
ATOM    157  C5  BDP d1176      13.558 -12.406  -3.291  0.00  0.00     0.152 C 
ATOM    158  O6A BDP d1176      11.893 -13.019  -1.694  0.00  0.00    -0.646 OA
ATOM    159  C6  BDP d1176      13.115 -13.051  -1.998  0.00  0.00     0.206 C 
ATOM    160  C4  BDP d1176      13.329 -10.893  -3.244  0.00  0.00     0.103 C 
ATOM    161  C2  BDP d1176      12.813 -11.138  -5.722  0.00  0.00     0.110 C 
ATOM    162  H   BDP d1176      14.636 -10.455  -4.831  0.00  0.00     0.091 H 
ATOM    163  H   BDP d1176      12.282  -8.868  -4.613  0.00  0.00     0.210 HD
ATOM    164  H   BDP d1176      13.113  -9.765  -7.097  0.00  0.00     0.210 HD
ATOM    165  H   BDP d1176      14.015 -12.921  -5.893  0.00  0.00     0.133 H 
ATOM    166  H   BDP d1176      14.604 -12.513  -3.487  0.00  0.00     0.104 H 
ATOM    167  H   BDP d1176      12.325 -10.657  -2.960  0.00  0.00     0.092 H 
ATOM    168  H   BDP d1176      11.775 -10.937  -5.554  0.00  0.00     0.094 H 
ENDROOT
TORSDOF 43
ENDMDL
MODEL 10
REMARK VINA RESULT:      -8.3      3.065      3.764
REMARK  0 active torsions:
REMARK  status: ('A' for Active; 'I' for Inactive)
REMARK       I    between atoms: C3_1  and  O3_90 
REMARK       I    between atoms: O1_4  and  C1_76 
REMARK       I    between atoms: C2_5  and  N2_21 
REMARK       I    between atoms: C8_6  and  C7_66 
REMARK       I    between atoms: C4_7  and  O4_24 
REMARK       I    between atoms: N2_9  and  C2_60 
REMARK       I    between atoms: N2_9  and  C7_69 
REMARK       I    between atoms: O4_12  and  C4_26 
REMARK       I    between atoms: O3_13  and  C3_65 
REMARK       I    between atoms: O3_13  and  C1_61 
REMARK       I    between atoms: C3_14  and  O3_35 
REMARK       I    between atoms: C6_15  and  C5_53 
REMARK       I    between atoms: C6_15  and  O6_46 
REMARK       I    between atoms: O6_16  and  C6_54 
REMARK       I    between atoms: C4_17  and  O4_49 
REMARK       I    between atoms: O4_18  and  C4_28 
REMARK       I    between atoms: O4_18  and  C1_47 
REMARK       I    between atoms: C3_19  and  O3_43 
REMARK       I    between atoms: C1_20  and  O4_91 
REMARK       I    between atoms: N2_21  and  C7_66 
REMARK       I    between atoms: O3_22  and  C3_82 
REMARK       I    between atoms: C7_23  and  C8_62 
REMARK       I    between atoms: C7_23  and  N2_51 
REMARK       I    between atoms: C2_25  and  N2_41 
REMARK       I    between atoms: C1_27  and  O3_90 
REMARK       I    between atoms: O6_29  and  C6_74 
REMARK       I    between atoms: O2_30  and  C2_37 
REMARK       I    between atoms: C2_31  and  O2_42 
REMARK       I    between atoms: O3_32  and  C3_45 
REMARK       I    between atoms: O4_33  and  C4_73 
REMARK       I    between atoms: O4_34  and  C4_84 
REMARK       I    between atoms: O4_34  and  C1_85 
REMARK       I    between atoms: C5_36  and  C6_48 
REMARK       I    between atoms: C6_38  and  C5_40 
REMARK       I    between atoms: C6_38  and  O6_89 
REMARK       I    between atoms: N2_41  and  C7_50 
REMARK       I    between atoms: C5_44  and  C6_74 
REMARK       I    between atoms: C7_50  and  C8_75 
REMARK       I    between atoms: N2_51  and  C2_58 
REMARK       I    between atoms: C1_52  and  O3_87 
REMARK       I    between atoms: C6_54  and  C5_86 
REMARK       I    between atoms: O2_59  and  C2_93 
REMARK       I    between atoms: C8_64  and  C7_69 
REMARK       I    between atoms: C6_70  and  C5_80 
REMARK       I    between atoms: C4_72  and  O4_91 
REMARK       I    between atoms: C5_77  and  C6_79 
REMARK       I    between atoms: C3_83  and  O3_87 
ROOT
ATOM      1  C3  NAG d1177      12.354 -12.322   8.977  0.00  0.00     0.093 C 
ATOM      2  O7  NAG d1177      11.275  -8.621   9.402  0.00  0.00    -0.274 OA
ATOM      3  C4  NAG d1177      13.545 -13.129   9.522  0.00  0.00     0.089 C 
ATOM      4  C2  NAG d1177      11.801 -11.402  10.054  0.00  0.00     0.087 C 
ATOM      5  C6  NAG d1177      14.415 -14.489  11.497  0.00  0.00     0.043 C 
ATOM      6  C5  NAG d1177      13.212 -13.780  10.855  0.00  0.00     0.089 C 
ATOM      7  N2  NAG d1177      10.520 -10.791   9.655  0.00  0.00    -0.349 N 
ATOM      8  O4  NAG d1177      13.937 -14.123   8.596  0.00  0.00    -0.390 OA
ATOM      9  C7  NAG d1177      10.356  -9.500   9.355  0.00  0.00     0.214 C 
ATOM     10  O5  NAG d1177      12.737 -12.799  11.769  0.00  0.00    -0.349 OA
ATOM     11  C8  NAG d1177       8.926  -9.173   9.008  0.00  0.00    -0.003 C 
ATOM     12  C1  NAG d1177      11.548 -12.171  11.349  0.00  0.00     0.154 C 
ATOM     13  O6  NAG d1177      15.445 -13.565  11.804  0.00  0.00    -0.398 OA
ATOM     14  O3  NAG d1177      12.784 -11.504   7.924  0.00  0.00    -0.348 OA
ATOM     15  H   NAG d1177      11.605 -13.015   8.654  0.00  0.00     0.091 H 
ATOM     16  H   NAG d1177      14.354 -12.444   9.671  0.00  0.00     0.091 H 
ATOM     17  H   NAG d1177      12.538 -10.639  10.197  0.00  0.00     0.084 H 
ATOM     18  H   NAG d1177      14.794 -15.222  10.816  0.00  0.00     0.078 H 
ATOM     19  H   NAG d1177      14.092 -14.953  12.405  0.00  0.00     0.078 H 
ATOM     20  H   NAG d1177      12.463 -14.516  10.649  0.00  0.00     0.090 H 
ATOM     21  H   NAG d1177       9.729 -11.376   9.606  0.00  0.00     0.163 HD
ATOM     22  H   NAG d1177      13.206 -14.745   8.459  0.00  0.00     0.210 HD
ATOM     23  H   NAG d1177       8.845  -8.132   8.776  0.00  0.00     0.040 H 
ATOM     24  H   NAG d1177       8.295  -9.403   9.841  0.00  0.00     0.040 H 
ATOM     25  H   NAG d1177       8.623  -9.753   8.161  0.00  0.00     0.040 H 
ATOM     26  H   NAG d1177      10.812 -12.929  11.185  0.00  0.00     0.132 H 
ATOM     27  H   NAG d1177      15.748 -13.136  10.988  0.00  0.00     0.209 HD
ATOM     28  O6A BDP d1178      13.034 -15.020   4.686  0.00  0.00    -0.646 OA
ATOM     29  O4  BDP d1178      10.691 -12.253   2.956  0.00  0.00    -0.348 OA
ATOM     30  O3  BDP d1178      12.154  -9.880   3.529  0.00  0.00    -0.390 OA
ATOM     31  C1  BDP d1178      12.018 -11.698   6.726  0.00  0.00     0.160 C 
ATOM     32  C4  BDP d1178      11.695 -12.179   3.940  0.00  0.00     0.103 C 
ATOM     33  C2  BDP d1178      12.450 -10.627   5.747  0.00  0.00     0.110 C 
ATOM     34  O2  BDP d1178      12.265  -9.351   6.301  0.00  0.00    -0.388 OA
ATOM     35  O6B BDP d1178      10.978 -15.304   3.867  0.00  0.00    -0.646 OA
ATOM     36  O5  BDP d1178      12.258 -12.967   6.146  0.00  0.00    -0.340 OA
ATOM     37  C6  BDP d1178      11.851 -14.628   4.478  0.00  0.00     0.206 C 
ATOM     38  C5  BDP d1178      11.468 -13.239   5.006  0.00  0.00     0.152 C 
ATOM     39  C3  BDP d1178      11.611 -10.748   4.507  0.00  0.00     0.092 C 
ATOM     40  H   BDP d1178      11.628  -9.939   2.715  0.00  0.00     0.210 HD
ATOM     41  H   BDP d1178      10.976 -11.642   6.960  0.00  0.00     0.133 H 
ATOM     42  H   BDP d1178      12.672 -12.370   3.547  0.00  0.00     0.092 H 
ATOM     43  H   BDP d1178      13.487 -10.757   5.516  0.00  0.00     0.094 H 
ATOM     44  H   BDP d1178      11.327  -9.223   6.515  0.00  0.00     0.210 HD
ATOM     45  H   BDP d1178      10.430 -13.223   5.265  0.00  0.00     0.104 H 
ATOM     46  H   BDP d1178      10.595 -10.509   4.743  0.00  0.00     0.091 H 
ATOM     47  O1  NAG d1175       6.336 -11.473  21.410  0.00  0.00    -0.369 OA
ATOM     48  O3  NAG d1175       8.503 -11.971  17.289  0.00  0.00    -0.348 OA
ATOM     49  O6  NAG d1175       2.690 -10.250  18.197  0.00  0.00    -0.398 OA
ATOM     50  C7  NAG d1175       9.708 -12.523  20.073  0.00  0.00     0.214 C 
ATOM     51  O4  NAG d1175       6.072 -10.815  15.978  0.00  0.00    -0.390 OA
ATOM     52  N2  NAG d1175       8.689 -11.654  20.104  0.00  0.00    -0.349 N 
ATOM     53  C6  NAG d1175       3.641 -11.083  17.590  0.00  0.00     0.043 C 
ATOM     54  C2  NAG d1175       7.432 -11.776  19.348  0.00  0.00     0.087 C 
ATOM     55  C8  NAG d1175       9.453 -13.918  19.601  0.00  0.00    -0.003 C 
ATOM     56  O7  NAG d1175      10.852 -12.198  20.428  0.00  0.00    -0.274 OA
ATOM     57  C3  NAG d1175       7.507 -11.207  17.940  0.00  0.00     0.093 C 
ATOM     58  C4  NAG d1175       6.121 -11.359  17.297  0.00  0.00     0.089 C 
ATOM     59  C1  NAG d1175       6.340 -11.016  20.087  0.00  0.00     0.151 C 
ATOM     60  C5  NAG d1175       5.010 -10.771  18.175  0.00  0.00     0.089 C 
ATOM     61  O5  NAG d1175       5.071 -11.266  19.500  0.00  0.00    -0.349 OA
ATOM     62  H   NAG d1175       7.202 -11.303  21.814  0.00  0.00     0.212 HD
ATOM     63  H   NAG d1175       1.813 -10.440  17.831  0.00  0.00     0.209 HD
ATOM     64  H   NAG d1175       6.783 -11.201  15.442  0.00  0.00     0.210 HD
ATOM     65  H   NAG d1175       8.790 -10.865  20.683  0.00  0.00     0.163 HD
ATOM     66  H   NAG d1175       3.651 -10.906  16.535  0.00  0.00     0.078 H 
ATOM     67  H   NAG d1175       3.393 -12.109  17.769  0.00  0.00     0.078 H 
ATOM     68  H   NAG d1175       7.229 -12.823  19.268  0.00  0.00     0.084 H 
ATOM     69  H   NAG d1175       8.421 -14.023  19.338  0.00  0.00     0.040 H 
ATOM     70  H   NAG d1175       9.693 -14.609  20.382  0.00  0.00     0.040 H 
ATOM     71  H   NAG d1175      10.062 -14.122  18.745  0.00  0.00     0.040 H 
ATOM     72  H   NAG d1175       7.761 -10.169  17.891  0.00  0.00     0.091 H 
ATOM     73  H   NAG d1175       5.946 -12.412  17.215  0.00  0.00     0.091 H 
ATOM     74  H   NAG d1175       6.527  -9.964  20.039  0.00  0.00     0.132 H 
ATOM     75  H   NAG d1175       5.159  -9.713  18.199  0.00  0.00     0.090 H 
ATOM     76  C2  NAG d1181       6.629 -20.078  -5.356  0.00  0.00     0.087 C 
ATOM     77  C8  NAG d1181       7.833 -22.534  -4.278  0.00  0.00    -0.003 C 
ATOM     78  O5  NAG d1181       5.164 -18.159  -4.935  0.00  0.00    -0.349 OA
ATOM     79  O4  NAG d1181       3.555 -20.396  -7.373  0.00  0.00    -0.390 OA
ATOM     80  C3  NAG d1181       5.837 -20.390  -6.615  0.00  0.00     0.086 C 
ATOM     81  C1  NAG d1181       6.514 -18.601  -4.972  0.00  0.00     0.154 C 
ATOM     82  N2  NAG d1181       8.027 -20.438  -5.518  0.00  0.00    -0.349 N 
ATOM     83  C4  NAG d1181       4.398 -19.986  -6.318  0.00  0.00     0.089 C 
ATOM     84  O6  NAG d1181       2.546 -17.750  -4.688  0.00  0.00    -0.398 OA
ATOM     85  O3  NAG d1181       5.949 -21.755  -6.984  0.00  0.00    -0.391 OA
ATOM     86  C5  NAG d1181       4.401 -18.462  -6.100  0.00  0.00     0.089 C 
ATOM     87  O7  NAG d1181       9.826 -21.277  -4.449  0.00  0.00    -0.274 OA
ATOM     88  C7  NAG d1181       8.638 -21.359  -4.757  0.00  0.00     0.214 C 
ATOM     89  C6  NAG d1181       3.005 -17.827  -6.022  0.00  0.00     0.043 C 
ATOM     90  H   NAG d1181       6.210 -20.665  -4.566  0.00  0.00     0.084 H 
ATOM     91  H   NAG d1181       6.828 -22.447  -4.634  0.00  0.00     0.040 H 
ATOM     92  H   NAG d1181       7.832 -22.554  -3.208  0.00  0.00     0.040 H 
ATOM     93  H   NAG d1181       8.266 -23.438  -4.651  0.00  0.00     0.040 H 
ATOM     94  H   NAG d1181       3.595 -21.361  -7.462  0.00  0.00     0.210 HD
ATOM     95  H   NAG d1181       6.216 -19.848  -7.456  0.00  0.00     0.090 H 
ATOM     96  H   NAG d1181       6.983 -17.962  -5.690  0.00  0.00     0.132 H 
ATOM     97  H   NAG d1181       8.551 -19.985  -6.219  0.00  0.00     0.163 HD
ATOM     98  H   NAG d1181       4.015 -20.462  -5.440  0.00  0.00     0.091 H 
ATOM     99  H   NAG d1181       1.665 -17.345  -4.672  0.00  0.00     0.209 HD
ATOM    100  H   NAG d1181       5.621 -22.313  -6.262  0.00  0.00     0.210 HD
ATOM    101  H   NAG d1181       4.849 -18.028  -6.969  0.00  0.00     0.090 H 
ATOM    102  H   NAG d1181       3.049 -16.840  -6.432  0.00  0.00     0.078 H 
ATOM    103  H   NAG d1181       2.326 -18.440  -6.576  0.00  0.00     0.078 H 
ATOM    104  C4  NAG d1179      10.565 -12.840  -1.166  0.00  0.00     0.089 C 
ATOM    105  N2  NAG d1179       9.114 -14.278   2.058  0.00  0.00    -0.349 N 
ATOM    106  C6  NAG d1179      12.555 -11.276  -1.211  0.00  0.00     0.043 C 
ATOM    107  O4  NAG d1179      10.900 -13.443  -2.412  0.00  0.00    -0.390 OA
ATOM    108  O6  NAG d1179      11.788 -10.090  -1.182  0.00  0.00    -0.398 OA
ATOM    109  C1  NAG d1179      11.023 -12.829   1.689  0.00  0.00     0.154 C 
ATOM    110  C5  NAG d1179      11.835 -12.380  -0.456  0.00  0.00     0.089 C 
ATOM    111  O5  NAG d1179      11.515 -11.855   0.820  0.00  0.00    -0.349 OA
ATOM    112  C2  NAG d1179       9.686 -13.312   1.137  0.00  0.00     0.087 C 
ATOM    113  C8  NAG d1179       7.438 -15.185   3.498  0.00  0.00    -0.003 C 
ATOM    114  C7  NAG d1179       7.836 -14.224   2.429  0.00  0.00     0.214 C 
ATOM    115  C3  NAG d1179       9.828 -13.850  -0.296  0.00  0.00     0.093 C 
ATOM    116  O3  NAG d1179       8.543 -14.079  -0.857  0.00  0.00    -0.348 OA
ATOM    117  O7  NAG d1179       7.013 -13.458   1.937  0.00  0.00    -0.274 OA
ATOM    118  H   NAG d1179       9.935 -11.992  -1.340  0.00  0.00     0.091 H 
ATOM    119  H   NAG d1179       9.687 -14.993   2.418  0.00  0.00     0.163 HD
ATOM    120  H   NAG d1179      12.701 -11.578  -2.227  0.00  0.00     0.078 H 
ATOM    121  H   NAG d1179      13.502 -11.094  -0.748  0.00  0.00     0.078 H 
ATOM    122  H   NAG d1179      11.471 -14.212  -2.256  0.00  0.00     0.210 HD
ATOM    123  H   NAG d1179      10.928 -10.250  -1.601  0.00  0.00     0.209 HD
ATOM    124  H   NAG d1179      11.762 -13.597   1.786  0.00  0.00     0.132 H 
ATOM    125  H   NAG d1179      12.467 -13.241  -0.389  0.00  0.00     0.090 H 
ATOM    126  H   NAG d1179       9.008 -12.487   1.061  0.00  0.00     0.084 H 
ATOM    127  H   NAG d1179       8.289 -15.761   3.795  0.00  0.00     0.040 H 
ATOM    128  H   NAG d1179       6.678 -15.839   3.124  0.00  0.00     0.040 H 
ATOM    129  H   NAG d1179       7.061 -14.645   4.341  0.00  0.00     0.040 H 
ATOM    130  H   NAG d1179      10.379 -14.766  -0.260  0.00  0.00     0.091 H 
ATOM    131  O5  BDP d1180       9.003 -15.699  -2.432  0.00  0.00    -0.340 OA
ATOM    132  O6A BDP d1180      10.465 -18.209  -4.101  0.00  0.00    -0.646 OA
ATOM    133  O2  BDP d1180       6.275 -15.688  -0.041  0.00  0.00    -0.388 OA
ATOM    134  O3  BDP d1180       5.105 -16.906  -2.450  0.00  0.00    -0.390 OA
ATOM    135  C5  BDP d1180       8.803 -17.008  -2.917  0.00  0.00     0.152 C 
ATOM    136  C2  BDP d1180       6.828 -15.665  -1.340  0.00  0.00     0.110 C 
ATOM    137  C3  BDP d1180       6.458 -16.972  -2.035  0.00  0.00     0.092 C 
ATOM    138  C6  BDP d1180       9.712 -17.211  -4.120  0.00  0.00     0.206 C 
ATOM    139  C1  BDP d1180       8.337 -15.452  -1.219  0.00  0.00     0.160 C 
ATOM    140  C4  BDP d1180       7.333 -17.205  -3.254  0.00  0.00     0.103 C 
ATOM    141  O6B BDP d1180       9.666 -16.356  -5.042  0.00  0.00    -0.646 OA
ATOM    142  O4  BDP d1180       7.135 -18.526  -3.679  0.00  0.00    -0.348 OA
ATOM    143  H   BDP d1180       6.499 -14.865   0.420  0.00  0.00     0.210 HD
ATOM    144  H   BDP d1180       4.537 -16.757  -1.677  0.00  0.00     0.210 HD
ATOM    145  H   BDP d1180       9.054 -17.742  -2.181  0.00  0.00     0.104 H 
ATOM    146  H   BDP d1180       6.443 -14.863  -1.934  0.00  0.00     0.094 H 
ATOM    147  H   BDP d1180       6.604 -17.778  -1.346  0.00  0.00     0.091 H 
ATOM    148  H   BDP d1180       8.728 -16.130  -0.489  0.00  0.00     0.133 H 
ATOM    149  H   BDP d1180       7.069 -16.505  -4.019  0.00  0.00     0.092 H 
ATOM    150  C3  BDP d1176      11.322 -11.616  14.783  0.00  0.00     0.092 C 
ATOM    151  O4  BDP d1176      11.057 -11.271  12.352  0.00  0.00    -0.348 OA
ATOM    152  O3  BDP d1176      12.519 -12.381  14.705  0.00  0.00    -0.390 OA
ATOM    153  O5  BDP d1176       8.471 -11.532  14.992  0.00  0.00    -0.340 OA
ATOM    154  O2  BDP d1176      11.339 -11.657  17.190  0.00  0.00    -0.388 OA
ATOM    155  C1  BDP d1176       9.197 -11.344  16.188  0.00  0.00     0.160 C 
ATOM    156  O6B BDP d1176       7.718 -10.416  12.007  0.00  0.00    -0.646 OA
ATOM    157  C5  BDP d1176       9.118 -11.081  13.798  0.00  0.00     0.152 C 
ATOM    158  O6A BDP d1176       7.722 -12.572  12.563  0.00  0.00    -0.646 OA
ATOM    159  C6  BDP d1176       8.122 -11.386  12.703  0.00  0.00     0.206 C 
ATOM    160  C4  BDP d1176      10.449 -11.785  13.527  0.00  0.00     0.103 C 
ATOM    161  C2  BDP d1176      10.566 -12.014  16.057  0.00  0.00     0.110 C 
ATOM    162  H   BDP d1176      11.572 -10.576  14.829  0.00  0.00     0.091 H 
ATOM    163  H   BDP d1176      12.297 -13.324  14.662  0.00  0.00     0.210 HD
ATOM    164  H   BDP d1176      12.214 -12.071  17.129  0.00  0.00     0.210 HD
ATOM    165  H   BDP d1176       9.301 -10.294  16.366  0.00  0.00     0.133 H 
ATOM    166  H   BDP d1176       9.373 -10.044  13.868  0.00  0.00     0.104 H 
ATOM    167  H   BDP d1176      10.310 -12.830  13.343  0.00  0.00     0.092 H 
ATOM    168  H   BDP d1176      10.407 -13.071  15.997  0.00  0.00     0.094 H 
ENDROOT
TORSDOF 43
ENDMDL
MODEL 11
REMARK VINA RESULT:      -8.2      3.983     18.660
REMARK  0 active torsions:
REMARK  status: ('A' for Active; 'I' for Inactive)
REMARK       I    between atoms: C3_1  and  O3_90 
REMARK       I    between atoms: O1_4  and  C1_76 
REMARK       I    between atoms: C2_5  and  N2_21 
REMARK       I    between atoms: C8_6  and  C7_66 
REMARK       I    between atoms: C4_7  and  O4_24 
REMARK       I    between atoms: N2_9  and  C2_60 
REMARK       I    between atoms: N2_9  and  C7_69 
REMARK       I    between atoms: O4_12  and  C4_26 
REMARK       I    between atoms: O3_13  and  C3_65 
REMARK       I    between atoms: O3_13  and  C1_61 
REMARK       I    between atoms: C3_14  and  O3_35 
REMARK       I    between atoms: C6_15  and  C5_53 
REMARK       I    between atoms: C6_15  and  O6_46 
REMARK       I    between atoms: O6_16  and  C6_54 
REMARK       I    between atoms: C4_17  and  O4_49 
REMARK       I    between atoms: O4_18  and  C4_28 
REMARK       I    between atoms: O4_18  and  C1_47 
REMARK       I    between atoms: C3_19  and  O3_43 
REMARK       I    between atoms: C1_20  and  O4_91 
REMARK       I    between atoms: N2_21  and  C7_66 
REMARK       I    between atoms: O3_22  and  C3_82 
REMARK       I    between atoms: C7_23  and  C8_62 
REMARK       I    between atoms: C7_23  and  N2_51 
REMARK       I    between atoms: C2_25  and  N2_41 
REMARK       I    between atoms: C1_27  and  O3_90 
REMARK       I    between atoms: O6_29  and  C6_74 
REMARK       I    between atoms: O2_30  and  C2_37 
REMARK       I    between atoms: C2_31  and  O2_42 
REMARK       I    between atoms: O3_32  and  C3_45 
REMARK       I    between atoms: O4_33  and  C4_73 
REMARK       I    between atoms: O4_34  and  C4_84 
REMARK       I    between atoms: O4_34  and  C1_85 
REMARK       I    between atoms: C5_36  and  C6_48 
REMARK       I    between atoms: C6_38  and  C5_40 
REMARK       I    between atoms: C6_38  and  O6_89 
REMARK       I    between atoms: N2_41  and  C7_50 
REMARK       I    between atoms: C5_44  and  C6_74 
REMARK       I    between atoms: C7_50  and  C8_75 
REMARK       I    between atoms: N2_51  and  C2_58 
REMARK       I    between atoms: C1_52  and  O3_87 
REMARK       I    between atoms: C6_54  and  C5_86 
REMARK       I    between atoms: O2_59  and  C2_93 
REMARK       I    between atoms: C8_64  and  C7_69 
REMARK       I    between atoms: C6_70  and  C5_80 
REMARK       I    between atoms: C4_72  and  O4_91 
REMARK       I    between atoms: C5_77  and  C6_79 
REMARK       I    between atoms: C3_83  and  O3_87 
ROOT
ATOM      1  C3  NAG d1177      13.525  -9.981   1.739  0.00  0.00     0.093 C 
ATOM      2  O7  NAG d1177      16.755 -12.123   1.615  0.00  0.00    -0.274 OA
ATOM      3  C4  NAG d1177      12.983  -8.859   0.836  0.00  0.00     0.089 C 
ATOM      4  C2  NAG d1177      14.138 -11.088   0.898  0.00  0.00     0.087 C 
ATOM      5  C6  NAG d1177      11.655  -8.343  -1.281  0.00  0.00     0.043 C 
ATOM      6  C5  NAG d1177      12.112  -9.416  -0.279  0.00  0.00     0.089 C 
ATOM      7  N2  NAG d1177      14.452 -12.284   1.701  0.00  0.00    -0.349 N 
ATOM      8  O4  NAG d1177      12.240  -7.925   1.594  0.00  0.00    -0.390 OA
ATOM      9  C7  NAG d1177      15.686 -12.693   2.004  0.00  0.00     0.214 C 
ATOM     10  O5  NAG d1177      12.823 -10.417  -0.997  0.00  0.00    -0.349 OA
ATOM     11  C8  NAG d1177      15.683 -13.961   2.818  0.00  0.00    -0.003 C 
ATOM     12  C1  NAG d1177      13.178 -11.527  -0.207  0.00  0.00     0.154 C 
ATOM     13  O6  NAG d1177      12.764  -7.770  -1.952  0.00  0.00    -0.398 OA
ATOM     14  O3  NAG d1177      14.547  -9.475   2.553  0.00  0.00    -0.348 OA
ATOM     15  H   NAG d1177      12.711 -10.358   2.322  0.00  0.00     0.091 H 
ATOM     16  H   NAG d1177      13.826  -8.368   0.395  0.00  0.00     0.091 H 
ATOM     17  H   NAG d1177      15.038 -10.682   0.485  0.00  0.00     0.084 H 
ATOM     18  H   NAG d1177      11.129  -7.574  -0.754  0.00  0.00     0.078 H 
ATOM     19  H   NAG d1177      11.018  -8.803  -2.006  0.00  0.00     0.078 H 
ATOM     20  H   NAG d1177      11.242  -9.820   0.195  0.00  0.00     0.090 H 
ATOM     21  H   NAG d1177      13.697 -12.819   2.038  0.00  0.00     0.163 HD
ATOM     22  H   NAG d1177      11.475  -8.368   1.994  0.00  0.00     0.210 HD
ATOM     23  H   NAG d1177      16.690 -14.248   3.035  0.00  0.00     0.040 H 
ATOM     24  H   NAG d1177      15.202 -14.740   2.263  0.00  0.00     0.040 H 
ATOM     25  H   NAG d1177      15.153 -13.796   3.733  0.00  0.00     0.040 H 
ATOM     26  H   NAG d1177      12.285 -11.928   0.225  0.00  0.00     0.132 H 
ATOM     27  H   NAG d1177      13.351  -7.348  -1.305  0.00  0.00     0.209 HD
ATOM     28  O6A BDP d1178      11.628  -7.210   5.597  0.00  0.00    -0.646 OA
ATOM     29  O4  BDP d1178      13.906  -9.529   7.958  0.00  0.00    -0.348 OA
ATOM     30  O3  BDP d1178      16.483  -9.055   6.846  0.00  0.00    -0.390 OA
ATOM     31  C1  BDP d1178      14.313  -9.720   3.947  0.00  0.00     0.160 C 
ATOM     32  C4  BDP d1178      14.110  -8.965   6.684  0.00  0.00     0.103 C 
ATOM     33  C2  BDP d1178      15.569  -9.306   4.685  0.00  0.00     0.110 C 
ATOM     34  O2  BDP d1178      16.681 -10.010   4.195  0.00  0.00    -0.388 OA
ATOM     35  O6B BDP d1178      10.937  -8.720   7.089  0.00  0.00    -0.646 OA
ATOM     36  O5  BDP d1178      13.226  -8.960   4.443  0.00  0.00    -0.340 OA
ATOM     37  C6  BDP d1178      11.732  -8.320   6.193  0.00  0.00     0.206 C 
ATOM     38  C5  BDP d1178      12.905  -9.225   5.793  0.00  0.00     0.152 C 
ATOM     39  C3  BDP d1178      15.394  -9.625   6.143  0.00  0.00     0.092 C 
ATOM     40  H   BDP d1178      16.393  -9.247   7.793  0.00  0.00     0.210 HD
ATOM     41  H   BDP d1178      14.077 -10.753   4.090  0.00  0.00     0.133 H 
ATOM     42  H   BDP d1178      14.220  -7.901   6.717  0.00  0.00     0.092 H 
ATOM     43  H   BDP d1178      15.734  -8.258   4.543  0.00  0.00     0.094 H 
ATOM     44  H   BDP d1178      16.542 -10.962   4.318  0.00  0.00     0.210 HD
ATOM     45  H   BDP d1178      12.629 -10.251   5.913  0.00  0.00     0.104 H 
ATOM     46  H   BDP d1178      15.339 -10.686   6.269  0.00  0.00     0.091 H 
ATOM     47  O1  NAG d1175      11.312 -19.724  -7.836  0.00  0.00    -0.369 OA
ATOM     48  O3  NAG d1175      11.881 -16.279  -4.716  0.00  0.00    -0.348 OA
ATOM     49  O6  NAG d1175      11.962 -22.304  -3.589  0.00  0.00    -0.398 OA
ATOM     50  C7  NAG d1175      11.315 -15.950  -7.729  0.00  0.00     0.214 C 
ATOM     51  O4  NAG d1175      12.540 -18.366  -2.672  0.00  0.00    -0.390 OA
ATOM     52  N2  NAG d1175      11.889 -17.121  -7.427  0.00  0.00    -0.349 N 
ATOM     53  C6  NAG d1175      11.475 -21.015  -3.328  0.00  0.00     0.043 C 
ATOM     54  C2  NAG d1175      11.549 -17.975  -6.278  0.00  0.00     0.087 C 
ATOM     55  C8  NAG d1175       9.969 -15.637  -7.160  0.00  0.00    -0.003 C 
ATOM     56  O7  NAG d1175      11.871 -15.123  -8.469  0.00  0.00    -0.274 OA
ATOM     57  C3  NAG d1175      12.285 -17.604  -5.000  0.00  0.00     0.093 C 
ATOM     58  C4  NAG d1175      11.869 -18.602  -3.911  0.00  0.00     0.089 C 
ATOM     59  C1  NAG d1175      11.914 -19.414  -6.611  0.00  0.00     0.151 C 
ATOM     60  C5  NAG d1175      12.047 -20.057  -4.362  0.00  0.00     0.089 C 
ATOM     61  O5  NAG d1175      11.426 -20.298  -5.611  0.00  0.00    -0.349 OA
ATOM     62  H   NAG d1175      11.644 -19.122  -8.521  0.00  0.00     0.212 HD
ATOM     63  H   NAG d1175      11.603 -22.923  -2.935  0.00  0.00     0.209 HD
ATOM     64  H   NAG d1175      12.413 -17.441  -2.407  0.00  0.00     0.210 HD
ATOM     65  H   NAG d1175      12.602 -17.439  -8.027  0.00  0.00     0.163 HD
ATOM     66  H   NAG d1175      11.776 -20.709  -2.349  0.00  0.00     0.078 H 
ATOM     67  H   NAG d1175      10.406 -21.012  -3.382  0.00  0.00     0.078 H 
ATOM     68  H   NAG d1175      10.502 -17.840  -6.103  0.00  0.00     0.084 H 
ATOM     69  H   NAG d1175       9.641 -16.454  -6.551  0.00  0.00     0.040 H 
ATOM     70  H   NAG d1175       9.271 -15.484  -7.957  0.00  0.00     0.040 H 
ATOM     71  H   NAG d1175      10.031 -14.750  -6.565  0.00  0.00     0.040 H 
ATOM     72  H   NAG d1175      13.351 -17.647  -5.072  0.00  0.00     0.091 H 
ATOM     73  H   NAG d1175      10.824 -18.441  -3.744  0.00  0.00     0.091 H 
ATOM     74  H   NAG d1175      12.977 -19.522  -6.660  0.00  0.00     0.132 H 
ATOM     75  H   NAG d1175      13.098 -20.225  -4.466  0.00  0.00     0.090 H 
ATOM     76  C2  NAG d1181       6.384  -8.297  17.377  0.00  0.00     0.087 C 
ATOM     77  C8  NAG d1181       4.197  -6.881  16.015  0.00  0.00    -0.003 C 
ATOM     78  O5  NAG d1181       7.807 -10.291  17.440  0.00  0.00    -0.349 OA
ATOM     79  O4  NAG d1181       5.551 -10.324  20.346  0.00  0.00    -0.390 OA
ATOM     80  C3  NAG d1181       6.038  -8.514  18.841  0.00  0.00     0.086 C 
ATOM     81  C1  NAG d1181       7.726  -8.938  17.017  0.00  0.00     0.154 C 
ATOM     82  N2  NAG d1181       6.410  -6.882  17.052  0.00  0.00    -0.349 N 
ATOM     83  C4  NAG d1181       6.029 -10.023  19.053  0.00  0.00     0.089 C 
ATOM     84  O6  NAG d1181       7.511 -12.851  18.109  0.00  0.00    -0.398 OA
ATOM     85  O3  NAG d1181       4.801  -7.912  19.185  0.00  0.00    -0.391 OA
ATOM     86  C5  NAG d1181       7.466 -10.515  18.806  0.00  0.00     0.089 C 
ATOM     87  O7  NAG d1181       5.926  -5.375  15.446  0.00  0.00    -0.274 OA
ATOM     88  C7  NAG d1181       5.587  -6.324  16.150  0.00  0.00     0.214 C 
ATOM     89  C6  NAG d1181       7.716 -11.978  19.201  0.00  0.00     0.043 C 
ATOM     90  H   NAG d1181       5.619  -8.772  16.799  0.00  0.00     0.084 H 
ATOM     91  H   NAG d1181       4.072  -7.696  16.697  0.00  0.00     0.040 H 
ATOM     92  H   NAG d1181       4.047  -7.227  15.013  0.00  0.00     0.040 H 
ATOM     93  H   NAG d1181       3.483  -6.116  16.238  0.00  0.00     0.040 H 
ATOM     94  H   NAG d1181       4.646  -9.991  20.442  0.00  0.00     0.210 HD
ATOM     95  H   NAG d1181       6.756  -8.047  19.482  0.00  0.00     0.090 H 
ATOM     96  H   NAG d1181       8.546  -8.457  17.508  0.00  0.00     0.132 H 
ATOM     97  H   NAG d1181       7.061  -6.305  17.513  0.00  0.00     0.163 HD
ATOM     98  H   NAG d1181       5.369 -10.524  18.377  0.00  0.00     0.091 H 
ATOM     99  H   NAG d1181       7.676 -13.764  18.390  0.00  0.00     0.209 HD
ATOM    100  H   NAG d1181       4.095  -8.290  18.639  0.00  0.00     0.210 HD
ATOM    101  H   NAG d1181       8.102  -9.946  19.451  0.00  0.00     0.090 H 
ATOM    102  H   NAG d1181       8.724 -12.078  19.543  0.00  0.00     0.078 H 
ATOM    103  H   NAG d1181       7.024 -12.239  19.974  0.00  0.00     0.078 H 
ATOM    104  C4  NAG d1179      13.813  -8.129  11.880  0.00  0.00     0.089 C 
ATOM    105  N2  NAG d1179      11.675 -10.096   9.405  0.00  0.00    -0.349 N 
ATOM    106  C6  NAG d1179      15.821  -6.751  11.186  0.00  0.00     0.043 C 
ATOM    107  O4  NAG d1179      13.470  -7.250  12.947  0.00  0.00    -0.390 OA
ATOM    108  O6  NAG d1179      16.763  -7.784  11.392  0.00  0.00    -0.398 OA
ATOM    109  C1  NAG d1179      13.590  -8.653   9.045  0.00  0.00     0.154 C 
ATOM    110  C5  NAG d1179      14.487  -7.342  10.759  0.00  0.00     0.089 C 
ATOM    111  O5  NAG d1179      14.756  -8.195   9.661  0.00  0.00    -0.349 OA
ATOM    112  C2  NAG d1179      12.858  -9.545  10.041  0.00  0.00     0.087 C 
ATOM    113  C8  NAG d1179      10.207 -11.829   8.665  0.00  0.00    -0.003 C 
ATOM    114  C7  NAG d1179      11.360 -11.386   9.501  0.00  0.00     0.214 C 
ATOM    115  C3  NAG d1179      12.552  -8.798  11.350  0.00  0.00     0.093 C 
ATOM    116  O3  NAG d1179      12.077  -9.711  12.329  0.00  0.00    -0.348 OA
ATOM    117  O7  NAG d1179      11.949 -12.180  10.228  0.00  0.00    -0.274 OA
ATOM    118  H   NAG d1179      14.490  -8.876  12.239  0.00  0.00     0.091 H 
ATOM    119  H   NAG d1179      11.089  -9.498   8.887  0.00  0.00     0.163 HD
ATOM    120  H   NAG d1179      15.691  -6.203  12.095  0.00  0.00     0.078 H 
ATOM    121  H   NAG d1179      16.177  -6.098  10.417  0.00  0.00     0.078 H 
ATOM    122  H   NAG d1179      12.856  -6.572  12.624  0.00  0.00     0.210 HD
ATOM    123  H   NAG d1179      16.444  -8.378  12.089  0.00  0.00     0.209 HD
ATOM    124  H   NAG d1179      13.028  -7.805   8.717  0.00  0.00     0.132 H 
ATOM    125  H   NAG d1179      13.811  -6.554  10.500  0.00  0.00     0.090 H 
ATOM    126  H   NAG d1179      13.489 -10.362  10.326  0.00  0.00     0.084 H 
ATOM    127  H   NAG d1179       9.832 -10.997   8.105  0.00  0.00     0.040 H 
ATOM    128  H   NAG d1179       9.434 -12.211   9.298  0.00  0.00     0.040 H 
ATOM    129  H   NAG d1179      10.528 -12.595   7.991  0.00  0.00     0.040 H 
ATOM    130  H   NAG d1179      11.806  -8.058  11.149  0.00  0.00     0.091 H 
ATOM    131  O5  BDP d1180      10.830  -8.329  13.689  0.00  0.00    -0.340 OA
ATOM    132  O6A BDP d1180       8.990  -5.765  14.812  0.00  0.00    -0.646 OA
ATOM    133  O2  BDP d1180       9.863 -11.579  12.399  0.00  0.00    -0.388 OA
ATOM    134  O3  BDP d1180       8.692 -11.508  15.097  0.00  0.00    -0.390 OA
ATOM    135  C5  BDP d1180       9.581  -7.987  14.250  0.00  0.00     0.152 C 
ATOM    136  C2  BDP d1180      10.182 -10.660  13.423  0.00  0.00     0.110 C 
ATOM    137  C3  BDP d1180       8.918 -10.404  14.239  0.00  0.00     0.092 C 
ATOM    138  C6  BDP d1180       9.761  -6.715  15.065  0.00  0.00     0.206 C 
ATOM    139  C1  BDP d1180      10.751  -9.397  12.777  0.00  0.00     0.160 C 
ATOM    140  C4  BDP d1180       9.064  -9.149  15.083  0.00  0.00     0.103 C 
ATOM    141  O6B BDP d1180      10.683  -6.693  15.922  0.00  0.00    -0.646 OA
ATOM    142  O4  BDP d1180       7.797  -8.821  15.586  0.00  0.00    -0.348 OA
ATOM    143  H   BDP d1180      10.654 -11.757  11.866  0.00  0.00     0.210 HD
ATOM    144  H   BDP d1180       8.598 -12.315  14.568  0.00  0.00     0.210 HD
ATOM    145  H   BDP d1180       8.849  -7.798  13.492  0.00  0.00     0.104 H 
ATOM    146  H   BDP d1180      10.928 -11.037  14.092  0.00  0.00     0.094 H 
ATOM    147  H   BDP d1180       8.097 -10.273  13.565  0.00  0.00     0.091 H 
ATOM    148  H   BDP d1180      10.109  -9.094  11.976  0.00  0.00     0.133 H 
ATOM    149  H   BDP d1180       9.762  -9.332  15.873  0.00  0.00     0.092 H 
ATOM    150  C3  BDP d1176      13.236 -13.011  -3.360  0.00  0.00     0.092 C 
ATOM    151  O4  BDP d1176      13.797 -12.550  -1.000  0.00  0.00    -0.348 OA
ATOM    152  O3  BDP d1176      12.812 -11.692  -3.683  0.00  0.00    -0.390 OA
ATOM    153  O5  BDP d1176      12.574 -15.677  -2.565  0.00  0.00    -0.340 OA
ATOM    154  O2  BDP d1176      12.908 -13.773  -5.621  0.00  0.00    -0.388 OA
ATOM    155  C1  BDP d1176      12.792 -15.466  -3.944  0.00  0.00     0.160 C 
ATOM    156  O6B BDP d1176      13.820 -15.689   0.463  0.00  0.00    -0.646 OA
ATOM    157  C5  BDP d1176      13.316 -14.828  -1.684  0.00  0.00     0.152 C 
ATOM    158  O6A BDP d1176      11.683 -15.268   0.001  0.00  0.00    -0.646 OA
ATOM    159  C6  BDP d1176      12.906 -15.283  -0.303  0.00  0.00     0.206 C 
ATOM    160  C4  BDP d1176      13.007 -13.340  -1.876  0.00  0.00     0.103 C 
ATOM    161  C2  BDP d1176      12.509 -14.000  -4.280  0.00  0.00     0.110 C 
ATOM    162  H   BDP d1176      14.292 -13.089  -3.520  0.00  0.00     0.091 H 
ATOM    163  H   BDP d1176      11.856 -11.616  -3.540  0.00  0.00     0.210 HD
ATOM    164  H   BDP d1176      12.738 -12.848  -5.856  0.00  0.00     0.210 HD
ATOM    165  H   BDP d1176      13.805 -15.722  -4.176  0.00  0.00     0.133 H 
ATOM    166  H   BDP d1176      14.367 -14.908  -1.868  0.00  0.00     0.104 H 
ATOM    167  H   BDP d1176      11.991 -13.116  -1.626  0.00  0.00     0.092 H 
ATOM    168  H   BDP d1176      11.462 -13.830  -4.139  0.00  0.00     0.094 H 
ENDROOT
TORSDOF 43
ENDMDL
MODEL 12
REMARK VINA RESULT:      -8.2      7.361     11.604
REMARK  0 active torsions:
REMARK  status: ('A' for Active; 'I' for Inactive)
REMARK       I    between atoms: C3_1  and  O3_90 
REMARK       I    between atoms: O1_4  and  C1_76 
REMARK       I    between atoms: C2_5  and  N2_21 
REMARK       I    between atoms: C8_6  and  C7_66 
REMARK       I    between atoms: C4_7  and  O4_24 
REMARK       I    between atoms: N2_9  and  C2_60 
REMARK       I    between atoms: N2_9  and  C7_69 
REMARK       I    between atoms: O4_12  and  C4_26 
REMARK       I    between atoms: O3_13  and  C3_65 
REMARK       I    between atoms: O3_13  and  C1_61 
REMARK       I    between atoms: C3_14  and  O3_35 
REMARK       I    between atoms: C6_15  and  C5_53 
REMARK       I    between atoms: C6_15  and  O6_46 
REMARK       I    between atoms: O6_16  and  C6_54 
REMARK       I    between atoms: C4_17  and  O4_49 
REMARK       I    between atoms: O4_18  and  C4_28 
REMARK       I    between atoms: O4_18  and  C1_47 
REMARK       I    between atoms: C3_19  and  O3_43 
REMARK       I    between atoms: C1_20  and  O4_91 
REMARK       I    between atoms: N2_21  and  C7_66 
REMARK       I    between atoms: O3_22  and  C3_82 
REMARK       I    between atoms: C7_23  and  C8_62 
REMARK       I    between atoms: C7_23  and  N2_51 
REMARK       I    between atoms: C2_25  and  N2_41 
REMARK       I    between atoms: C1_27  and  O3_90 
REMARK       I    between atoms: O6_29  and  C6_74 
REMARK       I    between atoms: O2_30  and  C2_37 
REMARK       I    between atoms: C2_31  and  O2_42 
REMARK       I    between atoms: O3_32  and  C3_45 
REMARK       I    between atoms: O4_33  and  C4_73 
REMARK       I    between atoms: O4_34  and  C4_84 
REMARK       I    between atoms: O4_34  and  C1_85 
REMARK       I    between atoms: C5_36  and  C6_48 
REMARK       I    between atoms: C6_38  and  C5_40 
REMARK       I    between atoms: C6_38  and  O6_89 
REMARK       I    between atoms: N2_41  and  C7_50 
REMARK       I    between atoms: C5_44  and  C6_74 
REMARK       I    between atoms: C7_50  and  C8_75 
REMARK       I    between atoms: N2_51  and  C2_58 
REMARK       I    between atoms: C1_52  and  O3_87 
REMARK       I    between atoms: C6_54  and  C5_86 
REMARK       I    between atoms: O2_59  and  C2_93 
REMARK       I    between atoms: C8_64  and  C7_69 
REMARK       I    between atoms: C6_70  and  C5_80 
REMARK       I    between atoms: C4_72  and  O4_91 
REMARK       I    between atoms: C5_77  and  C6_79 
REMARK       I    between atoms: C3_83  and  O3_87 
ROOT
ATOM      1  C3  NAG d1177      12.332 -17.516   3.150  0.00  0.00     0.093 C 
ATOM      2  O7  NAG d1177      15.427 -15.733   1.640  0.00  0.00    -0.274 OA
ATOM      3  C4  NAG d1177      12.180 -18.624   4.207  0.00  0.00     0.089 C 
ATOM      4  C2  NAG d1177      13.407 -16.528   3.570  0.00  0.00     0.087 C 
ATOM      5  C6  NAG d1177      12.025 -19.117   6.705  0.00  0.00     0.043 C 
ATOM      6  C5  NAG d1177      12.048 -18.043   5.605  0.00  0.00     0.089 C 
ATOM      7  N2  NAG d1177      13.421 -15.328   2.713  0.00  0.00    -0.349 N 
ATOM      8  O4  NAG d1177      11.054 -19.432   3.923  0.00  0.00    -0.390 OA
ATOM      9  C7  NAG d1177      14.382 -15.033   1.834  0.00  0.00     0.214 C 
ATOM     10  O5  NAG d1177      13.134 -17.164   5.870  0.00  0.00    -0.349 OA
ATOM     11  C8  NAG d1177      14.126 -13.728   1.126  0.00  0.00    -0.003 C 
ATOM     12  C1  NAG d1177      13.180 -16.054   5.004  0.00  0.00     0.154 C 
ATOM     13  O6  NAG d1177      13.243 -19.839   6.737  0.00  0.00    -0.398 OA
ATOM     14  O3  NAG d1177      12.748 -18.080   1.936  0.00  0.00    -0.348 OA
ATOM     15  H   NAG d1177      11.387 -17.024   3.049  0.00  0.00     0.091 H 
ATOM     16  H   NAG d1177      13.066 -19.224   4.170  0.00  0.00     0.091 H 
ATOM     17  H   NAG d1177      14.338 -17.048   3.480  0.00  0.00     0.084 H 
ATOM     18  H   NAG d1177      11.220 -19.796   6.513  0.00  0.00     0.078 H 
ATOM     19  H   NAG d1177      11.890 -18.635   7.650  0.00  0.00     0.078 H 
ATOM     20  H   NAG d1177      11.113 -17.525   5.627  0.00  0.00     0.090 H 
ATOM     21  H   NAG d1177      12.667 -14.699   2.795  0.00  0.00     0.163 HD
ATOM     22  H   NAG d1177      10.251 -18.890   3.956  0.00  0.00     0.210 HD
ATOM     23  H   NAG d1177      14.919 -13.537   0.434  0.00  0.00     0.040 H 
ATOM     24  H   NAG d1177      14.079 -12.936   1.844  0.00  0.00     0.040 H 
ATOM     25  H   NAG d1177      13.197 -13.785   0.597  0.00  0.00     0.040 H 
ATOM     26  H   NAG d1177      12.245 -15.539   5.074  0.00  0.00     0.132 H 
ATOM     27  H   NAG d1177      13.379 -20.283   5.884  0.00  0.00     0.209 HD
ATOM     28  O6A BDP d1178       8.461 -19.853   0.760  0.00  0.00    -0.646 OA
ATOM     29  O4  BDP d1178       9.526 -17.656  -2.430  0.00  0.00    -0.348 OA
ATOM     30  O3  BDP d1178      12.238 -18.458  -2.749  0.00  0.00    -0.390 OA
ATOM     31  C1  BDP d1178      11.885 -17.734   0.843  0.00  0.00     0.160 C 
ATOM     32  C4  BDP d1178      10.265 -18.308  -1.425  0.00  0.00     0.103 C 
ATOM     33  C2  BDP d1178      12.552 -18.234  -0.421  0.00  0.00     0.110 C 
ATOM     34  O2  BDP d1178      13.835 -17.679  -0.553  0.00  0.00    -0.388 OA
ATOM     35  O6B BDP d1178       7.306 -18.198  -0.194  0.00  0.00    -0.646 OA
ATOM     36  O5  BDP d1178      10.614 -18.347   0.958  0.00  0.00    -0.340 OA
ATOM     37  C6  BDP d1178       8.386 -18.729   0.188  0.00  0.00     0.206 C 
ATOM     38  C5  BDP d1178       9.700 -17.975  -0.053  0.00  0.00     0.152 C 
ATOM     39  C3  BDP d1178      11.716 -17.818  -1.598  0.00  0.00     0.092 C 
ATOM     40  H   BDP d1178      11.714 -18.205  -3.525  0.00  0.00     0.210 HD
ATOM     41  H   BDP d1178      11.734 -16.675   0.834  0.00  0.00     0.133 H 
ATOM     42  H   BDP d1178      10.218 -19.375  -1.505  0.00  0.00     0.092 H 
ATOM     43  H   BDP d1178      12.640 -19.300  -0.377  0.00  0.00     0.094 H 
ATOM     44  H   BDP d1178      13.767 -16.712  -0.593  0.00  0.00     0.210 HD
ATOM     45  H   BDP d1178       9.525 -16.920  -0.022  0.00  0.00     0.104 H 
ATOM     46  H   BDP d1178      11.733 -16.751  -1.684  0.00  0.00     0.091 H 
ATOM     47  O1  NAG d1175      16.324  -8.148  12.520  0.00  0.00    -0.369 OA
ATOM     48  O3  NAG d1175      14.860 -11.454   9.544  0.00  0.00    -0.348 OA
ATOM     49  O6  NAG d1175      15.085  -5.416   8.506  0.00  0.00    -0.398 OA
ATOM     50  C7  NAG d1175      15.826 -11.890  12.439  0.00  0.00     0.214 C 
ATOM     51  O4  NAG d1175      14.662  -9.335   7.437  0.00  0.00    -0.390 OA
ATOM     52  N2  NAG d1175      16.310 -10.770  11.887  0.00  0.00    -0.349 N 
ATOM     53  C6  NAG d1175      14.384  -6.630   8.527  0.00  0.00     0.043 C 
ATOM     54  C2  NAG d1175      15.548  -9.823  11.058  0.00  0.00     0.087 C 
ATOM     55  C8  NAG d1175      14.349 -12.028  12.618  0.00  0.00    -0.003 C 
ATOM     56  O7  NAG d1175      16.574 -12.811  12.806  0.00  0.00    -0.274 OA
ATOM     57  C3  NAG d1175      15.505 -10.196   9.584  0.00  0.00     0.093 C 
ATOM     58  C4  NAG d1175      14.726  -9.100   8.844  0.00  0.00     0.089 C 
ATOM     59  C1  NAG d1175      16.198  -8.450  11.160  0.00  0.00     0.151 C 
ATOM     60  C5  NAG d1175      15.275  -7.699   9.142  0.00  0.00     0.089 C 
ATOM     61  O5  NAG d1175      15.388  -7.465  10.533  0.00  0.00    -0.349 OA
ATOM     62  H   NAG d1175      16.877  -8.819  12.951  0.00  0.00     0.212 HD
ATOM     63  H   NAG d1175      14.525  -4.727   8.117  0.00  0.00     0.209 HD
ATOM     64  H   NAG d1175      14.312 -10.225   7.273  0.00  0.00     0.210 HD
ATOM     65  H   NAG d1175      17.258 -10.563  12.050  0.00  0.00     0.163 HD
ATOM     66  H   NAG d1175      14.121  -6.911   7.529  0.00  0.00     0.078 H 
ATOM     67  H   NAG d1175      13.490  -6.525   9.107  0.00  0.00     0.078 H 
ATOM     68  H   NAG d1175      14.545  -9.837  11.429  0.00  0.00     0.084 H 
ATOM     69  H   NAG d1175      13.862 -11.149  12.250  0.00  0.00     0.040 H 
ATOM     70  H   NAG d1175      14.125 -12.152  13.657  0.00  0.00     0.040 H 
ATOM     71  H   NAG d1175      14.002 -12.882  12.074  0.00  0.00     0.040 H 
ATOM     72  H   NAG d1175      16.464 -10.268   9.115  0.00  0.00     0.091 H 
ATOM     73  H   NAG d1175      13.725  -9.142   9.221  0.00  0.00     0.091 H 
ATOM     74  H   NAG d1175      17.150  -8.457  10.672  0.00  0.00     0.132 H 
ATOM     75  H   NAG d1175      16.251  -7.648   8.707  0.00  0.00     0.090 H 
ATOM     76  C2  NAG d1181      -1.759 -17.565  -6.841  0.00  0.00     0.087 C 
ATOM     77  C8  NAG d1181      -3.134 -18.821  -4.566  0.00  0.00    -0.003 C 
ATOM     78  O5  NAG d1181      -0.330 -15.730  -7.612  0.00  0.00    -0.349 OA
ATOM     79  O4  NAG d1181      -3.706 -15.300  -9.007  0.00  0.00    -0.390 OA
ATOM     80  C3  NAG d1181      -2.756 -17.233  -7.939  0.00  0.00     0.086 C 
ATOM     81  C1  NAG d1181      -0.349 -17.089  -7.200  0.00  0.00     0.154 C 
ATOM     82  N2  NAG d1181      -1.743 -18.992  -6.567  0.00  0.00    -0.349 N 
ATOM     83  C4  NAG d1181      -2.691 -15.721  -8.123  0.00  0.00     0.089 C 
ATOM     84  O6  NAG d1181      -0.612 -13.120  -8.053  0.00  0.00    -0.398 OA
ATOM     85  O3  NAG d1181      -4.062 -17.681  -7.618  0.00  0.00    -0.391 OA
ATOM     86  C5  NAG d1181      -1.273 -15.396  -8.627  0.00  0.00     0.089 C 
ATOM     87  O7  NAG d1181      -1.543 -20.528  -4.930  0.00  0.00    -0.274 OA
ATOM     88  C7  NAG d1181      -2.071 -19.511  -5.374  0.00  0.00     0.214 C 
ATOM     89  C6  NAG d1181      -1.081 -13.948  -9.099  0.00  0.00     0.043 C 
ATOM     90  H   NAG d1181      -2.075 -17.047  -5.961  0.00  0.00     0.084 H 
ATOM     91  H   NAG d1181      -3.483 -17.959  -5.097  0.00  0.00     0.040 H 
ATOM     92  H   NAG d1181      -2.726 -18.517  -3.624  0.00  0.00     0.040 H 
ATOM     93  H   NAG d1181      -3.950 -19.493  -4.401  0.00  0.00     0.040 H 
ATOM     94  H   NAG d1181      -4.573 -15.531  -8.638  0.00  0.00     0.210 HD
ATOM     95  H   NAG d1181      -2.511 -17.735  -8.851  0.00  0.00     0.090 H 
ATOM     96  H   NAG d1181       0.055 -17.625  -8.033  0.00  0.00     0.132 H 
ATOM     97  H   NAG d1181      -1.480 -19.607  -7.290  0.00  0.00     0.163 HD
ATOM     98  H   NAG d1181      -2.865 -15.192  -7.209  0.00  0.00     0.091 H 
ATOM     99  H   NAG d1181      -0.501 -12.215  -8.383  0.00  0.00     0.209 HD
ATOM    100  H   NAG d1181      -4.355 -17.263  -6.794  0.00  0.00     0.210 HD
ATOM    101  H   NAG d1181      -1.113 -15.991  -9.501  0.00  0.00     0.090 H 
ATOM    102  H   NAG d1181      -0.370 -13.934  -9.898  0.00  0.00     0.078 H 
ATOM    103  H   NAG d1181      -2.028 -13.572  -9.425  0.00  0.00     0.078 H 
ATOM    104  C4  NAG d1179       7.337 -18.816  -5.779  0.00  0.00     0.089 C 
ATOM    105  N2  NAG d1179       6.956 -16.779  -2.574  0.00  0.00    -0.349 N 
ATOM    106  C6  NAG d1179       9.246 -20.433  -6.173  0.00  0.00     0.043 C 
ATOM    107  O4  NAG d1179       6.409 -19.593  -6.530  0.00  0.00    -0.390 OA
ATOM    108  O6  NAG d1179      10.077 -19.494  -6.826  0.00  0.00    -0.398 OA
ATOM    109  C1  NAG d1179       8.612 -18.431  -3.212  0.00  0.00     0.154 C 
ATOM    110  C5  NAG d1179       8.380 -19.731  -5.141  0.00  0.00     0.089 C 
ATOM    111  O5  NAG d1179       9.256 -18.974  -4.325  0.00  0.00    -0.349 OA
ATOM    112  C2  NAG d1179       7.594 -17.413  -3.714  0.00  0.00     0.087 C 
ATOM    113  C8  NAG d1179       6.265 -14.947  -1.206  0.00  0.00    -0.003 C 
ATOM    114  C7  NAG d1179       6.791 -15.459  -2.504  0.00  0.00     0.214 C 
ATOM    115  C3  NAG d1179       6.594 -18.050  -4.693  0.00  0.00     0.093 C 
ATOM    116  O3  NAG d1179       5.808 -17.039  -5.308  0.00  0.00    -0.348 OA
ATOM    117  O7  NAG d1179       7.031 -14.692  -3.431  0.00  0.00    -0.274 OA
ATOM    118  H   NAG d1179       7.830 -18.124  -6.430  0.00  0.00     0.091 H 
ATOM    119  H   NAG d1179       6.637 -17.341  -1.831  0.00  0.00     0.163 HD
ATOM    120  H   NAG d1179       8.619 -20.912  -6.895  0.00  0.00     0.078 H 
ATOM    121  H   NAG d1179       9.856 -21.161  -5.682  0.00  0.00     0.078 H 
ATOM    122  H   NAG d1179       5.961 -20.220  -5.941  0.00  0.00     0.210 HD
ATOM    123  H   NAG d1179       9.527 -18.831  -7.272  0.00  0.00     0.209 HD
ATOM    124  H   NAG d1179       8.190 -19.234  -2.645  0.00  0.00     0.132 H 
ATOM    125  H   NAG d1179       7.833 -20.457  -4.576  0.00  0.00     0.090 H 
ATOM    126  H   NAG d1179       8.092 -16.652  -4.278  0.00  0.00     0.084 H 
ATOM    127  H   NAG d1179       6.120 -15.765  -0.531  0.00  0.00     0.040 H 
ATOM    128  H   NAG d1179       5.331 -14.451  -1.371  0.00  0.00     0.040 H 
ATOM    129  H   NAG d1179       6.966 -14.257  -0.785  0.00  0.00     0.040 H 
ATOM    130  H   NAG d1179       5.964 -18.718  -4.144  0.00  0.00     0.091 H 
ATOM    131  O5  BDP d1180       3.897 -18.205  -5.861  0.00  0.00    -0.340 OA
ATOM    132  O6A BDP d1180       1.454 -20.496  -5.909  0.00  0.00    -0.646 OA
ATOM    133  O2  BDP d1180       4.089 -14.949  -4.272  0.00  0.00    -0.388 OA
ATOM    134  O3  BDP d1180       1.737 -14.746  -6.027  0.00  0.00    -0.390 OA
ATOM    135  C5  BDP d1180       2.505 -18.383  -5.723  0.00  0.00     0.152 C 
ATOM    136  C2  BDP d1180       3.748 -15.837  -5.315  0.00  0.00     0.110 C 
ATOM    137  C3  BDP d1180       2.226 -15.914  -5.391  0.00  0.00     0.092 C 
ATOM    138  C6  BDP d1180       2.105 -19.618  -6.515  0.00  0.00     0.206 C 
ATOM    139  C1  BDP d1180       4.408 -17.187  -5.035  0.00  0.00     0.160 C 
ATOM    140  C4  BDP d1180       1.784 -17.128  -6.191  0.00  0.00     0.103 C 
ATOM    141  O6B BDP d1180       2.471 -19.688  -7.718  0.00  0.00    -0.646 OA
ATOM    142  O4  BDP d1180       0.406 -17.293  -5.995  0.00  0.00    -0.348 OA
ATOM    143  H   BDP d1180       5.055 -14.885  -4.204  0.00  0.00     0.210 HD
ATOM    144  H   BDP d1180       2.014 -13.965  -5.523  0.00  0.00     0.210 HD
ATOM    145  H   BDP d1180       2.228 -18.537  -4.701  0.00  0.00     0.104 H 
ATOM    146  H   BDP d1180       4.103 -15.504  -6.268  0.00  0.00     0.094 H 
ATOM    147  H   BDP d1180       1.838 -15.996  -4.397  0.00  0.00     0.091 H 
ATOM    148  H   BDP d1180       4.217 -17.466  -4.019  0.00  0.00     0.133 H 
ATOM    149  H   BDP d1180       2.016 -16.975  -7.225  0.00  0.00     0.092 H 
ATOM    150  C3  BDP d1176      14.968 -14.763   7.704  0.00  0.00     0.092 C 
ATOM    151  O4  BDP d1176      14.227 -15.147   5.380  0.00  0.00    -0.348 OA
ATOM    152  O3  BDP d1176      14.607 -16.047   8.199  0.00  0.00    -0.390 OA
ATOM    153  O5  BDP d1176      14.320 -12.002   7.335  0.00  0.00    -0.340 OA
ATOM    154  O2  BDP d1176      15.895 -14.100   9.824  0.00  0.00    -0.388 OA
ATOM    155  C1  BDP d1176      15.165 -12.313   8.423  0.00  0.00     0.160 C 
ATOM    156  O6B BDP d1176      13.893 -11.950   4.089  0.00  0.00    -0.646 OA
ATOM    157  C5  BDP d1176      14.421 -12.874   6.205  0.00  0.00     0.152 C 
ATOM    158  O6A BDP d1176      12.234 -12.171   5.557  0.00  0.00    -0.646 OA
ATOM    159  C6  BDP d1176      13.438 -12.301   5.210  0.00  0.00     0.206 C 
ATOM    160  C4  BDP d1176      14.074 -14.329   6.530  0.00  0.00     0.103 C 
ATOM    161  C2  BDP d1176      14.914 -13.757   8.860  0.00  0.00     0.110 C 
ATOM    162  H   BDP d1176      15.965 -14.805   7.316  0.00  0.00     0.091 H 
ATOM    163  H   BDP d1176      13.704 -16.015   8.552  0.00  0.00     0.210 HD
ATOM    164  H   BDP d1176      15.756 -15.014  10.117  0.00  0.00     0.210 HD
ATOM    165  H   BDP d1176      16.182 -12.177   8.118  0.00  0.00     0.133 H 
ATOM    166  H   BDP d1176      15.426 -12.914   5.840  0.00  0.00     0.104 H 
ATOM    167  H   BDP d1176      13.050 -14.432   6.821  0.00  0.00     0.092 H 
ATOM    168  H   BDP d1176      13.923 -13.808   9.261  0.00  0.00     0.094 H 
ENDROOT
TORSDOF 43
ENDMDL
MODEL 13
REMARK VINA RESULT:      -8.0      0.997      1.030
REMARK  0 active torsions:
REMARK  status: ('A' for Active; 'I' for Inactive)
REMARK       I    between atoms: C3_1  and  O3_90 
REMARK       I    between atoms: O1_4  and  C1_76 
REMARK       I    between atoms: C2_5  and  N2_21 
REMARK       I    between atoms: C8_6  and  C7_66 
REMARK       I    between atoms: C4_7  and  O4_24 
REMARK       I    between atoms: N2_9  and  C2_60 
REMARK       I    between atoms: N2_9  and  C7_69 
REMARK       I    between atoms: O4_12  and  C4_26 
REMARK       I    between atoms: O3_13  and  C3_65 
REMARK       I    between atoms: O3_13  and  C1_61 
REMARK       I    between atoms: C3_14  and  O3_35 
REMARK       I    between atoms: C6_15  and  C5_53 
REMARK       I    between atoms: C6_15  and  O6_46 
REMARK       I    between atoms: O6_16  and  C6_54 
REMARK       I    between atoms: C4_17  and  O4_49 
REMARK       I    between atoms: O4_18  and  C4_28 
REMARK       I    between atoms: O4_18  and  C1_47 
REMARK       I    between atoms: C3_19  and  O3_43 
REMARK       I    between atoms: C1_20  and  O4_91 
REMARK       I    between atoms: N2_21  and  C7_66 
REMARK       I    between atoms: O3_22  and  C3_82 
REMARK       I    between atoms: C7_23  and  C8_62 
REMARK       I    between atoms: C7_23  and  N2_51 
REMARK       I    between atoms: C2_25  and  N2_41 
REMARK       I    between atoms: C1_27  and  O3_90 
REMARK       I    between atoms: O6_29  and  C6_74 
REMARK       I    between atoms: O2_30  and  C2_37 
REMARK       I    between atoms: C2_31  and  O2_42 
REMARK       I    between atoms: O3_32  and  C3_45 
REMARK       I    between atoms: O4_33  and  C4_73 
REMARK       I    between atoms: O4_34  and  C4_84 
REMARK       I    between atoms: O4_34  and  C1_85 
REMARK       I    between atoms: C5_36  and  C6_48 
REMARK       I    between atoms: C6_38  and  C5_40 
REMARK       I    between atoms: C6_38  and  O6_89 
REMARK       I    between atoms: N2_41  and  C7_50 
REMARK       I    between atoms: C5_44  and  C6_74 
REMARK       I    between atoms: C7_50  and  C8_75 
REMARK       I    between atoms: N2_51  and  C2_58 
REMARK       I    between atoms: C1_52  and  O3_87 
REMARK       I    between atoms: C6_54  and  C5_86 
REMARK       I    between atoms: O2_59  and  C2_93 
REMARK       I    between atoms: C8_64  and  C7_69 
REMARK       I    between atoms: C6_70  and  C5_80 
REMARK       I    between atoms: C4_72  and  O4_91 
REMARK       I    between atoms: C5_77  and  C6_79 
REMARK       I    between atoms: C3_83  and  O3_87 
ROOT
ATOM      1  C3  NAG d1177      11.580 -12.429  10.498  0.00  0.00     0.093 C 
ATOM      2  O7  NAG d1177       9.590  -9.232  11.424  0.00  0.00    -0.274 OA
ATOM      3  C4  NAG d1177      12.818 -13.102  11.116  0.00  0.00     0.089 C 
ATOM      4  C2  NAG d1177      10.646 -11.932  11.589  0.00  0.00     0.087 C 
ATOM      5  C6  NAG d1177      13.635 -14.719  12.912  0.00  0.00     0.043 C 
ATOM      6  C5  NAG d1177      12.425 -14.117  12.177  0.00  0.00     0.089 C 
ATOM      7  N2  NAG d1177       9.344 -11.499  11.049  0.00  0.00    -0.349 N 
ATOM      8  O4  NAG d1177      13.590 -13.738  10.117  0.00  0.00    -0.390 OA
ATOM      9  C7  NAG d1177       8.930 -10.231  10.992  0.00  0.00     0.214 C 
ATOM     10  O5  NAG d1177      11.580 -13.507  13.144  0.00  0.00    -0.349 OA
ATOM     11  C8  NAG d1177       7.546 -10.110  10.410  0.00  0.00    -0.003 C 
ATOM     12  C1  NAG d1177      10.366 -13.035  12.609  0.00  0.00     0.154 C 
ATOM     13  O6  NAG d1177      14.344 -13.721  13.624  0.00  0.00    -0.398 OA
ATOM     14  O3  NAG d1177      11.976 -11.306   9.759  0.00  0.00    -0.348 OA
ATOM     15  H   NAG d1177      11.086 -13.149   9.879  0.00  0.00     0.091 H 
ATOM     16  H   NAG d1177      13.401 -12.333  11.580  0.00  0.00     0.091 H 
ATOM     17  H   NAG d1177      11.143 -11.102  12.048  0.00  0.00     0.084 H 
ATOM     18  H   NAG d1177      14.289 -15.171  12.197  0.00  0.00     0.078 H 
ATOM     19  H   NAG d1177      13.281 -15.449  13.610  0.00  0.00     0.078 H 
ATOM     20  H   NAG d1177      11.922 -14.908  11.663  0.00  0.00     0.090 H 
ATOM     21  H   NAG d1177       8.738 -12.195  10.705  0.00  0.00     0.163 HD
ATOM     22  H   NAG d1177      13.063 -14.435   9.695  0.00  0.00     0.210 HD
ATOM     23  H   NAG d1177       7.259  -9.079  10.386  0.00  0.00     0.040 H 
ATOM     24  H   NAG d1177       6.855 -10.658  11.016  0.00  0.00     0.040 H 
ATOM     25  H   NAG d1177       7.540 -10.506   9.416  0.00  0.00     0.040 H 
ATOM     26  H   NAG d1177       9.872 -13.855  12.131  0.00  0.00     0.132 H 
ATOM     27  H   NAG d1177      14.672 -13.051  13.003  0.00  0.00     0.209 HD
ATOM     28  O6A BDP d1178      13.615 -13.783   6.005  0.00  0.00    -0.646 OA
ATOM     29  O4  BDP d1178      11.011 -11.177   4.403  0.00  0.00    -0.348 OA
ATOM     30  O3  BDP d1178      11.742  -8.787   5.765  0.00  0.00    -0.390 OA
ATOM     31  C1  BDP d1178      11.497 -11.339   8.407  0.00  0.00     0.160 C 
ATOM     32  C4  BDP d1178      11.783 -11.160   5.581  0.00  0.00     0.103 C 
ATOM     33  C2  BDP d1178      11.823  -9.994   7.790  0.00  0.00     0.110 C 
ATOM     34  O2  BDP d1178      11.245  -8.957   8.541  0.00  0.00    -0.388 OA
ATOM     35  O6B BDP d1178      11.859 -14.245   4.707  0.00  0.00    -0.646 OA
ATOM     36  O5  BDP d1178      12.130 -12.351   7.646  0.00  0.00    -0.340 OA
ATOM     37  C6  BDP d1178      12.426 -13.588   5.624  0.00  0.00     0.206 C 
ATOM     38  C5  BDP d1178      11.636 -12.476   6.327  0.00  0.00     0.152 C 
ATOM     39  C3  BDP d1178      11.262  -9.960   6.396  0.00  0.00     0.092 C 
ATOM     40  H   BDP d1178      11.394  -8.741   4.860  0.00  0.00     0.210 HD
ATOM     41  H   BDP d1178      10.448 -11.544   8.409  0.00  0.00     0.133 H 
ATOM     42  H   BDP d1178      12.830 -11.055   5.385  0.00  0.00     0.092 H 
ATOM     43  H   BDP d1178      12.884  -9.860   7.776  0.00  0.00     0.094 H 
ATOM     44  H   BDP d1178      10.281  -9.070   8.560  0.00  0.00     0.210 HD
ATOM     45  H   BDP d1178      10.596 -12.725   6.345  0.00  0.00     0.104 H 
ATOM     46  H   BDP d1178      10.194  -9.988   6.445  0.00  0.00     0.091 H 
ATOM     47  O1  NAG d1175       3.487 -15.895  21.174  0.00  0.00    -0.369 OA
ATOM     48  O3  NAG d1175       6.386 -14.919  17.629  0.00  0.00    -0.348 OA
ATOM     49  O6  NAG d1175       0.263 -14.632  17.551  0.00  0.00    -0.398 OA
ATOM     50  C7  NAG d1175       7.189 -15.907  20.437  0.00  0.00     0.214 C 
ATOM     51  O4  NAG d1175       4.011 -13.961  16.075  0.00  0.00    -0.390 OA
ATOM     52  N2  NAG d1175       6.003 -15.287  20.418  0.00  0.00    -0.349 N 
ATOM     53  C6  NAG d1175       1.475 -15.087  17.013  0.00  0.00     0.043 C 
ATOM     54  C2  NAG d1175       4.961 -15.455  19.392  0.00  0.00     0.087 C 
ATOM     55  C8  NAG d1175       7.361 -17.162  19.643  0.00  0.00    -0.003 C 
ATOM     56  O7  NAG d1175       8.144 -15.467  21.097  0.00  0.00    -0.274 OA
ATOM     57  C3  NAG d1175       5.139 -14.549  18.184  0.00  0.00     0.093 C 
ATOM     58  C4  NAG d1175       3.962 -14.799  17.231  0.00  0.00     0.089 C 
ATOM     59  C1  NAG d1175       3.608 -15.129  20.009  0.00  0.00     0.151 C 
ATOM     60  C5  NAG d1175       2.608 -14.675  17.940  0.00  0.00     0.089 C 
ATOM     61  O5  NAG d1175       2.557 -15.464  19.114  0.00  0.00    -0.349 OA
ATOM     62  H   NAG d1175       4.204 -15.668  21.787  0.00  0.00     0.212 HD
ATOM     63  H   NAG d1175      -0.467 -14.890  16.968  0.00  0.00     0.209 HD
ATOM     64  H   NAG d1175       4.875 -14.056  15.644  0.00  0.00     0.210 HD
ATOM     65  H   NAG d1175       5.811 -14.663  21.154  0.00  0.00     0.163 HD
ATOM     66  H   NAG d1175       1.624 -14.654  16.047  0.00  0.00     0.078 H 
ATOM     67  H   NAG d1175       1.454 -16.153  16.917  0.00  0.00     0.078 H 
ATOM     68  H   NAG d1175       5.032 -16.468  19.055  0.00  0.00     0.084 H 
ATOM     69  H   NAG d1175       6.445 -17.394  19.140  0.00  0.00     0.040 H 
ATOM     70  H   NAG d1175       7.622 -17.966  20.299  0.00  0.00     0.040 H 
ATOM     71  H   NAG d1175       8.139 -17.023  18.921  0.00  0.00     0.040 H 
ATOM     72  H   NAG d1175       5.141 -13.502  18.409  0.00  0.00     0.091 H 
ATOM     73  H   NAG d1175       4.061 -15.811  16.897  0.00  0.00     0.091 H 
ATOM     74  H   NAG d1175       3.544 -14.083  20.222  0.00  0.00     0.132 H 
ATOM     75  H   NAG d1175       2.493 -13.647  18.215  0.00  0.00     0.090 H 
ATOM     76  C2  NAG d1181      10.434 -17.303  -6.034  0.00  0.00     0.087 C 
ATOM     77  C8  NAG d1181      11.987 -19.672  -5.244  0.00  0.00    -0.003 C 
ATOM     78  O5  NAG d1181       8.502 -15.870  -5.565  0.00  0.00    -0.349 OA
ATOM     79  O4  NAG d1181       7.920 -17.692  -8.707  0.00  0.00    -0.390 OA
ATOM     80  C3  NAG d1181       9.968 -17.437  -7.475  0.00  0.00     0.086 C 
ATOM     81  C1  NAG d1181       9.904 -16.020  -5.390  0.00  0.00     0.154 C 
ATOM     82  N2  NAG d1181      11.884 -17.335  -5.951  0.00  0.00    -0.349 N 
ATOM     83  C4  NAG d1181       8.445 -17.405  -7.430  0.00  0.00     0.089 C 
ATOM     84  O6  NAG d1181       5.859 -16.048  -5.829  0.00  0.00    -0.398 OA
ATOM     85  O3  NAG d1181      10.465 -18.618  -8.082  0.00  0.00    -0.391 OA
ATOM     86  C5  NAG d1181       8.046 -16.013  -6.908  0.00  0.00     0.089 C 
ATOM     87  O7  NAG d1181      13.619 -18.052  -4.704  0.00  0.00    -0.274 OA
ATOM     88  C7  NAG d1181      12.557 -18.281  -5.278  0.00  0.00     0.214 C 
ATOM     89  C6  NAG d1181       6.546 -15.699  -7.014  0.00  0.00     0.043 C 
ATOM     90  H   NAG d1181      10.037 -18.138  -5.496  0.00  0.00     0.084 H 
ATOM     91  H   NAG d1181      11.066 -19.693  -5.790  0.00  0.00     0.040 H 
ATOM     92  H   NAG d1181      11.806 -19.959  -4.229  0.00  0.00     0.040 H 
ATOM     93  H   NAG d1181      12.681 -20.353  -5.689  0.00  0.00     0.040 H 
ATOM     94  H   NAG d1181       8.204 -18.578  -8.982  0.00  0.00     0.210 HD
ATOM     95  H   NAG d1181      10.345 -16.639  -8.080  0.00  0.00     0.090 H 
ATOM     96  H   NAG d1181      10.323 -15.144  -5.837  0.00  0.00     0.132 H 
ATOM     97  H   NAG d1181      12.397 -16.629  -6.409  0.00  0.00     0.163 HD
ATOM     98  H   NAG d1181       8.042 -18.150  -6.777  0.00  0.00     0.091 H 
ATOM     99  H   NAG d1181       4.918 -15.838  -5.928  0.00  0.00     0.209 HD
ATOM    100  H   NAG d1181      10.161 -19.391  -7.583  0.00  0.00     0.210 HD
ATOM    101  H   NAG d1181       8.520 -15.297  -7.545  0.00  0.00     0.090 H 
ATOM    102  H   NAG d1181       6.423 -14.651  -7.191  0.00  0.00     0.078 H 
ATOM    103  H   NAG d1181       6.139 -16.272  -7.820  0.00  0.00     0.078 H 
ATOM    104  C4  NAG d1179      11.740 -10.727   0.327  0.00  0.00     0.089 C 
ATOM    105  N2  NAG d1179      10.143 -13.177   2.779  0.00  0.00    -0.349 N 
ATOM    106  C6  NAG d1179      13.276  -8.848   1.051  0.00  0.00     0.043 C 
ATOM    107  O4  NAG d1179      12.420 -10.922  -0.909  0.00  0.00    -0.390 OA
ATOM    108  O6  NAG d1179      12.254  -7.877   1.152  0.00  0.00    -0.398 OA
ATOM    109  C1  NAG d1179      11.684 -11.343   3.152  0.00  0.00     0.154 C 
ATOM    110  C5  NAG d1179      12.722 -10.223   1.382  0.00  0.00     0.089 C 
ATOM    111  O5  NAG d1179      12.071 -10.106   2.635  0.00  0.00    -0.349 OA
ATOM    112  C2  NAG d1179      10.617 -11.920   2.228  0.00  0.00     0.087 C 
ATOM    113  C8  NAG d1179       8.511 -14.721   3.590  0.00  0.00    -0.003 C 
ATOM    114  C7  NAG d1179       8.845 -13.465   2.858  0.00  0.00     0.214 C 
ATOM    115  C3  NAG d1179      11.128 -12.045   0.783  0.00  0.00     0.093 C 
ATOM    116  O3  NAG d1179      10.052 -12.369  -0.085  0.00  0.00    -0.348 OA
ATOM    117  O7  NAG d1179       7.961 -12.774   2.363  0.00  0.00    -0.274 OA
ATOM    118  H   NAG d1179      10.965 -10.000   0.196  0.00  0.00     0.091 H 
ATOM    119  H   NAG d1179      10.800 -13.835   3.103  0.00  0.00     0.163 HD
ATOM    120  H   NAG d1179      13.662  -8.852   0.053  0.00  0.00     0.078 H 
ATOM    121  H   NAG d1179      14.058  -8.608   1.741  0.00  0.00     0.078 H 
ATOM    122  H   NAG d1179      13.122 -11.581  -0.792  0.00  0.00     0.210 HD
ATOM    123  H   NAG d1179      11.542  -8.091   0.528  0.00  0.00     0.209 HD
ATOM    124  H   NAG d1179      12.557 -11.953   3.252  0.00  0.00     0.132 H 
ATOM    125  H   NAG d1179      13.520 -10.935   1.410  0.00  0.00     0.090 H 
ATOM    126  H   NAG d1179       9.785 -11.249   2.174  0.00  0.00     0.084 H 
ATOM    127  H   NAG d1179       9.411 -15.178   3.945  0.00  0.00     0.040 H 
ATOM    128  H   NAG d1179       8.006 -15.394   2.929  0.00  0.00     0.040 H 
ATOM    129  H   NAG d1179       7.876 -14.492   4.420  0.00  0.00     0.040 H 
ATOM    130  H   NAG d1179      11.868 -12.817   0.753  0.00  0.00     0.091 H 
ATOM    131  O5  BDP d1180      11.151 -13.423  -1.816  0.00  0.00    -0.340 OA
ATOM    132  O6A BDP d1180      13.435 -15.105  -3.597  0.00  0.00    -0.646 OA
ATOM    133  O2  BDP d1180       8.130 -14.536  -0.145  0.00  0.00    -0.388 OA
ATOM    134  O3  BDP d1180       7.718 -15.315  -2.952  0.00  0.00    -0.390 OA
ATOM    135  C5  BDP d1180      11.356 -14.582  -2.593  0.00  0.00     0.152 C 
ATOM    136  C2  BDP d1180       8.876 -14.083  -1.254  0.00  0.00     0.110 C 
ATOM    137  C3  BDP d1180       8.955 -15.221  -2.268  0.00  0.00     0.092 C 
ATOM    138  C6  BDP d1180      12.481 -14.299  -3.578  0.00  0.00     0.206 C 
ATOM    139  C1  BDP d1180      10.246 -13.621  -0.758  0.00  0.00     0.160 C 
ATOM    140  C4  BDP d1180      10.057 -14.968  -3.283  0.00  0.00     0.103 C 
ATOM    141  O6B BDP d1180      12.390 -13.266  -4.291  0.00  0.00    -0.646 OA
ATOM    142  O4  BDP d1180      10.257 -16.153  -4.003  0.00  0.00    -0.348 OA
ATOM    143  H   BDP d1180       8.067 -13.828   0.514  0.00  0.00     0.210 HD
ATOM    144  H   BDP d1180       7.006 -15.476  -2.312  0.00  0.00     0.210 HD
ATOM    145  H   BDP d1180      11.645 -15.415  -1.987  0.00  0.00     0.104 H 
ATOM    146  H   BDP d1180       8.418 -13.248  -1.742  0.00  0.00     0.094 H 
ATOM    147  H   BDP d1180       9.169 -16.130  -1.745  0.00  0.00     0.091 H 
ATOM    148  H   BDP d1180      10.657 -14.372  -0.115  0.00  0.00     0.133 H 
ATOM    149  H   BDP d1180       9.768 -14.163  -3.927  0.00  0.00     0.092 H 
ATOM    150  C3  BDP d1176       9.425 -13.411  15.944  0.00  0.00     0.092 C 
ATOM    151  O4  BDP d1176       9.508 -12.526  13.640  0.00  0.00    -0.348 OA
ATOM    152  O3  BDP d1176      10.766 -13.886  15.979  0.00  0.00    -0.390 OA
ATOM    153  O5  BDP d1176       6.645 -13.933  15.523  0.00  0.00    -0.340 OA
ATOM    154  O2  BDP d1176       9.037 -14.049  18.233  0.00  0.00    -0.388 OA
ATOM    155  C1  BDP d1176       7.088 -13.914  16.864  0.00  0.00     0.160 C 
ATOM    156  O6B BDP d1176       6.172 -12.272  12.741  0.00  0.00    -0.646 OA
ATOM    157  C5  BDP d1176       7.361 -13.081  14.624  0.00  0.00     0.152 C 
ATOM    158  O6A BDP d1176       6.597 -14.456  12.828  0.00  0.00    -0.646 OA
ATOM    159  C6  BDP d1176       6.671 -13.288  13.295  0.00  0.00     0.206 C 
ATOM    160  C4  BDP d1176       8.848 -13.425  14.518  0.00  0.00     0.103 C 
ATOM    161  C2  BDP d1176       8.580 -14.253  16.907  0.00  0.00     0.110 C 
ATOM    162  H   BDP d1176       9.408 -12.388  16.258  0.00  0.00     0.091 H 
ATOM    163  H   BDP d1176      10.787 -14.814  15.694  0.00  0.00     0.210 HD
ATOM    164  H   BDP d1176       9.983 -14.258  18.284  0.00  0.00     0.210 HD
ATOM    165  H   BDP d1176       6.906 -12.942  17.273  0.00  0.00     0.133 H 
ATOM    166  H   BDP d1176       7.344 -12.066  14.961  0.00  0.00     0.104 H 
ATOM    167  H   BDP d1176       8.997 -14.398  14.096  0.00  0.00     0.092 H 
ATOM    168  H   BDP d1176       8.691 -15.271  16.597  0.00  0.00     0.094 H 
ENDROOT
TORSDOF 43
ENDMDL
MODEL 14
REMARK VINA RESULT:      -8.0      5.014      6.511
REMARK  0 active torsions:
REMARK  status: ('A' for Active; 'I' for Inactive)
REMARK       I    between atoms: C3_1  and  O3_90 
REMARK       I    between atoms: O1_4  and  C1_76 
REMARK       I    between atoms: C2_5  and  N2_21 
REMARK       I    between atoms: C8_6  and  C7_66 
REMARK       I    between atoms: C4_7  and  O4_24 
REMARK       I    between atoms: N2_9  and  C2_60 
REMARK       I    between atoms: N2_9  and  C7_69 
REMARK       I    between atoms: O4_12  and  C4_26 
REMARK       I    between atoms: O3_13  and  C3_65 
REMARK       I    between atoms: O3_13  and  C1_61 
REMARK       I    between atoms: C3_14  and  O3_35 
REMARK       I    between atoms: C6_15  and  C5_53 
REMARK       I    between atoms: C6_15  and  O6_46 
REMARK       I    between atoms: O6_16  and  C6_54 
REMARK       I    between atoms: C4_17  and  O4_49 
REMARK       I    between atoms: O4_18  and  C4_28 
REMARK       I    between atoms: O4_18  and  C1_47 
REMARK       I    between atoms: C3_19  and  O3_43 
REMARK       I    between atoms: C1_20  and  O4_91 
REMARK       I    between atoms: N2_21  and  C7_66 
REMARK       I    between atoms: O3_22  and  C3_82 
REMARK       I    between atoms: C7_23  and  C8_62 
REMARK       I    between atoms: C7_23  and  N2_51 
REMARK       I    between atoms: C2_25  and  N2_41 
REMARK       I    between atoms: C1_27  and  O3_90 
REMARK       I    between atoms: O6_29  and  C6_74 
REMARK       I    between atoms: O2_30  and  C2_37 
REMARK       I    between atoms: C2_31  and  O2_42 
REMARK       I    between atoms: O3_32  and  C3_45 
REMARK       I    between atoms: O4_33  and  C4_73 
REMARK       I    between atoms: O4_34  and  C4_84 
REMARK       I    between atoms: O4_34  and  C1_85 
REMARK       I    between atoms: C5_36  and  C6_48 
REMARK       I    between atoms: C6_38  and  C5_40 
REMARK       I    between atoms: C6_38  and  O6_89 
REMARK       I    between atoms: N2_41  and  C7_50 
REMARK       I    between atoms: C5_44  and  C6_74 
REMARK       I    between atoms: C7_50  and  C8_75 
REMARK       I    between atoms: N2_51  and  C2_58 
REMARK       I    between atoms: C1_52  and  O3_87 
REMARK       I    between atoms: C6_54  and  C5_86 
REMARK       I    between atoms: O2_59  and  C2_93 
REMARK       I    between atoms: C8_64  and  C7_69 
REMARK       I    between atoms: C6_70  and  C5_80 
REMARK       I    between atoms: C4_72  and  O4_91 
REMARK       I    between atoms: C5_77  and  C6_79 
REMARK       I    between atoms: C3_83  and  O3_87 
ROOT
ATOM      1  C3  NAG d1177      13.397 -12.664   6.931  0.00  0.00     0.093 C 
ATOM      2  O7  NAG d1177      13.732  -8.810   6.666  0.00  0.00    -0.274 OA
ATOM      3  C4  NAG d1177      14.276 -13.744   7.586  0.00  0.00     0.089 C 
ATOM      4  C2  NAG d1177      13.309 -11.438   7.826  0.00  0.00     0.087 C 
ATOM      5  C6  NAG d1177      14.798 -14.971   9.761  0.00  0.00     0.043 C 
ATOM      6  C5  NAG d1177      13.864 -13.994   9.029  0.00  0.00     0.089 C 
ATOM      7  N2  NAG d1177      12.292 -10.481   7.353  0.00  0.00    -0.349 N 
ATOM      8  O4  NAG d1177      14.203 -14.954   6.858  0.00  0.00    -0.390 OA
ATOM      9  C7  NAG d1177      12.563  -9.289   6.815  0.00  0.00     0.214 C 
ATOM     10  O5  NAG d1177      13.855 -12.768   9.750  0.00  0.00    -0.349 OA
ATOM     11  C8  NAG d1177      11.313  -8.530   6.453  0.00  0.00    -0.003 C 
ATOM     12  C1  NAG d1177      12.928 -11.832   9.252  0.00  0.00     0.154 C 
ATOM     13  O6  NAG d1177      16.111 -14.447   9.854  0.00  0.00    -0.398 OA
ATOM     14  O3  NAG d1177      13.984 -12.248   5.728  0.00  0.00    -0.348 OA
ATOM     15  H   NAG d1177      12.426 -13.082   6.768  0.00  0.00     0.091 H 
ATOM     16  H   NAG d1177      15.284 -13.384   7.578  0.00  0.00     0.091 H 
ATOM     17  H   NAG d1177      14.277 -10.982   7.799  0.00  0.00     0.084 H 
ATOM     18  H   NAG d1177      14.828 -15.896   9.223  0.00  0.00     0.078 H 
ATOM     19  H   NAG d1177      14.422 -15.126  10.750  0.00  0.00     0.078 H 
ATOM     20  H   NAG d1177      12.889 -14.431   8.990  0.00  0.00     0.090 H 
ATOM     21  H   NAG d1177      11.345 -10.739   7.441  0.00  0.00     0.163 HD
ATOM     22  H   NAG d1177      13.290 -15.281   6.865  0.00  0.00     0.210 HD
ATOM     23  H   NAG d1177      11.580  -7.585   6.028  0.00  0.00     0.040 H 
ATOM     24  H   NAG d1177      10.725  -8.371   7.333  0.00  0.00     0.040 H 
ATOM     25  H   NAG d1177      10.745  -9.094   5.743  0.00  0.00     0.040 H 
ATOM     26  H   NAG d1177      11.960 -12.288   9.257  0.00  0.00     0.132 H 
ATOM     27  H   NAG d1177      16.466 -14.301   8.963  0.00  0.00     0.209 HD
ATOM     28  O6A BDP d1178      12.671 -16.109   3.221  0.00  0.00    -0.646 OA
ATOM     29  O4  BDP d1178      11.294 -13.016   1.059  0.00  0.00    -0.348 OA
ATOM     30  O3  BDP d1178      13.545 -11.276   1.122  0.00  0.00    -0.390 OA
ATOM     31  C1  BDP d1178      13.087 -12.352   4.613  0.00  0.00     0.160 C 
ATOM     32  C4  BDP d1178      12.349 -13.146   1.982  0.00  0.00     0.103 C 
ATOM     33  C2  BDP d1178      13.771 -11.693   3.433  0.00  0.00     0.110 C 
ATOM     34  O2  BDP d1178      14.101 -10.362   3.737  0.00  0.00    -0.388 OA
ATOM     35  O6B BDP d1178      10.577 -15.763   2.532  0.00  0.00    -0.646 OA
ATOM     36  O5  BDP d1178      12.809 -13.700   4.281  0.00  0.00    -0.340 OA
ATOM     37  C6  BDP d1178      11.687 -15.356   2.976  0.00  0.00     0.206 C 
ATOM     38  C5  BDP d1178      11.868 -13.855   3.238  0.00  0.00     0.152 C 
ATOM     39  C3  BDP d1178      12.828 -11.709   2.264  0.00  0.00     0.092 C 
ATOM     40  H   BDP d1178      12.956 -11.277   0.351  0.00  0.00     0.210 HD
ATOM     41  H   BDP d1178      12.159 -11.882   4.861  0.00  0.00     0.133 H 
ATOM     42  H   BDP d1178      13.155 -13.742   1.605  0.00  0.00     0.092 H 
ATOM     43  H   BDP d1178      14.669 -12.227   3.203  0.00  0.00     0.094 H 
ATOM     44  H   BDP d1178      13.292  -9.869   3.949  0.00  0.00     0.210 HD
ATOM     45  H   BDP d1178      10.932 -13.420   3.518  0.00  0.00     0.104 H 
ATOM     46  H   BDP d1178      11.988 -11.080   2.480  0.00  0.00     0.091 H 
ATOM     47  O1  NAG d1175       9.284  -7.600  19.135  0.00  0.00    -0.369 OA
ATOM     48  O3  NAG d1175      10.732  -9.539  15.127  0.00  0.00    -0.348 OA
ATOM     49  O6  NAG d1175       6.009  -5.699  15.853  0.00  0.00    -0.398 OA
ATOM     50  C7  NAG d1175      11.928 -10.011  17.929  0.00  0.00     0.214 C 
ATOM     51  O4  NAG d1175       8.747  -7.819  13.687  0.00  0.00    -0.390 OA
ATOM     52  N2  NAG d1175      11.287  -8.840  17.822  0.00  0.00    -0.349 N 
ATOM     53  C6  NAG d1175       6.544  -6.910  15.390  0.00  0.00     0.043 C 
ATOM     54  C2  NAG d1175      10.001  -8.623  17.140  0.00  0.00     0.087 C 
ATOM     55  C8  NAG d1175      11.155 -11.277  17.742  0.00  0.00    -0.003 C 
ATOM     56  O7  NAG d1175      13.141 -10.068  18.182  0.00  0.00    -0.274 OA
ATOM     57  C3  NAG d1175      10.135  -8.368  15.647  0.00  0.00     0.093 C 
ATOM     58  C4  NAG d1175       8.729  -8.113  15.085  0.00  0.00     0.089 C 
ATOM     59  C1  NAG d1175       9.321  -7.406  17.750  0.00  0.00     0.151 C 
ATOM     60  C5  NAG d1175       7.985  -7.022  15.865  0.00  0.00     0.089 C 
ATOM     61  O5  NAG d1175       7.995  -7.274  17.258  0.00  0.00    -0.349 OA
ATOM     62  H   NAG d1175      10.189  -7.690  19.474  0.00  0.00     0.212 HD
ATOM     63  H   NAG d1175       5.090  -5.617  15.556  0.00  0.00     0.209 HD
ATOM     64  H   NAG d1175       9.223  -8.522  13.216  0.00  0.00     0.210 HD
ATOM     65  H   NAG d1175      11.714  -8.055  18.234  0.00  0.00     0.163 HD
ATOM     66  H   NAG d1175       6.514  -6.931  14.321  0.00  0.00     0.078 H 
ATOM     67  H   NAG d1175       5.971  -7.730  15.770  0.00  0.00     0.078 H 
ATOM     68  H   NAG d1175       9.437  -9.523  17.269  0.00  0.00     0.084 H 
ATOM     69  H   NAG d1175      10.132 -11.043  17.534  0.00  0.00     0.040 H 
ATOM     70  H   NAG d1175      11.212 -11.865  18.635  0.00  0.00     0.040 H 
ATOM     71  H   NAG d1175      11.569 -11.829  16.924  0.00  0.00     0.040 H 
ATOM     72  H   NAG d1175      10.731  -7.517  15.392  0.00  0.00     0.091 H 
ATOM     73  H   NAG d1175       8.189  -9.028  15.212  0.00  0.00     0.091 H 
ATOM     74  H   NAG d1175       9.861  -6.518  17.495  0.00  0.00     0.132 H 
ATOM     75  H   NAG d1175       8.497  -6.102  15.680  0.00  0.00     0.090 H 
ATOM     76  C2  NAG d1181       3.965 -20.120  -5.472  0.00  0.00     0.087 C 
ATOM     77  C8  NAG d1181       4.328 -22.625  -3.976  0.00  0.00    -0.003 C 
ATOM     78  O5  NAG d1181       3.315 -17.759  -5.386  0.00  0.00    -0.349 OA
ATOM     79  O4  NAG d1181       0.797 -19.637  -7.300  0.00  0.00    -0.390 OA
ATOM     80  C3  NAG d1181       2.997 -20.331  -6.624  0.00  0.00     0.086 C 
ATOM     81  C1  NAG d1181       4.413 -18.659  -5.376  0.00  0.00     0.154 C 
ATOM     82  N2  NAG d1181       5.126 -20.984  -5.602  0.00  0.00    -0.349 N 
ATOM     83  C4  NAG d1181       1.827 -19.388  -6.369  0.00  0.00     0.089 C 
ATOM     84  O6  NAG d1181       1.043 -16.392  -5.147  0.00  0.00    -0.398 OA
ATOM     85  O3  NAG d1181       2.587 -21.685  -6.726  0.00  0.00    -0.391 OA
ATOM     86  C5  NAG d1181       2.385 -17.956  -6.448  0.00  0.00     0.089 C 
ATOM     87  O7  NAG d1181       6.609 -22.224  -4.443  0.00  0.00    -0.274 OA
ATOM     88  C7  NAG d1181       5.445 -21.921  -4.695  0.00  0.00     0.214 C 
ATOM     89  C6  NAG d1181       1.316 -16.854  -6.454  0.00  0.00     0.043 C 
ATOM     90  H   NAG d1181       3.445 -20.371  -4.572  0.00  0.00     0.084 H 
ATOM     91  H   NAG d1181       3.388 -22.240  -4.313  0.00  0.00     0.040 H 
ATOM     92  H   NAG d1181       4.423 -22.462  -2.922  0.00  0.00     0.040 H 
ATOM     93  H   NAG d1181       4.378 -23.674  -4.180  0.00  0.00     0.040 H 
ATOM     94  H   NAG d1181       0.487 -20.551  -7.203  0.00  0.00     0.210 HD
ATOM     95  H   NAG d1181       3.459 -20.114  -7.564  0.00  0.00     0.090 H 
ATOM     96  H   NAG d1181       5.006 -18.365  -6.216  0.00  0.00     0.132 H 
ATOM     97  H   NAG d1181       5.705 -20.878  -6.391  0.00  0.00     0.163 HD
ATOM     98  H   NAG d1181       1.387 -19.537  -5.405  0.00  0.00     0.091 H 
ATOM     99  H   NAG d1181       0.366 -15.699  -5.184  0.00  0.00     0.209 HD
ATOM    100  H   NAG d1181       2.154 -21.955  -5.901  0.00  0.00     0.210 HD
ATOM    101  H   NAG d1181       2.872 -17.868  -7.397  0.00  0.00     0.090 H 
ATOM    102  H   NAG d1181       1.664 -16.035  -7.047  0.00  0.00     0.078 H 
ATOM    103  H   NAG d1181       0.415 -17.263  -6.860  0.00  0.00     0.078 H 
ATOM    104  C4  NAG d1179      10.574 -14.206  -2.867  0.00  0.00     0.089 C 
ATOM    105  N2  NAG d1179       9.028 -14.451   0.613  0.00  0.00    -0.349 N 
ATOM    106  C6  NAG d1179      12.973 -13.503  -3.270  0.00  0.00     0.043 C 
ATOM    107  O4  NAG d1179      10.555 -15.091  -3.983  0.00  0.00    -0.390 OA
ATOM    108  O6  NAG d1179      12.678 -12.132  -3.447  0.00  0.00    -0.398 OA
ATOM    109  C1  NAG d1179      11.279 -13.879  -0.082  0.00  0.00     0.154 C 
ATOM    110  C5  NAG d1179      11.987 -14.125  -2.296  0.00  0.00     0.089 C 
ATOM    111  O5  NAG d1179      11.996 -13.312  -1.136  0.00  0.00    -0.349 OA
ATOM    112  C2  NAG d1179       9.811 -13.930  -0.492  0.00  0.00     0.087 C 
ATOM    113  C8  NAG d1179       7.287 -14.431   2.248  0.00  0.00    -0.003 C 
ATOM    114  C7  NAG d1179       7.892 -13.876   1.004  0.00  0.00     0.214 C 
ATOM    115  C3  NAG d1179       9.617 -14.717  -1.799  0.00  0.00     0.093 C 
ATOM    116  O3  NAG d1179       8.286 -14.556  -2.268  0.00  0.00    -0.348 OA
ATOM    117  O7  NAG d1179       7.348 -12.959   0.397  0.00  0.00    -0.274 OA
ATOM    118  H   NAG d1179      10.268 -13.230  -3.183  0.00  0.00     0.091 H 
ATOM    119  H   NAG d1179       9.345 -15.254   1.088  0.00  0.00     0.163 HD
ATOM    120  H   NAG d1179      12.905 -14.004  -4.212  0.00  0.00     0.078 H 
ATOM    121  H   NAG d1179      13.964 -13.601  -2.878  0.00  0.00     0.078 H 
ATOM    122  H   NAG d1179      10.832 -15.976  -3.699  0.00  0.00     0.210 HD
ATOM    123  H   NAG d1179      11.780 -12.038  -3.803  0.00  0.00     0.209 HD
ATOM    124  H   NAG d1179      11.708 -14.834   0.140  0.00  0.00     0.132 H 
ATOM    125  H   NAG d1179      12.280 -15.132  -2.082  0.00  0.00     0.090 H 
ATOM    126  H   NAG d1179       9.462 -12.941  -0.706  0.00  0.00     0.084 H 
ATOM    127  H   NAG d1179       7.906 -15.218   2.627  0.00  0.00     0.040 H 
ATOM    128  H   NAG d1179       6.313 -14.818   2.029  0.00  0.00     0.040 H 
ATOM    129  H   NAG d1179       7.206 -13.657   2.982  0.00  0.00     0.040 H 
ATOM    130  H   NAG d1179       9.812 -15.750  -1.602  0.00  0.00     0.091 H 
ATOM    131  O5  BDP d1180       7.995 -16.474  -3.515  0.00  0.00    -0.340 OA
ATOM    132  O6A BDP d1180       8.315 -19.586  -4.710  0.00  0.00    -0.646 OA
ATOM    133  O2  BDP d1180       5.688 -15.069  -1.093  0.00  0.00    -0.388 OA
ATOM    134  O3  BDP d1180       3.938 -16.169  -3.187  0.00  0.00    -0.390 OA
ATOM    135  C5  BDP d1180       7.302 -17.683  -3.733  0.00  0.00     0.152 C 
ATOM    136  C2  BDP d1180       6.086 -15.469  -2.387  0.00  0.00     0.110 C 
ATOM    137  C3  BDP d1180       5.215 -16.650  -2.806  0.00  0.00     0.092 C 
ATOM    138  C6  BDP d1180       7.962 -18.402  -4.899  0.00  0.00     0.206 C 
ATOM    139  C1  BDP d1180       7.578 -15.800  -2.352  0.00  0.00     0.160 C 
ATOM    140  C4  BDP d1180       5.831 -17.387  -3.983  0.00  0.00     0.103 C 
ATOM    141  O6B BDP d1180       8.130 -17.758  -5.967  0.00  0.00    -0.646 OA
ATOM    142  O4  BDP d1180       5.143 -18.598  -4.139  0.00  0.00    -0.348 OA
ATOM    143  H   BDP d1180       6.229 -14.318  -0.805  0.00  0.00     0.210 HD
ATOM    144  H   BDP d1180       3.536 -15.695  -2.442  0.00  0.00     0.210 HD
ATOM    145  H   BDP d1180       7.348 -18.322  -2.876  0.00  0.00     0.104 H 
ATOM    146  H   BDP d1180       5.951 -14.694  -3.114  0.00  0.00     0.094 H 
ATOM    147  H   BDP d1180       5.134 -17.325  -1.980  0.00  0.00     0.091 H 
ATOM    148  H   BDP d1180       7.774 -16.440  -1.517  0.00  0.00     0.133 H 
ATOM    149  H   BDP d1180       5.757 -16.779  -4.861  0.00  0.00     0.092 H 
ATOM    150  C3  BDP d1176      13.241 -10.660  12.519  0.00  0.00     0.092 C 
ATOM    151  O4  BDP d1176      12.882 -10.659  10.076  0.00  0.00    -0.348 OA
ATOM    152  O3  BDP d1176      14.080 -11.809  12.555  0.00  0.00    -0.390 OA
ATOM    153  O5  BDP d1176      10.635  -9.514  12.790  0.00  0.00    -0.340 OA
ATOM    154  O2  BDP d1176      13.474 -10.297  14.888  0.00  0.00    -0.388 OA
ATOM    155  C1  BDP d1176      11.493  -9.403  13.906  0.00  0.00     0.160 C 
ATOM    156  O6B BDP d1176      10.039  -8.723   9.669  0.00  0.00    -0.646 OA
ATOM    157  C5  BDP d1176      11.282  -9.537  11.513  0.00  0.00     0.152 C 
ATOM    158  O6A BDP d1176       9.339 -10.606  10.629  0.00  0.00    -0.646 OA
ATOM    159  C6  BDP d1176      10.142  -9.640  10.526  0.00  0.00     0.206 C 
ATOM    160  C4  BDP d1176      12.249 -10.711  11.346  0.00  0.00     0.103 C 
ATOM    161  C2  BDP d1176      12.520 -10.536  13.867  0.00  0.00     0.110 C 
ATOM    162  H   BDP d1176      13.844  -9.791  12.358  0.00  0.00     0.091 H 
ATOM    163  H   BDP d1176      13.539 -12.600  12.701  0.00  0.00     0.210 HD
ATOM    164  H   BDP d1176      14.138 -11.004  14.882  0.00  0.00     0.210 HD
ATOM    165  H   BDP d1176      11.976  -8.448  13.876  0.00  0.00     0.133 H 
ATOM    166  H   BDP d1176      11.890  -8.667  11.376  0.00  0.00     0.104 H 
ATOM    167  H   BDP d1176      11.734 -11.649  11.370  0.00  0.00     0.092 H 
ATOM    168  H   BDP d1176      11.996 -11.456  14.016  0.00  0.00     0.094 H 
ENDROOT
TORSDOF 43
ENDMDL
MODEL 15
REMARK VINA RESULT:      -7.9      2.312      2.646
REMARK  0 active torsions:
REMARK  status: ('A' for Active; 'I' for Inactive)
REMARK       I    between atoms: C3_1  and  O3_90 
REMARK       I    between atoms: O1_4  and  C1_76 
REMARK       I    between atoms: C2_5  and  N2_21 
REMARK       I    between atoms: C8_6  and  C7_66 
REMARK       I    between atoms: C4_7  and  O4_24 
REMARK       I    between atoms: N2_9  and  C2_60 
REMARK       I    between atoms: N2_9  and  C7_69 
REMARK       I    between atoms: O4_12  and  C4_26 
REMARK       I    between atoms: O3_13  and  C3_65 
REMARK       I    between atoms: O3_13  and  C1_61 
REMARK       I    between atoms: C3_14  and  O3_35 
REMARK       I    between atoms: C6_15  and  C5_53 
REMARK       I    between atoms: C6_15  and  O6_46 
REMARK       I    between atoms: O6_16  and  C6_54 
REMARK       I    between atoms: C4_17  and  O4_49 
REMARK       I    between atoms: O4_18  and  C4_28 
REMARK       I    between atoms: O4_18  and  C1_47 
REMARK       I    between atoms: C3_19  and  O3_43 
REMARK       I    between atoms: C1_20  and  O4_91 
REMARK       I    between atoms: N2_21  and  C7_66 
REMARK       I    between atoms: O3_22  and  C3_82 
REMARK       I    between atoms: C7_23  and  C8_62 
REMARK       I    between atoms: C7_23  and  N2_51 
REMARK       I    between atoms: C2_25  and  N2_41 
REMARK       I    between atoms: C1_27  and  O3_90 
REMARK       I    between atoms: O6_29  and  C6_74 
REMARK       I    between atoms: O2_30  and  C2_37 
REMARK       I    between atoms: C2_31  and  O2_42 
REMARK       I    between atoms: O3_32  and  C3_45 
REMARK       I    between atoms: O4_33  and  C4_73 
REMARK       I    between atoms: O4_34  and  C4_84 
REMARK       I    between atoms: O4_34  and  C1_85 
REMARK       I    between atoms: C5_36  and  C6_48 
REMARK       I    between atoms: C6_38  and  C5_40 
REMARK       I    between atoms: C6_38  and  O6_89 
REMARK       I    between atoms: N2_41  and  C7_50 
REMARK       I    between atoms: C5_44  and  C6_74 
REMARK       I    between atoms: C7_50  and  C8_75 
REMARK       I    between atoms: N2_51  and  C2_58 
REMARK       I    between atoms: C1_52  and  O3_87 
REMARK       I    between atoms: C6_54  and  C5_86 
REMARK       I    between atoms: O2_59  and  C2_93 
REMARK       I    between atoms: C8_64  and  C7_69 
REMARK       I    between atoms: C6_70  and  C5_80 
REMARK       I    between atoms: C4_72  and  O4_91 
REMARK       I    between atoms: C5_77  and  C6_79 
REMARK       I    between atoms: C3_83  and  O3_87 
ROOT
ATOM      1  C3  NAG d1177      12.124 -12.256   9.411  0.00  0.00     0.093 C 
ATOM      2  O7  NAG d1177      10.989  -8.639  10.227  0.00  0.00    -0.274 OA
ATOM      3  C4  NAG d1177      13.268 -13.135   9.946  0.00  0.00     0.089 C 
ATOM      4  C2  NAG d1177      11.473 -11.485  10.547  0.00  0.00     0.087 C 
ATOM      5  C6  NAG d1177      13.968 -14.751  11.793  0.00  0.00     0.043 C 
ATOM      6  C5  NAG d1177      12.822 -13.956  11.146  0.00  0.00     0.089 C 
ATOM      7  N2  NAG d1177      10.228 -10.819  10.122  0.00  0.00    -0.349 N 
ATOM      8  O4  NAG d1177      13.746 -14.000   8.935  0.00  0.00    -0.390 OA
ATOM      9  C7  NAG d1177      10.083  -9.499   9.983  0.00  0.00     0.214 C 
ATOM     10  O5  NAG d1177      12.262 -13.103  12.137  0.00  0.00    -0.349 OA
ATOM     11  C8  NAG d1177       8.687  -9.121   9.558  0.00  0.00    -0.003 C 
ATOM     12  C1  NAG d1177      11.112 -12.418  11.702  0.00  0.00     0.154 C 
ATOM     13  O6  NAG d1177      14.961 -13.882  12.309  0.00  0.00    -0.398 OA
ATOM     14  O3  NAG d1177      12.640 -11.308   8.518  0.00  0.00    -0.348 OA
ATOM     15  H   NAG d1177      11.411 -12.896   8.933  0.00  0.00     0.091 H 
ATOM     16  H   NAG d1177      14.056 -12.481  10.256  0.00  0.00     0.091 H 
ATOM     17  H   NAG d1177      12.190 -10.752  10.856  0.00  0.00     0.084 H 
ATOM     18  H   NAG d1177      14.410 -15.389  11.056  0.00  0.00     0.078 H 
ATOM     19  H   NAG d1177      13.569 -15.330  12.599  0.00  0.00     0.078 H 
ATOM     20  H   NAG d1177      12.099 -14.654  10.779  0.00  0.00     0.090 H 
ATOM     21  H   NAG d1177       9.449 -11.388   9.926  0.00  0.00     0.163 HD
ATOM     22  H   NAG d1177      13.033 -14.594   8.653  0.00  0.00     0.210 HD
ATOM     23  H   NAG d1177       8.621  -8.057   9.460  0.00  0.00     0.040 H 
ATOM     24  H   NAG d1177       7.987  -9.456  10.294  0.00  0.00     0.040 H 
ATOM     25  H   NAG d1177       8.464  -9.581   8.618  0.00  0.00     0.040 H 
ATOM     26  H   NAG d1177      10.397 -13.143  11.373  0.00  0.00     0.132 H 
ATOM     27  H   NAG d1177      15.332 -13.350  11.587  0.00  0.00     0.209 HD
ATOM     28  O6A BDP d1178      13.197 -14.363   4.876  0.00  0.00    -0.646 OA
ATOM     29  O4  BDP d1178      10.998 -11.378   3.329  0.00  0.00    -0.348 OA
ATOM     30  O3  BDP d1178      12.390  -9.110   4.340  0.00  0.00    -0.390 OA
ATOM     31  C1  BDP d1178      11.984 -11.337   7.242  0.00  0.00     0.160 C 
ATOM     32  C4  BDP d1178      11.911 -11.441   4.400  0.00  0.00     0.103 C 
ATOM     33  C2  BDP d1178      12.495 -10.148   6.456  0.00  0.00     0.110 C 
ATOM     34  O2  BDP d1178      12.254  -8.955   7.157  0.00  0.00    -0.388 OA
ATOM     35  O6B BDP d1178      11.222 -14.525   3.848  0.00  0.00    -0.646 OA
ATOM     36  O5  BDP d1178      12.282 -12.519   6.522  0.00  0.00    -0.340 OA
ATOM     37  C6  BDP d1178      12.034 -13.941   4.619  0.00  0.00     0.206 C 
ATOM     38  C5  BDP d1178      11.597 -12.633   5.291  0.00  0.00     0.152 C 
ATOM     39  C3  BDP d1178      11.768 -10.098   5.141  0.00  0.00     0.092 C 
ATOM     40  H   BDP d1178      11.939  -9.058   3.482  0.00  0.00     0.210 HD
ATOM     41  H   BDP d1178      10.925 -11.306   7.389  0.00  0.00     0.133 H 
ATOM     42  H   BDP d1178      12.920 -11.584   4.072  0.00  0.00     0.092 H 
ATOM     43  H   BDP d1178      13.549 -10.252   6.303  0.00  0.00     0.094 H 
ATOM     44  H   BDP d1178      11.300  -8.852   7.301  0.00  0.00     0.210 HD
ATOM     45  H   BDP d1178      10.541 -12.644   5.456  0.00  0.00     0.104 H 
ATOM     46  H   BDP d1178      10.734  -9.886   5.317  0.00  0.00     0.091 H 
ATOM     47  O1  NAG d1175       5.028 -13.035  21.266  0.00  0.00    -0.369 OA
ATOM     48  O3  NAG d1175       7.553 -12.993  17.323  0.00  0.00    -0.348 OA
ATOM     49  O6  NAG d1175       1.672 -11.375  17.936  0.00  0.00    -0.398 OA
ATOM     50  C7  NAG d1175       8.511 -13.917  20.104  0.00  0.00     0.214 C 
ATOM     51  O4  NAG d1175       5.240 -11.659  15.968  0.00  0.00    -0.390 OA
ATOM     52  N2  NAG d1175       7.488 -13.054  20.160  0.00  0.00    -0.349 N 
ATOM     53  C6  NAG d1175       2.678 -12.125  17.309  0.00  0.00     0.043 C 
ATOM     54  C2  NAG d1175       6.304 -13.067  19.287  0.00  0.00     0.087 C 
ATOM     55  C8  NAG d1175       8.307 -15.236  19.430  0.00  0.00    -0.003 C 
ATOM     56  O7  NAG d1175       9.617 -13.649  20.599  0.00  0.00    -0.274 OA
ATOM     57  C3  NAG d1175       6.499 -12.317  17.979  0.00  0.00     0.093 C 
ATOM     58  C4  NAG d1175       5.176 -12.374  17.202  0.00  0.00     0.089 C 
ATOM     59  C1  NAG d1175       5.146 -12.406  20.022  0.00  0.00     0.151 C 
ATOM     60  C5  NAG d1175       3.988 -11.902  18.049  0.00  0.00     0.089 C 
ATOM     61  O5  NAG d1175       3.935 -12.569  19.296  0.00  0.00    -0.349 OA
ATOM     62  H   NAG d1175       5.854 -12.925  21.764  0.00  0.00     0.212 HD
ATOM     63  H   NAG d1175       0.832 -11.510  17.472  0.00  0.00     0.209 HD
ATOM     64  H   NAG d1175       5.998 -11.974  15.450  0.00  0.00     0.210 HD
ATOM     65  H   NAG d1175       7.533 -12.349  20.846  0.00  0.00     0.163 HD
ATOM     66  H   NAG d1175       2.780 -11.810  16.292  0.00  0.00     0.078 H 
ATOM     67  H   NAG d1175       2.422 -13.164  17.328  0.00  0.00     0.078 H 
ATOM     68  H   NAG d1175       6.115 -14.094  19.051  0.00  0.00     0.084 H 
ATOM     69  H   NAG d1175       7.303 -15.298  19.066  0.00  0.00     0.040 H 
ATOM     70  H   NAG d1175       8.482 -16.025  20.131  0.00  0.00     0.040 H 
ATOM     71  H   NAG d1175       8.991 -15.327  18.612  0.00  0.00     0.040 H 
ATOM     72  H   NAG d1175       6.749 -11.283  18.092  0.00  0.00     0.091 H 
ATOM     73  H   NAG d1175       5.015 -13.406  16.966  0.00  0.00     0.091 H 
ATOM     74  H   NAG d1175       5.330 -11.358  20.131  0.00  0.00     0.132 H 
ATOM     75  H   NAG d1175       4.128 -10.856  18.226  0.00  0.00     0.090 H 
ATOM     76  C2  NAG d1181       7.734 -18.004  -6.275  0.00  0.00     0.087 C 
ATOM     77  C8  NAG d1181       8.853 -20.589  -5.431  0.00  0.00    -0.003 C 
ATOM     78  O5  NAG d1181       6.226 -16.150  -5.734  0.00  0.00    -0.349 OA
ATOM     79  O4  NAG d1181       4.852 -18.034  -8.579  0.00  0.00    -0.390 OA
ATOM     80  C3  NAG d1181       7.058 -18.142  -7.629  0.00  0.00     0.086 C 
ATOM     81  C1  NAG d1181       7.576 -16.591  -5.710  0.00  0.00     0.154 C 
ATOM     82  N2  NAG d1181       9.143 -18.347  -6.360  0.00  0.00    -0.349 N 
ATOM     83  C4  NAG d1181       5.596 -17.773  -7.409  0.00  0.00     0.089 C 
ATOM     84  O6  NAG d1181       3.593 -15.763  -5.666  0.00  0.00    -0.398 OA
ATOM     85  O3  NAG d1181       7.210 -19.446  -8.165  0.00  0.00    -0.391 OA
ATOM     86  C5  NAG d1181       5.570 -16.292  -6.991  0.00  0.00     0.089 C 
ATOM     87  O7  NAG d1181      10.845 -19.331  -5.257  0.00  0.00    -0.274 OA
ATOM     88  C7  NAG d1181       9.690 -19.365  -5.676  0.00  0.00     0.214 C 
ATOM     89  C6  NAG d1181       4.169 -15.664  -6.953  0.00  0.00     0.043 C 
ATOM     90  H   NAG d1181       7.250 -18.689  -5.610  0.00  0.00     0.084 H 
ATOM     91  H   NAG d1181       7.883 -20.449  -5.860  0.00  0.00     0.040 H 
ATOM     92  H   NAG d1181       8.758 -20.751  -4.378  0.00  0.00     0.040 H 
ATOM     93  H   NAG d1181       9.323 -21.438  -5.882  0.00  0.00     0.040 H 
ATOM     94  H   NAG d1181       4.906 -18.979  -8.792  0.00  0.00     0.210 HD
ATOM     95  H   NAG d1181       7.506 -17.495  -8.354  0.00  0.00     0.090 H 
ATOM     96  H   NAG d1181       8.103 -15.865  -6.292  0.00  0.00     0.132 H 
ATOM     97  H   NAG d1181       9.724 -17.809  -6.945  0.00  0.00     0.163 HD
ATOM     98  H   NAG d1181       5.140 -18.359  -6.639  0.00  0.00     0.091 H 
ATOM     99  H   NAG d1181       2.712 -15.359  -5.674  0.00  0.00     0.209 HD
ATOM    100  H   NAG d1181       6.823 -20.093  -7.556  0.00  0.00     0.210 HD
ATOM    101  H   NAG d1181       6.091 -15.748  -7.751  0.00  0.00     0.090 H 
ATOM    102  H   NAG d1181       4.243 -14.632  -7.222  0.00  0.00     0.078 H 
ATOM    103  H   NAG d1181       3.545 -16.194  -7.641  0.00  0.00     0.078 H 
ATOM    104  C4  NAG d1179      11.240 -11.411  -0.829  0.00  0.00     0.089 C 
ATOM    105  N2  NAG d1179       9.519 -13.256   2.034  0.00  0.00    -0.349 N 
ATOM    106  C6  NAG d1179      13.217  -9.866  -0.490  0.00  0.00     0.043 C 
ATOM    107  O4  NAG d1179      11.687 -11.845  -2.110  0.00  0.00    -0.390 OA
ATOM    108  O6  NAG d1179      12.443  -8.690  -0.371  0.00  0.00    -0.398 OA
ATOM    109  C1  NAG d1179      11.444 -11.783   2.032  0.00  0.00     0.154 C 
ATOM    110  C5  NAG d1179      12.440 -11.056   0.045  0.00  0.00     0.089 C 
ATOM    111  O5  NAG d1179      12.006 -10.704   1.346  0.00  0.00    -0.349 OA
ATOM    112  C2  NAG d1179      10.164 -12.180   1.304  0.00  0.00     0.087 C 
ATOM    113  C8  NAG d1179       7.728 -14.337   3.188  0.00  0.00    -0.003 C 
ATOM    114  C7  NAG d1179       8.213 -13.245   2.295  0.00  0.00     0.214 C 
ATOM    115  C3  NAG d1179      10.435 -12.523  -0.170  0.00  0.00     0.093 C 
ATOM    116  O3  NAG d1179       9.207 -12.668  -0.867  0.00  0.00    -0.348 OA
ATOM    117  O7  NAG d1179       7.433 -12.416   1.838  0.00  0.00    -0.274 OA
ATOM    118  H   NAG d1179      10.622 -10.544  -0.944  0.00  0.00     0.091 H 
ATOM    119  H   NAG d1179      10.062 -14.016   2.346  0.00  0.00     0.163 HD
ATOM    120  H   NAG d1179      13.454 -10.031  -1.520  0.00  0.00     0.078 H 
ATOM    121  H   NAG d1179      14.118  -9.752   0.075  0.00  0.00     0.078 H 
ATOM    122  H   NAG d1179      12.247 -12.630  -2.008  0.00  0.00     0.210 HD
ATOM    123  H   NAG d1179      11.624  -8.788  -0.882  0.00  0.00     0.209 HD
ATOM    124  H   NAG d1179      12.177 -12.560   2.091  0.00  0.00     0.132 H 
ATOM    125  H   NAG d1179      13.068 -11.922   0.053  0.00  0.00     0.090 H 
ATOM    126  H   NAG d1179       9.491 -11.349   1.279  0.00  0.00     0.084 H 
ATOM    127  H   NAG d1179       8.554 -14.953   3.480  0.00  0.00     0.040 H 
ATOM    128  H   NAG d1179       7.008 -14.932   2.664  0.00  0.00     0.040 H 
ATOM    129  H   NAG d1179       7.275 -13.912   4.058  0.00  0.00     0.040 H 
ATOM    130  H   NAG d1179      10.987 -13.439  -0.207  0.00  0.00     0.091 H 
ATOM    131  O5  BDP d1180       9.814 -14.067  -2.597  0.00  0.00    -0.340 OA
ATOM    132  O6A BDP d1180      11.433 -16.341  -4.449  0.00  0.00    -0.646 OA
ATOM    133  O2  BDP d1180       6.886 -14.359  -0.476  0.00  0.00    -0.388 OA
ATOM    134  O3  BDP d1180       5.940 -15.239  -3.119  0.00  0.00    -0.390 OA
ATOM    135  C5  BDP d1180       9.665 -15.299  -3.268  0.00  0.00     0.152 C 
ATOM    136  C2  BDP d1180       7.551 -14.166  -1.706  0.00  0.00     0.110 C 
ATOM    137  C3  BDP d1180       7.251 -15.368  -2.598  0.00  0.00     0.092 C 
ATOM    138  C6  BDP d1180      10.678 -15.345  -4.402  0.00  0.00     0.206 C 
ATOM    139  C1  BDP d1180       9.042 -13.980  -1.425  0.00  0.00     0.160 C 
ATOM    140  C4  BDP d1180       8.232 -15.441  -3.756  0.00  0.00     0.103 C 
ATOM    141  O6B BDP d1180      10.708 -14.375  -5.203  0.00  0.00    -0.646 OA
ATOM    142  O4  BDP d1180       8.081 -16.693  -4.368  0.00  0.00    -0.348 OA
ATOM    143  H   BDP d1180       7.063 -13.605   0.109  0.00  0.00     0.210 HD
ATOM    144  H   BDP d1180       5.305 -15.191  -2.387  0.00  0.00     0.210 HD
ATOM    145  H   BDP d1180       9.855 -16.126  -2.616  0.00  0.00     0.104 H 
ATOM    146  H   BDP d1180       7.214 -13.290  -2.220  0.00  0.00     0.094 H 
ATOM    147  H   BDP d1180       7.341 -16.259  -2.013  0.00  0.00     0.091 H 
ATOM    148  H   BDP d1180       9.371 -14.751  -0.760  0.00  0.00     0.133 H 
ATOM    149  H   BDP d1180       8.032 -14.644  -4.442  0.00  0.00     0.092 H 
ATOM    150  C3  BDP d1176      10.580 -12.323  15.145  0.00  0.00     0.092 C 
ATOM    151  O4  BDP d1176      10.528 -11.656  12.768  0.00  0.00    -0.348 OA
ATOM    152  O3  BDP d1176      11.784 -13.077  15.072  0.00  0.00    -0.390 OA
ATOM    153  O5  BDP d1176       7.721 -12.252  15.111  0.00  0.00    -0.340 OA
ATOM    154  O2  BDP d1176      10.385 -12.684  17.517  0.00  0.00    -0.388 OA
ATOM    155  C1  BDP d1176       8.338 -12.229  16.381  0.00  0.00     0.160 C 
ATOM    156  O6B BDP d1176       7.227 -10.745  12.246  0.00  0.00    -0.646 OA
ATOM    157  C5  BDP d1176       8.468 -11.649  14.049  0.00  0.00     0.152 C 
ATOM    158  O6A BDP d1176       7.196 -12.955  12.508  0.00  0.00    -0.646 OA
ATOM    159  C6  BDP d1176       7.574 -11.800  12.840  0.00  0.00     0.206 C 
ATOM    160  C4  BDP d1176       9.822 -12.319  13.806  0.00  0.00     0.103 C 
ATOM    161  C2  BDP d1176       9.717 -12.883  16.283  0.00  0.00     0.110 C 
ATOM    162  H   BDP d1176      10.818 -11.300  15.351  0.00  0.00     0.091 H 
ATOM    163  H   BDP d1176      11.573 -14.006  14.884  0.00  0.00     0.210 HD
ATOM    164  H   BDP d1176      11.264 -13.091  17.479  0.00  0.00     0.210 HD
ATOM    165  H   BDP d1176       8.419 -11.212  16.705  0.00  0.00     0.133 H 
ATOM    166  H   BDP d1176       8.709 -10.633  14.279  0.00  0.00     0.104 H 
ATOM    167  H   BDP d1176       9.706 -13.329  13.473  0.00  0.00     0.092 H 
ATOM    168  H   BDP d1176       9.570 -13.921  16.069  0.00  0.00     0.094 H 
ENDROOT
TORSDOF 43
ENDMDL
MODEL 16
REMARK VINA RESULT:      -7.8      2.134      2.416
REMARK  0 active torsions:
REMARK  status: ('A' for Active; 'I' for Inactive)
REMARK       I    between atoms: C3_1  and  O3_90 
REMARK       I    between atoms: O1_4  and  C1_76 
REMARK       I    between atoms: C2_5  and  N2_21 
REMARK       I    between atoms: C8_6  and  C7_66 
REMARK       I    between atoms: C4_7  and  O4_24 
REMARK       I    between atoms: N2_9  and  C2_60 
REMARK       I    between atoms: N2_9  and  C7_69 
REMARK       I    between atoms: O4_12  and  C4_26 
REMARK       I    between atoms: O3_13  and  C3_65 
REMARK       I    between atoms: O3_13  and  C1_61 
REMARK       I    between atoms: C3_14  and  O3_35 
REMARK       I    between atoms: C6_15  and  C5_53 
REMARK       I    between atoms: C6_15  and  O6_46 
REMARK       I    between atoms: O6_16  and  C6_54 
REMARK       I    between atoms: C4_17  and  O4_49 
REMARK       I    between atoms: O4_18  and  C4_28 
REMARK       I    between atoms: O4_18  and  C1_47 
REMARK       I    between atoms: C3_19  and  O3_43 
REMARK       I    between atoms: C1_20  and  O4_91 
REMARK       I    between atoms: N2_21  and  C7_66 
REMARK       I    between atoms: O3_22  and  C3_82 
REMARK       I    between atoms: C7_23  and  C8_62 
REMARK       I    between atoms: C7_23  and  N2_51 
REMARK       I    between atoms: C2_25  and  N2_41 
REMARK       I    between atoms: C1_27  and  O3_90 
REMARK       I    between atoms: O6_29  and  C6_74 
REMARK       I    between atoms: O2_30  and  C2_37 
REMARK       I    between atoms: C2_31  and  O2_42 
REMARK       I    between atoms: O3_32  and  C3_45 
REMARK       I    between atoms: O4_33  and  C4_73 
REMARK       I    between atoms: O4_34  and  C4_84 
REMARK       I    between atoms: O4_34  and  C1_85 
REMARK       I    between atoms: C5_36  and  C6_48 
REMARK       I    between atoms: C6_38  and  C5_40 
REMARK       I    between atoms: C6_38  and  O6_89 
REMARK       I    between atoms: N2_41  and  C7_50 
REMARK       I    between atoms: C5_44  and  C6_74 
REMARK       I    between atoms: C7_50  and  C8_75 
REMARK       I    between atoms: N2_51  and  C2_58 
REMARK       I    between atoms: C1_52  and  O3_87 
REMARK       I    between atoms: C6_54  and  C5_86 
REMARK       I    between atoms: O2_59  and  C2_93 
REMARK       I    between atoms: C8_64  and  C7_69 
REMARK       I    between atoms: C6_70  and  C5_80 
REMARK       I    between atoms: C4_72  and  O4_91 
REMARK       I    between atoms: C5_77  and  C6_79 
REMARK       I    between atoms: C3_83  and  O3_87 
ROOT
ATOM      1  C3  NAG d1177      12.339 -12.875  11.113  0.00  0.00     0.093 C 
ATOM      2  O7  NAG d1177      11.227  -9.288  12.078  0.00  0.00    -0.274 OA
ATOM      3  C4  NAG d1177      13.268 -13.897  11.793  0.00  0.00     0.089 C 
ATOM      4  C2  NAG d1177      11.468 -12.181  12.147  0.00  0.00     0.087 C 
ATOM      5  C6  NAG d1177      13.405 -15.754  13.536  0.00  0.00     0.043 C 
ATOM      6  C5  NAG d1177      12.497 -14.804  12.739  0.00  0.00     0.089 C 
ATOM      7  N2  NAG d1177      10.404 -11.374  11.523  0.00  0.00    -0.349 N 
ATOM      8  O4  NAG d1177      13.936 -14.683  10.825  0.00  0.00    -0.390 OA
ATOM      9  C7  NAG d1177      10.366 -10.040  11.519  0.00  0.00     0.214 C 
ATOM     10  O5  NAG d1177      11.755 -14.021  13.665  0.00  0.00    -0.349 OA
ATOM     11  C8  NAG d1177       9.141  -9.506  10.823  0.00  0.00    -0.003 C 
ATOM     12  C1  NAG d1177      10.785 -13.202  13.056  0.00  0.00     0.154 C 
ATOM     13  O6  NAG d1177      14.283 -15.030  14.379  0.00  0.00    -0.398 OA
ATOM     14  O3  NAG d1177      13.109 -11.880  10.495  0.00  0.00    -0.348 OA
ATOM     15  H   NAG d1177      11.735 -13.399  10.403  0.00  0.00     0.091 H 
ATOM     16  H   NAG d1177      13.987 -13.346  12.361  0.00  0.00     0.091 H 
ATOM     17  H   NAG d1177      12.124 -11.547  12.707  0.00  0.00     0.084 H 
ATOM     18  H   NAG d1177      13.981 -16.343  12.853  0.00  0.00     0.078 H 
ATOM     19  H   NAG d1177      12.790 -16.383  14.145  0.00  0.00     0.078 H 
ATOM     20  H   NAG d1177      11.852 -15.397  12.125  0.00  0.00     0.090 H 
ATOM     21  H   NAG d1177       9.668 -11.854  11.077  0.00  0.00     0.163 HD
ATOM     22  H   NAG d1177      13.285 -15.183  10.309  0.00  0.00     0.210 HD
ATOM     23  H   NAG d1177       9.156  -8.437  10.845  0.00  0.00     0.040 H 
ATOM     24  H   NAG d1177       8.264  -9.862  11.322  0.00  0.00     0.040 H 
ATOM     25  H   NAG d1177       9.133  -9.842   9.807  0.00  0.00     0.040 H 
ATOM     26  H   NAG d1177      10.137 -13.827  12.478  0.00  0.00     0.132 H 
ATOM     27  H   NAG d1177      14.848 -14.454  13.840  0.00  0.00     0.209 HD
ATOM     28  O6A BDP d1178      14.389 -14.558   6.740  0.00  0.00    -0.646 OA
ATOM     29  O4  BDP d1178      12.799 -11.255   5.097  0.00  0.00    -0.348 OA
ATOM     30  O3  BDP d1178      14.015  -9.231   6.686  0.00  0.00    -0.390 OA
ATOM     31  C1  BDP d1178      12.788 -11.718   9.106  0.00  0.00     0.160 C 
ATOM     32  C4  BDP d1178      13.415 -11.508   6.338  0.00  0.00     0.103 C 
ATOM     33  C2  BDP d1178      13.538 -10.496   8.619  0.00  0.00     0.110 C 
ATOM     34  O2  BDP d1178      13.193  -9.371   9.386  0.00  0.00    -0.388 OA
ATOM     35  O6B BDP d1178      12.725 -14.448   5.257  0.00  0.00    -0.646 OA
ATOM     36  O5  BDP d1178      13.193 -12.836   8.336  0.00  0.00    -0.340 OA
ATOM     37  C6  BDP d1178      13.350 -14.018   6.267  0.00  0.00     0.206 C 
ATOM     38  C5  BDP d1178      12.829 -12.759   6.973  0.00  0.00     0.152 C 
ATOM     39  C3  BDP d1178      13.163 -10.246   7.186  0.00  0.00     0.092 C 
ATOM     40  H   BDP d1178      13.792  -9.049   5.759  0.00  0.00     0.210 HD
ATOM     41  H   BDP d1178      11.729 -11.618   8.998  0.00  0.00     0.133 H 
ATOM     42  H   BDP d1178      14.464 -11.695   6.247  0.00  0.00     0.092 H 
ATOM     43  H   BDP d1178      14.590 -10.668   8.711  0.00  0.00     0.094 H 
ATOM     44  H   BDP d1178      12.240  -9.207   9.309  0.00  0.00     0.210 HD
ATOM     45  H   BDP d1178      11.765 -12.704   6.878  0.00  0.00     0.104 H 
ATOM     46  H   BDP d1178      12.130  -9.971   7.134  0.00  0.00     0.091 H 
ATOM     47  O1  NAG d1175       2.501 -14.357  20.732  0.00  0.00    -0.369 OA
ATOM     48  O3  NAG d1175       5.922 -14.092  17.545  0.00  0.00    -0.348 OA
ATOM     49  O6  NAG d1175       0.164 -12.080  16.929  0.00  0.00    -0.398 OA
ATOM     50  C7  NAG d1175       6.112 -15.386  20.337  0.00  0.00     0.214 C 
ATOM     51  O4  NAG d1175       4.088 -12.436  15.853  0.00  0.00    -0.390 OA
ATOM     52  N2  NAG d1175       5.154 -14.455  20.254  0.00  0.00    -0.349 N 
ATOM     53  C6  NAG d1175       1.253 -12.836  16.473  0.00  0.00     0.043 C 
ATOM     54  C2  NAG d1175       4.223 -14.277  19.128  0.00  0.00     0.087 C 
ATOM     55  C8  NAG d1175       6.014 -16.603  19.475  0.00  0.00    -0.003 C 
ATOM     56  O7  NAG d1175       7.075 -15.264  21.111  0.00  0.00    -0.274 OA
ATOM     57  C3  NAG d1175       4.774 -13.408  18.009  0.00  0.00     0.093 C 
ATOM     58  C4  NAG d1175       3.684 -13.274  16.937  0.00  0.00     0.089 C 
ATOM     59  C1  NAG d1175       2.956 -13.608  19.641  0.00  0.00     0.151 C 
ATOM     60  C5  NAG d1175       2.349 -12.801  17.527  0.00  0.00     0.089 C 
ATOM     61  O5  NAG d1175       1.955 -13.593  18.632  0.00  0.00    -0.349 OA
ATOM     62  H   NAG d1175       3.183 -14.369  21.423  0.00  0.00     0.212 HD
ATOM     63  H   NAG d1175      -0.541 -12.095  16.264  0.00  0.00     0.209 HD
ATOM     64  H   NAG d1175       4.933 -12.754  15.497  0.00  0.00     0.210 HD
ATOM     65  H   NAG d1175       5.065 -13.834  21.012  0.00  0.00     0.163 HD
ATOM     66  H   NAG d1175       1.620 -12.422  15.558  0.00  0.00     0.078 H 
ATOM     67  H   NAG d1175       0.947 -13.847  16.300  0.00  0.00     0.078 H 
ATOM     68  H   NAG d1175       4.046 -15.254  18.728  0.00  0.00     0.084 H 
ATOM     69  H   NAG d1175       5.129 -16.545  18.875  0.00  0.00     0.040 H 
ATOM     70  H   NAG d1175       5.968 -17.476  20.093  0.00  0.00     0.040 H 
ATOM     71  H   NAG d1175       6.873 -16.661  18.839  0.00  0.00     0.040 H 
ATOM     72  H   NAG d1175       5.043 -12.416  18.306  0.00  0.00     0.091 H 
ATOM     73  H   NAG d1175       3.533 -14.257  16.542  0.00  0.00     0.091 H 
ATOM     74  H   NAG d1175       3.162 -12.597  19.921  0.00  0.00     0.132 H 
ATOM     75  H   NAG d1175       2.495 -11.796  17.861  0.00  0.00     0.090 H 
ATOM     76  C2  NAG d1181      11.672 -16.517  -5.759  0.00  0.00     0.087 C 
ATOM     77  C8  NAG d1181      12.412 -19.260  -5.001  0.00  0.00    -0.003 C 
ATOM     78  O5  NAG d1181      10.175 -14.617  -5.368  0.00  0.00    -0.349 OA
ATOM     79  O4  NAG d1181       9.452 -16.064  -8.671  0.00  0.00    -0.390 OA
ATOM     80  C3  NAG d1181      11.345 -16.452  -7.242  0.00  0.00     0.086 C 
ATOM     81  C1  NAG d1181      11.452 -15.165  -5.076  0.00  0.00     0.154 C 
ATOM     82  N2  NAG d1181      13.038 -16.962  -5.546  0.00  0.00    -0.349 N 
ATOM     83  C4  NAG d1181       9.895 -15.991  -7.334  0.00  0.00     0.089 C 
ATOM     84  O6  NAG d1181       7.631 -14.027  -5.884  0.00  0.00    -0.398 OA
ATOM     85  O3  NAG d1181      11.558 -17.699  -7.884  0.00  0.00    -0.391 OA
ATOM     86  C5  NAG d1181       9.844 -14.567  -6.753  0.00  0.00     0.089 C 
ATOM     87  O7  NAG d1181      14.362 -18.193  -4.200  0.00  0.00    -0.274 OA
ATOM     88  C7  NAG d1181      13.346 -18.088  -4.884  0.00  0.00     0.214 C 
ATOM     89  C6  NAG d1181       8.511 -13.837  -6.973  0.00  0.00     0.043 C 
ATOM     90  H   NAG d1181      11.004 -17.228  -5.320  0.00  0.00     0.084 H 
ATOM     91  H   NAG d1181      11.586 -18.996  -5.629  0.00  0.00     0.040 H 
ATOM     92  H   NAG d1181      12.050 -19.527  -4.030  0.00  0.00     0.040 H 
ATOM     93  H   NAG d1181      12.934 -20.090  -5.428  0.00  0.00     0.040 H 
ATOM     94  H   NAG d1181       9.507 -16.981  -8.981  0.00  0.00     0.210 HD
ATOM     95  H   NAG d1181      11.992 -15.769  -7.752  0.00  0.00     0.090 H 
ATOM     96  H   NAG d1181      12.144 -14.425  -5.420  0.00  0.00     0.132 H 
ATOM     97  H   NAG d1181      13.773 -16.412  -5.904  0.00  0.00     0.163 HD
ATOM     98  H   NAG d1181       9.233 -16.619  -6.775  0.00  0.00     0.091 H 
ATOM     99  H   NAG d1181       6.801 -13.555  -6.053  0.00  0.00     0.209 HD
ATOM    100  H   NAG d1181      10.998 -18.374  -7.471  0.00  0.00     0.210 HD
ATOM    101  H   NAG d1181      10.564 -13.988  -7.292  0.00  0.00     0.090 H 
ATOM    102  H   NAG d1181       8.703 -12.790  -7.086  0.00  0.00     0.078 H 
ATOM    103  H   NAG d1181       8.050 -14.237  -7.852  0.00  0.00     0.078 H 
ATOM    104  C4  NAG d1179      14.060 -10.857   1.147  0.00  0.00     0.089 C 
ATOM    105  N2  NAG d1179      11.591 -12.856   3.262  0.00  0.00    -0.349 N 
ATOM    106  C6  NAG d1179      15.969  -9.523   2.139  0.00  0.00     0.043 C 
ATOM    107  O4  NAG d1179      14.787 -11.185  -0.033  0.00  0.00    -0.390 OA
ATOM    108  O6  NAG d1179      15.252  -8.308   2.216  0.00  0.00    -0.398 OA
ATOM    109  C1  NAG d1179      13.531 -11.552   3.904  0.00  0.00     0.154 C 
ATOM    110  C5  NAG d1179      15.023 -10.698   2.320  0.00  0.00     0.089 C 
ATOM    111  O5  NAG d1179      14.299 -10.454   3.513  0.00  0.00    -0.349 OA
ATOM    112  C2  NAG d1179      12.452 -11.763   2.848  0.00  0.00     0.087 C 
ATOM    113  C8  NAG d1179       9.517 -13.908   3.809  0.00  0.00    -0.003 C 
ATOM    114  C7  NAG d1179      10.263 -12.768   3.202  0.00  0.00     0.214 C 
ATOM    115  C3  NAG d1179      13.060 -11.966   1.450  0.00  0.00     0.093 C 
ATOM    116  O3  NAG d1179      12.037 -11.935   0.467  0.00  0.00    -0.348 OA
ATOM    117  O7  NAG d1179       9.664 -11.834   2.678  0.00  0.00    -0.274 OA
ATOM    118  H   NAG d1179      13.536  -9.936   0.997  0.00  0.00     0.091 H 
ATOM    119  H   NAG d1179      12.000 -13.687   3.597  0.00  0.00     0.163 HD
ATOM    120  H   NAG d1179      16.444  -9.594   1.184  0.00  0.00     0.078 H 
ATOM    121  H   NAG d1179      16.708  -9.544   2.913  0.00  0.00     0.078 H 
ATOM    122  H   NAG d1179      15.262 -12.019   0.101  0.00  0.00     0.210 HD
ATOM    123  H   NAG d1179      14.581  -8.284   1.515  0.00  0.00     0.209 HD
ATOM    124  H   NAG d1179      14.185 -12.388   4.039  0.00  0.00     0.132 H 
ATOM    125  H   NAG d1179      15.584 -11.608   2.370  0.00  0.00     0.090 H 
ATOM    126  H   NAG d1179      11.849 -10.882   2.766  0.00  0.00     0.084 H 
ATOM    127  H   NAG d1179      10.211 -14.616   4.211  0.00  0.00     0.040 H 
ATOM    128  H   NAG d1179       8.919 -14.382   3.058  0.00  0.00     0.040 H 
ATOM    129  H   NAG d1179       8.885 -13.544   4.592  0.00  0.00     0.040 H 
ATOM    130  H   NAG d1179      13.556 -12.914   1.432  0.00  0.00     0.091 H 
ATOM    131  O5  BDP d1180      12.979 -13.182  -1.228  0.00  0.00    -0.340 OA
ATOM    132  O6A BDP d1180      14.885 -15.365  -2.908  0.00  0.00    -0.646 OA
ATOM    133  O2  BDP d1180       9.606 -13.464   0.077  0.00  0.00    -0.388 OA
ATOM    134  O3  BDP d1180       9.299 -13.974  -2.804  0.00  0.00    -0.390 OA
ATOM    135  C5  BDP d1180      12.937 -14.318  -2.063  0.00  0.00     0.152 C 
ATOM    136  C2  BDP d1180      10.564 -13.194  -0.924  0.00  0.00     0.110 C 
ATOM    137  C3  BDP d1180      10.432 -14.263  -2.005  0.00  0.00     0.092 C 
ATOM    138  C6  BDP d1180      14.195 -14.323  -2.918  0.00  0.00     0.206 C 
ATOM    139  C1  BDP d1180      11.947 -13.160  -0.273  0.00  0.00     0.160 C 
ATOM    140  C4  BDP d1180      11.664 -14.290  -2.894  0.00  0.00     0.103 C 
ATOM    141  O6B BDP d1180      14.472 -13.278  -3.562  0.00  0.00    -0.646 OA
ATOM    142  O4  BDP d1180      11.604 -15.452  -3.676  0.00  0.00    -0.348 OA
ATOM    143  H   BDP d1180       9.672 -12.795   0.776  0.00  0.00     0.210 HD
ATOM    144  H   BDP d1180       8.506 -13.954  -2.245  0.00  0.00     0.210 HD
ATOM    145  H   BDP d1180      12.916 -15.223  -1.494  0.00  0.00     0.104 H 
ATOM    146  H   BDP d1180      10.411 -12.243  -1.391  0.00  0.00     0.094 H 
ATOM    147  H   BDP d1180      10.328 -15.217  -1.531  0.00  0.00     0.091 H 
ATOM    148  H   BDP d1180      12.061 -14.023   0.349  0.00  0.00     0.133 H 
ATOM    149  H   BDP d1180      11.681 -13.410  -3.503  0.00  0.00     0.092 H 
ATOM    150  C3  BDP d1176       9.423 -13.437  16.256  0.00  0.00     0.092 C 
ATOM    151  O4  BDP d1176       9.996 -12.515  14.038  0.00  0.00    -0.348 OA
ATOM    152  O3  BDP d1176      10.567 -14.274  16.380  0.00  0.00    -0.390 OA
ATOM    153  O5  BDP d1176       6.669 -13.132  15.547  0.00  0.00    -0.340 OA
ATOM    154  O2  BDP d1176       8.629 -14.036  18.449  0.00  0.00    -0.388 OA
ATOM    155  C1  BDP d1176       6.954 -13.296  16.921  0.00  0.00     0.160 C 
ATOM    156  O6B BDP d1176       6.979 -11.288  12.859  0.00  0.00    -0.646 OA
ATOM    157  C5  BDP d1176       7.686 -12.480  14.779  0.00  0.00     0.152 C 
ATOM    158  O6A BDP d1176       6.768 -13.505  12.828  0.00  0.00    -0.646 OA
ATOM    159  C6  BDP d1176       7.113 -12.427  13.382  0.00  0.00     0.206 C 
ATOM    160  C4  BDP d1176       9.022 -13.227  14.786  0.00  0.00     0.103 C 
ATOM    161  C2  BDP d1176       8.278 -14.046  17.075  0.00  0.00     0.110 C 
ATOM    162  H   BDP d1176       9.657 -12.466  16.639  0.00  0.00     0.091 H 
ATOM    163  H   BDP d1176      10.361 -15.157  16.033  0.00  0.00     0.210 HD
ATOM    164  H   BDP d1176       9.469 -14.507  18.571  0.00  0.00     0.210 HD
ATOM    165  H   BDP d1176       7.005 -12.331  17.380  0.00  0.00     0.133 H 
ATOM    166  H   BDP d1176       7.916 -11.518  15.186  0.00  0.00     0.104 H 
ATOM    167  H   BDP d1176       8.939 -14.183  14.312  0.00  0.00     0.092 H 
ATOM    168  H   BDP d1176       8.135 -15.040  16.705  0.00  0.00     0.094 H 
ENDROOT
TORSDOF 43
ENDMDL
MODEL 17
REMARK VINA RESULT:      -7.8      3.890     18.761
REMARK  0 active torsions:
REMARK  status: ('A' for Active; 'I' for Inactive)
REMARK       I    between atoms: C3_1  and  O3_90 
REMARK       I    between atoms: O1_4  and  C1_76 
REMARK       I    between atoms: C2_5  and  N2_21 
REMARK       I    between atoms: C8_6  and  C7_66 
REMARK       I    between atoms: C4_7  and  O4_24 
REMARK       I    between atoms: N2_9  and  C2_60 
REMARK       I    between atoms: N2_9  and  C7_69 
REMARK       I    between atoms: O4_12  and  C4_26 
REMARK       I    between atoms: O3_13  and  C3_65 
REMARK       I    between atoms: O3_13  and  C1_61 
REMARK       I    between atoms: C3_14  and  O3_35 
REMARK       I    between atoms: C6_15  and  C5_53 
REMARK       I    between atoms: C6_15  and  O6_46 
REMARK       I    between atoms: O6_16  and  C6_54 
REMARK       I    between atoms: C4_17  and  O4_49 
REMARK       I    between atoms: O4_18  and  C4_28 
REMARK       I    between atoms: O4_18  and  C1_47 
REMARK       I    between atoms: C3_19  and  O3_43 
REMARK       I    between atoms: C1_20  and  O4_91 
REMARK       I    between atoms: N2_21  and  C7_66 
REMARK       I    between atoms: O3_22  and  C3_82 
REMARK       I    between atoms: C7_23  and  C8_62 
REMARK       I    between atoms: C7_23  and  N2_51 
REMARK       I    between atoms: C2_25  and  N2_41 
REMARK       I    between atoms: C1_27  and  O3_90 
REMARK       I    between atoms: O6_29  and  C6_74 
REMARK       I    between atoms: O2_30  and  C2_37 
REMARK       I    between atoms: C2_31  and  O2_42 
REMARK       I    between atoms: O3_32  and  C3_45 
REMARK       I    between atoms: O4_33  and  C4_73 
REMARK       I    between atoms: O4_34  and  C4_84 
REMARK       I    between atoms: O4_34  and  C1_85 
REMARK       I    between atoms: C5_36  and  C6_48 
REMARK       I    between atoms: C6_38  and  C5_40 
REMARK       I    between atoms: C6_38  and  O6_89 
REMARK       I    between atoms: N2_41  and  C7_50 
REMARK       I    between atoms: C5_44  and  C6_74 
REMARK       I    between atoms: C7_50  and  C8_75 
REMARK       I    between atoms: N2_51  and  C2_58 
REMARK       I    between atoms: C1_52  and  O3_87 
REMARK       I    between atoms: C6_54  and  C5_86 
REMARK       I    between atoms: O2_59  and  C2_93 
REMARK       I    between atoms: C8_64  and  C7_69 
REMARK       I    between atoms: C6_70  and  C5_80 
REMARK       I    between atoms: C4_72  and  O4_91 
REMARK       I    between atoms: C5_77  and  C6_79 
REMARK       I    between atoms: C3_83  and  O3_87 
ROOT
ATOM      1  C3  NAG d1177      11.294 -11.053   8.083  0.00  0.00     0.093 C 
ATOM      2  O7  NAG d1177      14.977 -11.958   8.891  0.00  0.00    -0.274 OA
ATOM      3  C4  NAG d1177      10.659 -10.016   7.140  0.00  0.00     0.089 C 
ATOM      4  C2  NAG d1177      12.488 -11.714   7.414  0.00  0.00     0.087 C 
ATOM      5  C6  NAG d1177       9.902  -9.559   4.747  0.00  0.00     0.043 C 
ATOM      6  C5  NAG d1177      10.416 -10.598   5.757  0.00  0.00     0.089 C 
ATOM      7  N2  NAG d1177      12.978 -12.875   8.180  0.00  0.00    -0.349 N 
ATOM      8  O4  NAG d1177       9.437  -9.541   7.674  0.00  0.00    -0.390 OA
ATOM      9  C7  NAG d1177      14.133 -12.910   8.849  0.00  0.00     0.214 C 
ATOM     10  O5  NAG d1177      11.622 -11.153   5.245  0.00  0.00    -0.349 OA
ATOM     11  C8  NAG d1177      14.367 -14.243   9.512  0.00  0.00    -0.003 C 
ATOM     12  C1  NAG d1177      12.121 -12.218   6.019  0.00  0.00     0.154 C 
ATOM     13  O6  NAG d1177      10.861  -8.538   4.537  0.00  0.00    -0.398 OA
ATOM     14  O3  NAG d1177      11.775 -10.410   9.232  0.00  0.00    -0.348 OA
ATOM     15  H   NAG d1177      10.548 -11.780   8.325  0.00  0.00     0.091 H 
ATOM     16  H   NAG d1177      11.347  -9.201   7.051  0.00  0.00     0.091 H 
ATOM     17  H   NAG d1177      13.251 -10.965   7.363  0.00  0.00     0.084 H 
ATOM     18  H   NAG d1177       9.001  -9.121   5.123  0.00  0.00     0.078 H 
ATOM     19  H   NAG d1177       9.719 -10.051   3.815  0.00  0.00     0.078 H 
ATOM     20  H   NAG d1177       9.662 -11.347   5.876  0.00  0.00     0.090 H 
ATOM     21  H   NAG d1177      12.413 -13.682   8.199  0.00  0.00     0.163 HD
ATOM     22  H   NAG d1177       8.812 -10.278   7.756  0.00  0.00     0.210 HD
ATOM     23  H   NAG d1177      15.301 -14.222  10.034  0.00  0.00     0.040 H 
ATOM     24  H   NAG d1177      14.391 -15.012   8.769  0.00  0.00     0.040 H 
ATOM     25  H   NAG d1177      13.575 -14.441  10.205  0.00  0.00     0.040 H 
ATOM     26  H   NAG d1177      11.357 -12.963   6.091  0.00  0.00     0.132 H 
ATOM     27  H   NAG d1177      11.038  -8.082   5.375  0.00  0.00     0.209 HD
ATOM     28  O6A BDP d1178       7.483  -9.858  11.277  0.00  0.00    -0.646 OA
ATOM     29  O4  BDP d1178       9.677 -11.720  14.080  0.00  0.00    -0.348 OA
ATOM     30  O3  BDP d1178      12.095 -10.226  13.945  0.00  0.00    -0.390 OA
ATOM     31  C1  BDP d1178      11.259 -10.984  10.441  0.00  0.00     0.160 C 
ATOM     32  C4  BDP d1178      10.013 -10.885  12.998  0.00  0.00     0.103 C 
ATOM     33  C2  BDP d1178      12.003 -10.336  11.590  0.00  0.00     0.110 C 
ATOM     34  O2  BDP d1178      13.387 -10.530  11.450  0.00  0.00    -0.388 OA
ATOM     35  O6B BDP d1178       7.004 -11.770  12.325  0.00  0.00    -0.646 OA
ATOM     36  O5  BDP d1178       9.874 -10.732  10.598  0.00  0.00    -0.340 OA
ATOM     37  C6  BDP d1178       7.815 -10.966  11.784  0.00  0.00     0.206 C 
ATOM     38  C5  BDP d1178       9.301 -11.344  11.735  0.00  0.00     0.152 C 
ATOM     39  C3  BDP d1178      11.547 -10.972  12.873  0.00  0.00     0.092 C 
ATOM     40  H   BDP d1178      11.815 -10.618  14.787  0.00  0.00     0.210 HD
ATOM     41  H   BDP d1178      11.393 -12.045  10.414  0.00  0.00     0.133 H 
ATOM     42  H   BDP d1178       9.706  -9.871  13.149  0.00  0.00     0.092 H 
ATOM     43  H   BDP d1178      11.800  -9.286  11.594  0.00  0.00     0.094 H 
ATOM     44  H   BDP d1178      13.581 -11.480  11.445  0.00  0.00     0.210 HD
ATOM     45  H   BDP d1178       9.404 -12.407  11.673  0.00  0.00     0.104 H 
ATOM     46  H   BDP d1178      11.857 -11.996  12.889  0.00  0.00     0.091 H 
ATOM     47  O1  NAG d1175      15.707 -18.926  -2.408  0.00  0.00    -0.369 OA
ATOM     48  O3  NAG d1175      14.034 -16.160   0.980  0.00  0.00    -0.348 OA
ATOM     49  O6  NAG d1175      16.018 -21.927   1.593  0.00  0.00    -0.398 OA
ATOM     50  C7  NAG d1175      14.278 -15.454  -2.012  0.00  0.00     0.214 C 
ATOM     51  O4  NAG d1175      14.804 -18.274   2.956  0.00  0.00    -0.390 OA
ATOM     52  N2  NAG d1175      15.133 -16.409  -1.626  0.00  0.00    -0.349 N 
ATOM     53  C6  NAG d1175      15.035 -20.944   1.774  0.00  0.00     0.043 C 
ATOM     54  C2  NAG d1175      14.819 -17.533  -0.730  0.00  0.00     0.087 C 
ATOM     55  C8  NAG d1175      12.809 -15.714  -1.908  0.00  0.00    -0.003 C 
ATOM     56  O7  NAG d1175      14.674 -14.364  -2.453  0.00  0.00    -0.274 OA
ATOM     57  C3  NAG d1175      14.964 -17.199   0.747  0.00  0.00     0.093 C 
ATOM     58  C4  NAG d1175      14.655 -18.470   1.550  0.00  0.00     0.089 C 
ATOM     59  C1  NAG d1175      15.771 -18.682  -1.031  0.00  0.00     0.151 C 
ATOM     60  C5  NAG d1175      15.482 -19.670   1.073  0.00  0.00     0.089 C 
ATOM     61  O5  NAG d1175      15.381 -19.852  -0.327  0.00  0.00    -0.349 OA
ATOM     62  H   NAG d1175      15.973 -18.127  -2.891  0.00  0.00     0.212 HD
ATOM     63  H   NAG d1175      15.744 -22.744   2.036  0.00  0.00     0.209 HD
ATOM     64  H   NAG d1175      14.273 -17.511   3.235  0.00  0.00     0.210 HD
ATOM     65  H   NAG d1175      16.053 -16.354  -1.972  0.00  0.00     0.163 HD
ATOM     66  H   NAG d1175      14.906 -20.753   2.819  0.00  0.00     0.078 H 
ATOM     67  H   NAG d1175      14.105 -21.279   1.363  0.00  0.00     0.078 H 
ATOM     68  H   NAG d1175      13.794 -17.784  -0.909  0.00  0.00     0.084 H 
ATOM     69  H   NAG d1175      12.648 -16.695  -1.511  0.00  0.00     0.040 H 
ATOM     70  H   NAG d1175      12.365 -15.644  -2.879  0.00  0.00     0.040 H 
ATOM     71  H   NAG d1175      12.364 -14.989  -1.259  0.00  0.00     0.040 H 
ATOM     72  H   NAG d1175      15.943 -16.878   1.036  0.00  0.00     0.091 H 
ATOM     73  H   NAG d1175      13.624 -18.693   1.366  0.00  0.00     0.091 H 
ATOM     74  H   NAG d1175      16.764 -18.425  -0.727  0.00  0.00     0.132 H 
ATOM     75  H   NAG d1175      16.502 -19.463   1.318  0.00  0.00     0.090 H 
ATOM     76  C2  NAG d1181      -0.128 -14.863  20.468  0.00  0.00     0.087 C 
ATOM     77  C8  NAG d1181      -2.194 -14.000  18.563  0.00  0.00    -0.003 C 
ATOM     78  O5  NAG d1181       1.851 -16.257  20.852  0.00  0.00    -0.349 OA
ATOM     79  O4  NAG d1181      -0.964 -17.587  22.813  0.00  0.00    -0.390 OA
ATOM     80  C3  NAG d1181      -0.773 -15.461  21.708  0.00  0.00     0.086 C 
ATOM     81  C1  NAG d1181       1.399 -14.949  20.534  0.00  0.00     0.154 C 
ATOM     82  N2  NAG d1181      -0.537 -13.482  20.282  0.00  0.00    -0.349 N 
ATOM     83  C4  NAG d1181      -0.283 -16.902  21.785  0.00  0.00     0.089 C 
ATOM     84  O6  NAG d1181       2.347 -18.852  21.179  0.00  0.00    -0.398 OA
ATOM     85  O3  NAG d1181      -2.188 -15.374  21.659  0.00  0.00    -0.391 OA
ATOM     86  C5  NAG d1181       1.240 -16.841  22.000  0.00  0.00     0.089 C 
ATOM     87  O7  NAG d1181      -1.063 -11.933  18.731  0.00  0.00    -0.274 OA
ATOM     88  C7  NAG d1181      -1.213 -13.059  19.203  0.00  0.00     0.214 C 
ATOM     89  C6  NAG d1181       1.890 -18.190  22.341  0.00  0.00     0.043 C 
ATOM     90  H   NAG d1181      -0.461 -15.439  19.630  0.00  0.00     0.084 H 
ATOM     91  H   NAG d1181      -2.198 -14.928  19.096  0.00  0.00     0.040 H 
ATOM     92  H   NAG d1181      -1.910 -14.174  17.545  0.00  0.00     0.040 H 
ATOM     93  H   NAG d1181      -3.172 -13.568  18.591  0.00  0.00     0.040 H 
ATOM     94  H   NAG d1181      -1.915 -17.593  22.623  0.00  0.00     0.210 HD
ATOM     95  H   NAG d1181      -0.497 -14.920  22.588  0.00  0.00     0.090 H 
ATOM     96  H   NAG d1181       1.802 -14.332  21.309  0.00  0.00     0.132 H 
ATOM     97  H   NAG d1181      -0.309 -12.826  20.981  0.00  0.00     0.163 HD
ATOM     98  H   NAG d1181      -0.485 -17.449  20.888  0.00  0.00     0.091 H 
ATOM     99  H   NAG d1181       2.752 -19.698  21.428  0.00  0.00     0.209 HD
ATOM    100  H   NAG d1181      -2.514 -15.848  20.879  0.00  0.00     0.210 HD
ATOM    101  H   NAG d1181       1.405 -16.233  22.865  0.00  0.00     0.090 H 
ATOM    102  H   NAG d1181       2.720 -18.021  22.994  0.00  0.00     0.078 H 
ATOM    103  H   NAG d1181       1.154 -18.808  22.812  0.00  0.00     0.078 H 
ATOM    104  C4  NAG d1179       7.948 -11.218  17.836  0.00  0.00     0.089 C 
ATOM    105  N2  NAG d1179       7.501 -13.253  14.638  0.00  0.00    -0.349 N 
ATOM    106  C6  NAG d1179       9.409  -9.155  17.971  0.00  0.00     0.043 C 
ATOM    107  O4  NAG d1179       7.012 -10.725  18.790  0.00  0.00    -0.390 OA
ATOM    108  O6  NAG d1179      10.565  -9.843  18.403  0.00  0.00    -0.398 OA
ATOM    109  C1  NAG d1179       8.761 -11.225  15.061  0.00  0.00     0.154 C 
ATOM    110  C5  NAG d1179       8.573 -10.053  17.075  0.00  0.00     0.089 C 
ATOM    111  O5  NAG d1179       9.443 -10.541  16.069  0.00  0.00    -0.349 OA
ATOM    112  C2  NAG d1179       8.159 -12.483  15.678  0.00  0.00     0.087 C 
ATOM    113  C8  NAG d1179       7.061 -15.191  13.312  0.00  0.00    -0.003 C 
ATOM    114  C7  NAG d1179       7.675 -14.568  14.521  0.00  0.00     0.214 C 
ATOM    115  C3  NAG d1179       7.235 -12.146  16.861  0.00  0.00     0.093 C 
ATOM    116  O3  NAG d1179       6.874 -13.335  17.547  0.00  0.00    -0.348 OA
ATOM    117  O7  NAG d1179       8.280 -15.253  15.339  0.00  0.00    -0.274 OA
ATOM    118  H   NAG d1179       8.720 -11.760  18.344  0.00  0.00     0.091 H 
ATOM    119  H   NAG d1179       6.910 -12.790  14.002  0.00  0.00     0.163 HD
ATOM    120  H   NAG d1179       8.830  -8.867  18.823  0.00  0.00     0.078 H 
ATOM    121  H   NAG d1179       9.702  -8.285  17.422  0.00  0.00     0.078 H 
ATOM    122  H   NAG d1179       6.312 -10.234  18.332  0.00  0.00     0.210 HD
ATOM    123  H   NAG d1179      10.303 -10.633  18.902  0.00  0.00     0.209 HD
ATOM    124  H   NAG d1179       8.043 -10.559  14.630  0.00  0.00     0.132 H 
ATOM    125  H   NAG d1179       7.758  -9.494  16.665  0.00  0.00     0.090 H 
ATOM    126  H   NAG d1179       8.937 -13.088  16.095  0.00  0.00     0.084 H 
ATOM    127  H   NAG d1179       6.582 -14.435  12.726  0.00  0.00     0.040 H 
ATOM    128  H   NAG d1179       6.338 -15.919  13.615  0.00  0.00     0.040 H 
ATOM    129  H   NAG d1179       7.823 -15.664  12.729  0.00  0.00     0.040 H 
ATOM    130  H   NAG d1179       6.360 -11.664  16.478  0.00  0.00     0.091 H 
ATOM    131  O5  BDP d1180       4.868 -12.727  18.509  0.00  0.00    -0.340 OA
ATOM    132  O6A BDP d1180       1.970 -11.172  19.142  0.00  0.00    -0.646 OA
ATOM    133  O2  BDP d1180       5.592 -15.798  16.719  0.00  0.00    -0.388 OA
ATOM    134  O3  BDP d1180       3.757 -16.639  18.859  0.00  0.00    -0.390 OA
ATOM    135  C5  BDP d1180       3.478 -12.926  18.640  0.00  0.00     0.152 C 
ATOM    136  C2  BDP d1180       5.239 -15.043  17.858  0.00  0.00     0.110 C 
ATOM    137  C3  BDP d1180       3.793 -15.377  18.216  0.00  0.00     0.092 C 
ATOM    138  C6  BDP d1180       2.931 -11.850  19.565  0.00  0.00     0.206 C 
ATOM    139  C1  BDP d1180       5.458 -13.563  17.544  0.00  0.00     0.160 C 
ATOM    140  C4  BDP d1180       3.213 -14.332  19.156  0.00  0.00     0.103 C 
ATOM    141  O6B BDP d1180       3.490 -11.696  20.682  0.00  0.00    -0.646 OA
ATOM    142  O4  BDP d1180       1.828 -14.540  19.225  0.00  0.00    -0.348 OA
ATOM    143  H   BDP d1180       6.509 -15.602  16.472  0.00  0.00     0.210 HD
ATOM    144  H   BDP d1180       4.126 -17.313  18.267  0.00  0.00     0.210 HD
ATOM    145  H   BDP d1180       2.979 -12.843  17.697  0.00  0.00     0.104 H 
ATOM    146  H   BDP d1180       5.845 -15.279  18.709  0.00  0.00     0.094 H 
ATOM    147  H   BDP d1180       3.213 -15.392  17.317  0.00  0.00     0.091 H 
ATOM    148  H   BDP d1180       5.008 -13.337  16.600  0.00  0.00     0.133 H 
ATOM    149  H   BDP d1180       3.671 -14.428  20.118  0.00  0.00     0.092 H 
ATOM    150  C3  BDP d1176      13.628 -12.959   2.966  0.00  0.00     0.092 C 
ATOM    151  O4  BDP d1176      13.275 -12.809   5.405  0.00  0.00    -0.348 OA
ATOM    152  O3  BDP d1176      12.857 -11.813   2.623  0.00  0.00    -0.390 OA
ATOM    153  O5  BDP d1176      13.805 -15.796   3.279  0.00  0.00    -0.340 OA
ATOM    154  O2  BDP d1176      14.271 -13.331   0.675  0.00  0.00    -0.388 OA
ATOM    155  C1  BDP d1176      14.315 -15.261   2.076  0.00  0.00     0.160 C 
ATOM    156  O6B BDP d1176      14.040 -15.991   6.540  0.00  0.00    -0.646 OA
ATOM    157  C5  BDP d1176      13.892 -14.939   4.423  0.00  0.00     0.152 C 
ATOM    158  O6A BDP d1176      12.130 -16.207   5.416  0.00  0.00    -0.646 OA
ATOM    159  C6  BDP d1176      13.302 -15.763   5.544  0.00  0.00     0.206 C 
ATOM    160  C4  BDP d1176      13.122 -13.627   4.255  0.00  0.00     0.103 C 
ATOM    161  C2  BDP d1176      13.617 -13.932   1.780  0.00  0.00     0.110 C 
ATOM    162  H   BDP d1176      14.635 -12.656   3.167  0.00  0.00     0.091 H 
ATOM    163  H   BDP d1176      11.943 -12.082   2.440  0.00  0.00     0.210 HD
ATOM    164  H   BDP d1176      13.845 -12.484   0.469  0.00  0.00     0.210 HD
ATOM    165  H   BDP d1176      15.371 -15.123   2.181  0.00  0.00     0.133 H 
ATOM    166  H   BDP d1176      14.902 -14.636   4.599  0.00  0.00     0.104 H 
ATOM    167  H   BDP d1176      12.070 -13.798   4.164  0.00  0.00     0.092 H 
ATOM    168  H   BDP d1176      12.589 -14.143   1.571  0.00  0.00     0.094 H 
ENDROOT
TORSDOF 43
ENDMDL
MODEL 18
REMARK VINA RESULT:      -7.6      4.421      5.956
REMARK  0 active torsions:
REMARK  status: ('A' for Active; 'I' for Inactive)
REMARK       I    between atoms: C3_1  and  O3_90 
REMARK       I    between atoms: O1_4  and  C1_76 
REMARK       I    between atoms: C2_5  and  N2_21 
REMARK       I    between atoms: C8_6  and  C7_66 
REMARK       I    between atoms: C4_7  and  O4_24 
REMARK       I    between atoms: N2_9  and  C2_60 
REMARK       I    between atoms: N2_9  and  C7_69 
REMARK       I    between atoms: O4_12  and  C4_26 
REMARK       I    between atoms: O3_13  and  C3_65 
REMARK       I    between atoms: O3_13  and  C1_61 
REMARK       I    between atoms: C3_14  and  O3_35 
REMARK       I    between atoms: C6_15  and  C5_53 
REMARK       I    between atoms: C6_15  and  O6_46 
REMARK       I    between atoms: O6_16  and  C6_54 
REMARK       I    between atoms: C4_17  and  O4_49 
REMARK       I    between atoms: O4_18  and  C4_28 
REMARK       I    between atoms: O4_18  and  C1_47 
REMARK       I    between atoms: C3_19  and  O3_43 
REMARK       I    between atoms: C1_20  and  O4_91 
REMARK       I    between atoms: N2_21  and  C7_66 
REMARK       I    between atoms: O3_22  and  C3_82 
REMARK       I    between atoms: C7_23  and  C8_62 
REMARK       I    between atoms: C7_23  and  N2_51 
REMARK       I    between atoms: C2_25  and  N2_41 
REMARK       I    between atoms: C1_27  and  O3_90 
REMARK       I    between atoms: O6_29  and  C6_74 
REMARK       I    between atoms: O2_30  and  C2_37 
REMARK       I    between atoms: C2_31  and  O2_42 
REMARK       I    between atoms: O3_32  and  C3_45 
REMARK       I    between atoms: O4_33  and  C4_73 
REMARK       I    between atoms: O4_34  and  C4_84 
REMARK       I    between atoms: O4_34  and  C1_85 
REMARK       I    between atoms: C5_36  and  C6_48 
REMARK       I    between atoms: C6_38  and  C5_40 
REMARK       I    between atoms: C6_38  and  O6_89 
REMARK       I    between atoms: N2_41  and  C7_50 
REMARK       I    between atoms: C5_44  and  C6_74 
REMARK       I    between atoms: C7_50  and  C8_75 
REMARK       I    between atoms: N2_51  and  C2_58 
REMARK       I    between atoms: C1_52  and  O3_87 
REMARK       I    between atoms: C6_54  and  C5_86 
REMARK       I    between atoms: O2_59  and  C2_93 
REMARK       I    between atoms: C8_64  and  C7_69 
REMARK       I    between atoms: C6_70  and  C5_80 
REMARK       I    between atoms: C4_72  and  O4_91 
REMARK       I    between atoms: C5_77  and  C6_79 
REMARK       I    between atoms: C3_83  and  O3_87 
ROOT
ATOM      1  C3  NAG d1177      13.523 -11.177   7.944  0.00  0.00     0.093 C 
ATOM      2  O7  NAG d1177      10.774  -9.684  10.235  0.00  0.00    -0.274 OA
ATOM      3  C4  NAG d1177      15.024 -10.875   7.785  0.00  0.00     0.089 C 
ATOM      4  C2  NAG d1177      13.134 -11.163   9.413  0.00  0.00     0.087 C 
ATOM      5  C6  NAG d1177      17.360 -11.381   8.677  0.00  0.00     0.043 C 
ATOM      6  C5  NAG d1177      15.865 -11.740   8.710  0.00  0.00     0.089 C 
ATOM      7  N2  NAG d1177      11.770 -11.679   9.629  0.00  0.00    -0.349 N 
ATOM      8  O4  NAG d1177      15.433 -11.080   6.446  0.00  0.00    -0.390 OA
ATOM      9  C7  NAG d1177      10.725 -10.933   9.995  0.00  0.00     0.214 C 
ATOM     10  O5  NAG d1177      15.408 -11.604  10.050  0.00  0.00    -0.349 OA
ATOM     11  C8  NAG d1177       9.470 -11.751  10.158  0.00  0.00    -0.003 C 
ATOM     12  C1  NAG d1177      14.081 -12.037  10.235  0.00  0.00     0.154 C 
ATOM     13  O6  NAG d1177      17.575 -10.058   9.138  0.00  0.00    -0.398 OA
ATOM     14  O3  NAG d1177      12.774 -10.174   7.315  0.00  0.00    -0.348 OA
ATOM     15  H   NAG d1177      13.332 -12.137   7.513  0.00  0.00     0.091 H 
ATOM     16  H   NAG d1177      15.173  -9.849   8.049  0.00  0.00     0.091 H 
ATOM     17  H   NAG d1177      13.189 -10.140   9.724  0.00  0.00     0.084 H 
ATOM     18  H   NAG d1177      17.718 -11.464   7.672  0.00  0.00     0.078 H 
ATOM     19  H   NAG d1177      17.887 -12.055   9.319  0.00  0.00     0.078 H 
ATOM     20  H   NAG d1177      15.757 -12.745   8.361  0.00  0.00     0.090 H 
ATOM     21  H   NAG d1177      11.618 -12.643   9.493  0.00  0.00     0.163 HD
ATOM     22  H   NAG d1177      15.298 -12.010   6.205  0.00  0.00     0.210 HD
ATOM     23  H   NAG d1177       8.663 -11.111  10.451  0.00  0.00     0.040 H 
ATOM     24  H   NAG d1177       9.625 -12.496  10.910  0.00  0.00     0.040 H 
ATOM     25  H   NAG d1177       9.230 -12.226   9.229  0.00  0.00     0.040 H 
ATOM     26  H   NAG d1177      14.013 -13.053   9.909  0.00  0.00     0.132 H 
ATOM     27  H   NAG d1177      17.102  -9.435   8.563  0.00  0.00     0.209 HD
ATOM     28  O6A BDP d1178      13.534 -11.759   2.863  0.00  0.00    -0.646 OA
ATOM     29  O4  BDP d1178       9.535 -11.501   3.146  0.00  0.00    -0.348 OA
ATOM     30  O3  BDP d1178       9.252  -8.963   4.403  0.00  0.00    -0.390 OA
ATOM     31  C1  BDP d1178      11.840 -10.700   6.361  0.00  0.00     0.160 C 
ATOM     32  C4  BDP d1178      10.588 -10.841   3.809  0.00  0.00     0.103 C 
ATOM     33  C2  BDP d1178      10.972  -9.544   5.910  0.00  0.00     0.110 C 
ATOM     34  O2  BDP d1178      10.337  -8.948   7.011  0.00  0.00    -0.388 OA
ATOM     35  O6B BDP d1178      12.040 -13.372   2.477  0.00  0.00    -0.646 OA
ATOM     36  O5  BDP d1178      12.492 -11.246   5.229  0.00  0.00    -0.340 OA
ATOM     37  C6  BDP d1178      12.459 -12.370   3.122  0.00  0.00     0.206 C 
ATOM     38  C5  BDP d1178      11.619 -11.848   4.295  0.00  0.00     0.152 C 
ATOM     39  C3  BDP d1178       9.926 -10.072   4.969  0.00  0.00     0.092 C 
ATOM     40  H   BDP d1178       8.569  -9.278   3.790  0.00  0.00     0.210 HD
ATOM     41  H   BDP d1178      11.274 -11.484   6.817  0.00  0.00     0.133 H 
ATOM     42  H   BDP d1178      11.121 -10.169   3.169  0.00  0.00     0.092 H 
ATOM     43  H   BDP d1178      11.582  -8.811   5.425  0.00  0.00     0.094 H 
ATOM     44  H   BDP d1178       9.780  -9.605   7.459  0.00  0.00     0.210 HD
ATOM     45  H   BDP d1178      11.091 -12.658   4.752  0.00  0.00     0.104 H 
ATOM     46  H   BDP d1178       9.263 -10.720   5.505  0.00  0.00     0.091 H 
ATOM     47  O1  NAG d1175      15.294 -17.001  20.372  0.00  0.00    -0.369 OA
ATOM     48  O3  NAG d1175      14.947 -15.079  16.116  0.00  0.00    -0.348 OA
ATOM     49  O6  NAG d1175      10.724 -18.494  18.958  0.00  0.00    -0.398 OA
ATOM     50  C7  NAG d1175      17.383 -14.934  18.002  0.00  0.00     0.214 C 
ATOM     51  O4  NAG d1175      12.092 -15.979  16.045  0.00  0.00    -0.390 OA
ATOM     52  N2  NAG d1175      16.230 -15.150  18.648  0.00  0.00    -0.349 N 
ATOM     53  C6  NAG d1175      11.533 -18.221  17.846  0.00  0.00     0.043 C 
ATOM     54  C2  NAG d1175      15.161 -16.065  18.216  0.00  0.00     0.087 C 
ATOM     55  C8  NAG d1175      17.859 -15.950  17.014  0.00  0.00    -0.003 C 
ATOM     56  O7  NAG d1175      18.062 -13.915  18.205  0.00  0.00    -0.274 OA
ATOM     57  C3  NAG d1175      14.174 -15.437  17.244  0.00  0.00     0.093 C 
ATOM     58  C4  NAG d1175      13.098 -16.485  16.924  0.00  0.00     0.089 C 
ATOM     59  C1  NAG d1175      14.373 -16.511  19.439  0.00  0.00     0.151 C 
ATOM     60  C5  NAG d1175      12.472 -17.076  18.193  0.00  0.00     0.089 C 
ATOM     61  O5  NAG d1175      13.457 -17.541  19.096  0.00  0.00    -0.349 OA
ATOM     62  H   NAG d1175      15.920 -16.298  20.608  0.00  0.00     0.212 HD
ATOM     63  H   NAG d1175      10.121 -19.224  18.748  0.00  0.00     0.209 HD
ATOM     64  H   NAG d1175      12.511 -15.611  15.251  0.00  0.00     0.210 HD
ATOM     65  H   NAG d1175      16.085 -14.653  19.485  0.00  0.00     0.163 HD
ATOM     66  H   NAG d1175      10.920 -17.945  17.014  0.00  0.00     0.078 H 
ATOM     67  H   NAG d1175      12.101 -19.091  17.587  0.00  0.00     0.078 H 
ATOM     68  H   NAG d1175      15.644 -16.876  17.713  0.00  0.00     0.084 H 
ATOM     69  H   NAG d1175      17.157 -16.756  16.965  0.00  0.00     0.040 H 
ATOM     70  H   NAG d1175      18.813 -16.325  17.320  0.00  0.00     0.040 H 
ATOM     71  H   NAG d1175      17.947 -15.495  16.049  0.00  0.00     0.040 H 
ATOM     72  H   NAG d1175      13.666 -14.574  17.621  0.00  0.00     0.091 H 
ATOM     73  H   NAG d1175      13.601 -17.278  16.411  0.00  0.00     0.091 H 
ATOM     74  H   NAG d1175      13.815 -15.689  19.837  0.00  0.00     0.132 H 
ATOM     75  H   NAG d1175      11.921 -16.289  18.664  0.00  0.00     0.090 H 
ATOM     76  C2  NAG d1181       7.832 -18.349  -6.703  0.00  0.00     0.087 C 
ATOM     77  C8  NAG d1181      10.618 -19.172  -7.157  0.00  0.00    -0.003 C 
ATOM     78  O5  NAG d1181       5.943 -18.288  -5.144  0.00  0.00    -0.349 OA
ATOM     79  O4  NAG d1181       5.149 -20.574  -7.914  0.00  0.00    -0.390 OA
ATOM     80  C3  NAG d1181       6.925 -18.961  -7.757  0.00  0.00     0.086 C 
ATOM     81  C1  NAG d1181       7.034 -17.548  -5.672  0.00  0.00     0.154 C 
ATOM     82  N2  NAG d1181       8.842 -17.502  -7.313  0.00  0.00    -0.349 N 
ATOM     83  C4  NAG d1181       5.927 -19.831  -7.002  0.00  0.00     0.089 C 
ATOM     84  O6  NAG d1181       4.188 -20.037  -4.170  0.00  0.00    -0.398 OA
ATOM     85  O3  NAG d1181       7.659 -19.696  -8.723  0.00  0.00    -0.391 OA
ATOM     86  C5  NAG d1181       5.093 -18.886  -6.119  0.00  0.00     0.089 C 
ATOM     87  O7  NAG d1181      10.991 -16.840  -7.168  0.00  0.00    -0.274 OA
ATOM     88  C7  NAG d1181      10.158 -17.743  -7.210  0.00  0.00     0.214 C 
ATOM     89  C6  NAG d1181       3.874 -19.543  -5.456  0.00  0.00     0.043 C 
ATOM     90  H   NAG d1181       8.318 -19.157  -6.197  0.00  0.00     0.084 H 
ATOM     91  H   NAG d1181       9.768 -19.822  -7.204  0.00  0.00     0.040 H 
ATOM     92  H   NAG d1181      11.148 -19.344  -6.243  0.00  0.00     0.040 H 
ATOM     93  H   NAG d1181      11.264 -19.370  -7.986  0.00  0.00     0.040 H 
ATOM     94  H   NAG d1181       5.727 -21.149  -8.440  0.00  0.00     0.210 HD
ATOM     95  H   NAG d1181       6.417 -18.205  -8.318  0.00  0.00     0.090 H 
ATOM     96  H   NAG d1181       6.582 -16.679  -6.103  0.00  0.00     0.132 H 
ATOM     97  H   NAG d1181       8.547 -16.714  -7.826  0.00  0.00     0.163 HD
ATOM     98  H   NAG d1181       6.410 -20.554  -6.377  0.00  0.00     0.091 H 
ATOM     99  H   NAG d1181       3.400 -20.444  -3.778  0.00  0.00     0.209 HD
ATOM    100  H   NAG d1181       8.150 -20.407  -8.283  0.00  0.00     0.210 HD
ATOM    101  H   NAG d1181       4.682 -18.142  -6.768  0.00  0.00     0.090 H 
ATOM    102  H   NAG d1181       3.093 -18.818  -5.369  0.00  0.00     0.078 H 
ATOM    103  H   NAG d1181       3.564 -20.366  -6.065  0.00  0.00     0.078 H 
ATOM    104  C4  NAG d1179       7.824 -11.365  -0.649  0.00  0.00     0.089 C 
ATOM    105  N2  NAG d1179       9.375 -13.854   1.794  0.00  0.00    -0.349 N 
ATOM    106  C6  NAG d1179       8.068  -8.856  -0.410  0.00  0.00     0.043 C 
ATOM    107  O4  NAG d1179       7.801 -11.315  -2.072  0.00  0.00    -0.390 OA
ATOM    108  O6  NAG d1179       6.874  -8.680   0.325  0.00  0.00    -0.398 OA
ATOM    109  C1  NAG d1179       9.484 -11.433   1.718  0.00  0.00     0.154 C 
ATOM    110  C5  NAG d1179       8.670 -10.217  -0.105  0.00  0.00     0.089 C 
ATOM    111  O5  NAG d1179       8.766 -10.310   1.305  0.00  0.00    -0.349 OA
ATOM    112  C2  NAG d1179       8.687 -12.669   1.315  0.00  0.00     0.087 C 
ATOM    113  C8  NAG d1179       9.596 -15.910   2.989  0.00  0.00    -0.003 C 
ATOM    114  C7  NAG d1179       8.731 -14.838   2.418  0.00  0.00     0.214 C 
ATOM    115  C3  NAG d1179       8.413 -12.696  -0.198  0.00  0.00     0.093 C 
ATOM    116  O3  NAG d1179       7.488 -13.728  -0.505  0.00  0.00    -0.348 OA
ATOM    117  O7  NAG d1179       7.510 -14.895   2.523  0.00  0.00    -0.274 OA
ATOM    118  H   NAG d1179       6.826 -11.272  -0.274  0.00  0.00     0.091 H 
ATOM    119  H   NAG d1179      10.347 -13.933   1.653  0.00  0.00     0.163 HD
ATOM    120  H   NAG d1179       7.853  -8.791  -1.456  0.00  0.00     0.078 H 
ATOM    121  H   NAG d1179       8.766  -8.094  -0.135  0.00  0.00     0.078 H 
ATOM    122  H   NAG d1179       8.705 -11.400  -2.413  0.00  0.00     0.210 HD
ATOM    123  H   NAG d1179       6.238  -9.370   0.078  0.00  0.00     0.209 HD
ATOM    124  H   NAG d1179      10.463 -11.381   1.290  0.00  0.00     0.132 H 
ATOM    125  H   NAG d1179       9.626 -10.302  -0.578  0.00  0.00     0.090 H 
ATOM    126  H   NAG d1179       7.721 -12.641   1.774  0.00  0.00     0.084 H 
ATOM    127  H   NAG d1179      10.623 -15.681   2.796  0.00  0.00     0.040 H 
ATOM    128  H   NAG d1179       9.348 -16.847   2.535  0.00  0.00     0.040 H 
ATOM    129  H   NAG d1179       9.437 -15.973   4.045  0.00  0.00     0.040 H 
ATOM    130  H   NAG d1179       9.339 -12.872  -0.705  0.00  0.00     0.091 H 
ATOM    131  O5  BDP d1180       8.011 -14.186  -2.703  0.00  0.00    -0.340 OA
ATOM    132  O6A BDP d1180       9.660 -14.445  -5.607  0.00  0.00    -0.646 OA
ATOM    133  O2  BDP d1180       7.473 -16.588  -0.038  0.00  0.00    -0.388 OA
ATOM    134  O3  BDP d1180       6.335 -17.896  -2.415  0.00  0.00    -0.390 OA
ATOM    135  C5  BDP d1180       8.462 -15.104  -3.675  0.00  0.00     0.152 C 
ATOM    136  C2  BDP d1180       7.173 -15.965  -1.269  0.00  0.00     0.110 C 
ATOM    137  C3  BDP d1180       7.415 -16.979  -2.384  0.00  0.00     0.092 C 
ATOM    138  C6  BDP d1180       8.568 -14.371  -5.004  0.00  0.00     0.206 C 
ATOM    139  C1  BDP d1180       8.034 -14.709  -1.398  0.00  0.00     0.160 C 
ATOM    140  C4  BDP d1180       7.510 -16.289  -3.733  0.00  0.00     0.103 C 
ATOM    141  O6B BDP d1180       7.564 -13.724  -5.399  0.00  0.00    -0.646 OA
ATOM    142  O4  BDP d1180       7.999 -17.221  -4.659  0.00  0.00    -0.348 OA
ATOM    143  H   BDP d1180       7.326 -15.960   0.686  0.00  0.00     0.210 HD
ATOM    144  H   BDP d1180       6.265 -18.343  -1.557  0.00  0.00     0.210 HD
ATOM    145  H   BDP d1180       9.427 -15.493  -3.430  0.00  0.00     0.104 H 
ATOM    146  H   BDP d1180       6.150 -15.655  -1.331  0.00  0.00     0.094 H 
ATOM    147  H   BDP d1180       8.337 -17.486  -2.189  0.00  0.00     0.091 H 
ATOM    148  H   BDP d1180       9.049 -14.956  -1.164  0.00  0.00     0.133 H 
ATOM    149  H   BDP d1180       6.543 -15.928  -4.016  0.00  0.00     0.092 H 
ATOM    150  C3  BDP d1176      15.259 -12.357  13.499  0.00  0.00     0.092 C 
ATOM    151  O4  BDP d1176      13.705 -11.979  11.619  0.00  0.00    -0.348 OA
ATOM    152  O3  BDP d1176      16.436 -11.933  12.821  0.00  0.00    -0.390 OA
ATOM    153  O5  BDP d1176      13.543 -14.485  14.342  0.00  0.00    -0.340 OA
ATOM    154  O2  BDP d1176      16.461 -12.725  15.553  0.00  0.00    -0.388 OA
ATOM    155  C1  BDP d1176      14.456 -13.992  15.301  0.00  0.00     0.160 C 
ATOM    156  O6B BDP d1176      10.942 -13.899  12.442  0.00  0.00    -0.646 OA
ATOM    157  C5  BDP d1176      13.087 -13.532  13.377  0.00  0.00     0.152 C 
ATOM    158  O6A BDP d1176      12.546 -15.357  11.937  0.00  0.00    -0.646 OA
ATOM    159  C6  BDP d1176      12.129 -14.317  12.511  0.00  0.00     0.206 C 
ATOM    160  C4  BDP d1176      14.216 -12.939  12.531  0.00  0.00     0.103 C 
ATOM    161  C2  BDP d1176      15.655 -13.370  14.582  0.00  0.00     0.110 C 
ATOM    162  H   BDP d1176      14.795 -11.510  13.959  0.00  0.00     0.091 H 
ATOM    163  H   BDP d1176      16.861 -12.698  12.402  0.00  0.00     0.210 HD
ATOM    164  H   BDP d1176      17.229 -12.321  15.120  0.00  0.00     0.210 HD
ATOM    165  H   BDP d1176      13.958 -13.267  15.911  0.00  0.00     0.133 H 
ATOM    166  H   BDP d1176      12.638 -12.686  13.855  0.00  0.00     0.104 H 
ATOM    167  H   BDP d1176      14.687 -13.686  11.926  0.00  0.00     0.092 H 
ATOM    168  H   BDP d1176      16.180 -14.157  14.083  0.00  0.00     0.094 H 
ENDROOT
TORSDOF 43
ENDMDL
MODEL 19
REMARK VINA RESULT:      -7.5      5.285      8.578
REMARK  0 active torsions:
REMARK  status: ('A' for Active; 'I' for Inactive)
REMARK       I    between atoms: C3_1  and  O3_90 
REMARK       I    between atoms: O1_4  and  C1_76 
REMARK       I    between atoms: C2_5  and  N2_21 
REMARK       I    between atoms: C8_6  and  C7_66 
REMARK       I    between atoms: C4_7  and  O4_24 
REMARK       I    between atoms: N2_9  and  C2_60 
REMARK       I    between atoms: N2_9  and  C7_69 
REMARK       I    between atoms: O4_12  and  C4_26 
REMARK       I    between atoms: O3_13  and  C3_65 
REMARK       I    between atoms: O3_13  and  C1_61 
REMARK       I    between atoms: C3_14  and  O3_35 
REMARK       I    between atoms: C6_15  and  C5_53 
REMARK       I    between atoms: C6_15  and  O6_46 
REMARK       I    between atoms: O6_16  and  C6_54 
REMARK       I    between atoms: C4_17  and  O4_49 
REMARK       I    between atoms: O4_18  and  C4_28 
REMARK       I    between atoms: O4_18  and  C1_47 
REMARK       I    between atoms: C3_19  and  O3_43 
REMARK       I    between atoms: C1_20  and  O4_91 
REMARK       I    between atoms: N2_21  and  C7_66 
REMARK       I    between atoms: O3_22  and  C3_82 
REMARK       I    between atoms: C7_23  and  C8_62 
REMARK       I    between atoms: C7_23  and  N2_51 
REMARK       I    between atoms: C2_25  and  N2_41 
REMARK       I    between atoms: C1_27  and  O3_90 
REMARK       I    between atoms: O6_29  and  C6_74 
REMARK       I    between atoms: O2_30  and  C2_37 
REMARK       I    between atoms: C2_31  and  O2_42 
REMARK       I    between atoms: O3_32  and  C3_45 
REMARK       I    between atoms: O4_33  and  C4_73 
REMARK       I    between atoms: O4_34  and  C4_84 
REMARK       I    between atoms: O4_34  and  C1_85 
REMARK       I    between atoms: C5_36  and  C6_48 
REMARK       I    between atoms: C6_38  and  C5_40 
REMARK       I    between atoms: C6_38  and  O6_89 
REMARK       I    between atoms: N2_41  and  C7_50 
REMARK       I    between atoms: C5_44  and  C6_74 
REMARK       I    between atoms: C7_50  and  C8_75 
REMARK       I    between atoms: N2_51  and  C2_58 
REMARK       I    between atoms: C1_52  and  O3_87 
REMARK       I    between atoms: C6_54  and  C5_86 
REMARK       I    between atoms: O2_59  and  C2_93 
REMARK       I    between atoms: C8_64  and  C7_69 
REMARK       I    between atoms: C6_70  and  C5_80 
REMARK       I    between atoms: C4_72  and  O4_91 
REMARK       I    between atoms: C5_77  and  C6_79 
REMARK       I    between atoms: C3_83  and  O3_87 
ROOT
ATOM      1  C3  NAG d1177       9.145 -14.924  16.314  0.00  0.00     0.093 C 
ATOM      2  O7  NAG d1177       8.146 -12.221  18.908  0.00  0.00    -0.274 OA
ATOM      3  C4  NAG d1177       9.735 -16.338  16.457  0.00  0.00     0.089 C 
ATOM      4  C2  NAG d1177       8.081 -14.685  17.373  0.00  0.00     0.087 C 
ATOM      5  C6  NAG d1177       9.183 -18.801  16.832  0.00  0.00     0.043 C 
ATOM      6  C5  NAG d1177       8.640 -17.388  16.558  0.00  0.00     0.089 C 
ATOM      7  N2  NAG d1177       7.325 -13.443  17.127  0.00  0.00    -0.349 N 
ATOM      8  O4  NAG d1177      10.577 -16.639  15.362  0.00  0.00    -0.390 OA
ATOM      9  C7  NAG d1177       7.417 -12.338  17.872  0.00  0.00     0.214 C 
ATOM     10  O5  NAG d1177       7.739 -17.051  17.606  0.00  0.00    -0.349 OA
ATOM     11  C8  NAG d1177       6.503 -11.244  17.384  0.00  0.00    -0.003 C 
ATOM     12  C1  NAG d1177       7.070 -15.830  17.396  0.00  0.00     0.154 C 
ATOM     13  O6  NAG d1177       9.843 -18.857  18.085  0.00  0.00    -0.398 OA
ATOM     14  O3  NAG d1177      10.151 -13.972  16.526  0.00  0.00    -0.348 OA
ATOM     15  H   NAG d1177       8.726 -14.838  15.333  0.00  0.00     0.091 H 
ATOM     16  H   NAG d1177      10.307 -16.355  17.361  0.00  0.00     0.091 H 
ATOM     17  H   NAG d1177       8.603 -14.614  18.305  0.00  0.00     0.084 H 
ATOM     18  H   NAG d1177       9.874 -19.066  16.060  0.00  0.00     0.078 H 
ATOM     19  H   NAG d1177       8.361 -19.485  16.849  0.00  0.00     0.078 H 
ATOM     20  H   NAG d1177       8.148 -17.400  15.609  0.00  0.00     0.090 H 
ATOM     21  H   NAG d1177       6.709 -13.427  16.359  0.00  0.00     0.163 HD
ATOM     22  H   NAG d1177      10.060 -16.623  14.541  0.00  0.00     0.210 HD
ATOM     23  H   NAG d1177       6.612 -10.383  18.009  0.00  0.00     0.040 H 
ATOM     24  H   NAG d1177       5.489 -11.585  17.419  0.00  0.00     0.040 H 
ATOM     25  H   NAG d1177       6.759 -10.988  16.376  0.00  0.00     0.040 H 
ATOM     26  H   NAG d1177       6.561 -15.885  16.457  0.00  0.00     0.132 H 
ATOM     27  H   NAG d1177      10.593 -18.241  18.083  0.00  0.00     0.209 HD
ATOM     28  O6A BDP d1178      12.207 -14.519  12.237  0.00  0.00    -0.646 OA
ATOM     29  O4  BDP d1178      11.483 -10.575  12.487  0.00  0.00    -0.348 OA
ATOM     30  O3  BDP d1178      12.371 -10.036  15.136  0.00  0.00    -0.390 OA
ATOM     31  C1  BDP d1178      10.265 -13.039  15.441  0.00  0.00     0.160 C 
ATOM     32  C4  BDP d1178      11.685 -11.576  13.456  0.00  0.00     0.103 C 
ATOM     33  C2  BDP d1178      11.236 -11.965  15.883  0.00  0.00     0.110 C 
ATOM     34  O2  BDP d1178      10.792 -11.359  17.070  0.00  0.00    -0.388 OA
ATOM     35  O6B BDP d1178      11.062 -13.256  10.796  0.00  0.00    -0.646 OA
ATOM     36  O5  BDP d1178      10.768 -13.651  14.268  0.00  0.00    -0.340 OA
ATOM     37  C6  BDP d1178      11.406 -13.580  11.967  0.00  0.00     0.206 C 
ATOM     38  C5  BDP d1178      10.824 -12.791  13.148  0.00  0.00     0.152 C 
ATOM     39  C3  BDP d1178      11.319 -10.923  14.804  0.00  0.00     0.092 C 
ATOM     40  H   BDP d1178      12.445  -9.351  14.453  0.00  0.00     0.210 HD
ATOM     41  H   BDP d1178       9.297 -12.646  15.211  0.00  0.00     0.133 H 
ATOM     42  H   BDP d1178      12.693 -11.935  13.475  0.00  0.00     0.092 H 
ATOM     43  H   BDP d1178      12.195 -12.406  16.058  0.00  0.00     0.094 H 
ATOM     44  H   BDP d1178       9.922 -10.956  16.921  0.00  0.00     0.210 HD
ATOM     45  H   BDP d1178       9.844 -12.440  12.902  0.00  0.00     0.104 H 
ATOM     46  H   BDP d1178      10.376 -10.423  14.722  0.00  0.00     0.091 H 
ATOM     47  O1  NAG d1175      -3.156 -18.782  21.345  0.00  0.00    -0.369 OA
ATOM     48  O3  NAG d1175       1.051 -17.728  19.581  0.00  0.00    -0.348 OA
ATOM     49  O6  NAG d1175      -4.061 -14.374  19.139  0.00  0.00    -0.398 OA
ATOM     50  C7  NAG d1175       0.300 -20.287  21.127  0.00  0.00     0.214 C 
ATOM     51  O4  NAG d1175      -0.046 -15.049  18.813  0.00  0.00    -0.390 OA
ATOM     52  N2  NAG d1175      -0.500 -19.251  21.406  0.00  0.00    -0.349 N 
ATOM     53  C6  NAG d1175      -2.964 -15.018  18.551  0.00  0.00     0.043 C 
ATOM     54  C2  NAG d1175      -1.043 -18.296  20.427  0.00  0.00     0.087 C 
ATOM     55  C8  NAG d1175       0.340 -20.812  19.727  0.00  0.00    -0.003 C 
ATOM     56  O7  NAG d1175       1.003 -20.821  21.999  0.00  0.00    -0.274 OA
ATOM     57  C3  NAG d1175      -0.111 -17.133  20.124  0.00  0.00     0.093 C 
ATOM     58  C4  NAG d1175      -0.826 -16.203  19.134  0.00  0.00     0.089 C 
ATOM     59  C1  NAG d1175      -2.335 -17.710  20.978  0.00  0.00     0.151 C 
ATOM     60  C5  NAG d1175      -2.223 -15.802  19.623  0.00  0.00     0.089 C 
ATOM     61  O5  NAG d1175      -2.994 -16.931  19.988  0.00  0.00    -0.349 OA
ATOM     62  H   NAG d1175      -2.708 -19.315  22.022  0.00  0.00     0.212 HD
ATOM     63  H   NAG d1175      -4.542 -13.872  18.464  0.00  0.00     0.209 HD
ATOM     64  H   NAG d1175       0.831 -15.327  18.507  0.00  0.00     0.210 HD
ATOM     65  H   NAG d1175      -0.747 -19.116  22.349  0.00  0.00     0.163 HD
ATOM     66  H   NAG d1175      -2.309 -14.291  18.119  0.00  0.00     0.078 H 
ATOM     67  H   NAG d1175      -3.301 -15.683  17.782  0.00  0.00     0.078 H 
ATOM     68  H   NAG d1175      -1.188 -18.844  19.520  0.00  0.00     0.084 H 
ATOM     69  H   NAG d1175      -0.322 -20.239  19.113  0.00  0.00     0.040 H 
ATOM     70  H   NAG d1175       0.035 -21.838  19.722  0.00  0.00     0.040 H 
ATOM     71  H   NAG d1175       1.338 -20.734  19.347  0.00  0.00     0.040 H 
ATOM     72  H   NAG d1175       0.152 -16.540  20.975  0.00  0.00     0.091 H 
ATOM     73  H   NAG d1175      -0.947 -16.766  18.232  0.00  0.00     0.091 H 
ATOM     74  H   NAG d1175      -2.125 -17.076  21.814  0.00  0.00     0.132 H 
ATOM     75  H   NAG d1175      -2.086 -15.188  20.488  0.00  0.00     0.090 H 
ATOM     76  C2  NAG d1181      13.062  -8.963   0.582  0.00  0.00     0.087 C 
ATOM     77  C8  NAG d1181      13.286 -11.782  -0.221  0.00  0.00    -0.003 C 
ATOM     78  O5  NAG d1181      11.703  -7.250   1.689  0.00  0.00    -0.349 OA
ATOM     79  O4  NAG d1181      11.836  -6.542  -1.918  0.00  0.00    -0.390 OA
ATOM     80  C3  NAG d1181      13.187  -8.059  -0.633  0.00  0.00     0.086 C 
ATOM     81  C1  NAG d1181      12.783  -8.158   1.853  0.00  0.00     0.154 C 
ATOM     82  N2  NAG d1181      14.259  -9.767   0.759  0.00  0.00    -0.349 N 
ATOM     83  C4  NAG d1181      11.877  -7.285  -0.720  0.00  0.00     0.089 C 
ATOM     84  O6  NAG d1181       9.487  -5.887   1.128  0.00  0.00    -0.398 OA
ATOM     85  O3  NAG d1181      13.458  -8.797  -1.814  0.00  0.00    -0.391 OA
ATOM     86  C5  NAG d1181      11.795  -6.409   0.542  0.00  0.00     0.089 C 
ATOM     87  O7  NAG d1181      15.011 -11.795   1.393  0.00  0.00    -0.274 OA
ATOM     88  C7  NAG d1181      14.253 -11.108   0.712  0.00  0.00     0.214 C 
ATOM     89  C6  NAG d1181      10.659  -5.376   0.528  0.00  0.00     0.043 C 
ATOM     90  H   NAG d1181      12.231  -9.613   0.407  0.00  0.00     0.084 H 
ATOM     91  H   NAG d1181      12.707 -11.041  -0.732  0.00  0.00     0.040 H 
ATOM     92  H   NAG d1181      12.635 -12.420   0.340  0.00  0.00     0.040 H 
ATOM     93  H   NAG d1181      13.828 -12.366  -0.935  0.00  0.00     0.040 H 
ATOM     94  H   NAG d1181      11.892  -7.145  -2.675  0.00  0.00     0.210 HD
ATOM     95  H   NAG d1181      14.016  -7.389  -0.534  0.00  0.00     0.090 H 
ATOM     96  H   NAG d1181      13.611  -7.539   2.127  0.00  0.00     0.132 H 
ATOM     97  H   NAG d1181      15.115  -9.306   0.922  0.00  0.00     0.163 HD
ATOM     98  H   NAG d1181      11.025  -7.931  -0.751  0.00  0.00     0.091 H 
ATOM     99  H   NAG d1181       8.790  -5.213   1.104  0.00  0.00     0.209 HD
ATOM    100  H   NAG d1181      12.741  -9.431  -1.969  0.00  0.00     0.210 HD
ATOM    101  H   NAG d1181      12.692  -5.827   0.572  0.00  0.00     0.090 H 
ATOM    102  H   NAG d1181      10.974  -4.506   1.065  0.00  0.00     0.078 H 
ATOM    103  H   NAG d1181      10.437  -5.135  -0.491  0.00  0.00     0.078 H 
ATOM    104  C4  NAG d1179      13.868  -8.495   9.778  0.00  0.00     0.089 C 
ATOM    105  N2  NAG d1179      10.713 -10.641   9.880  0.00  0.00    -0.349 N 
ATOM    106  C6  NAG d1179      15.524  -8.378  11.689  0.00  0.00     0.043 C 
ATOM    107  O4  NAG d1179      14.872  -8.324   8.782  0.00  0.00    -0.390 OA
ATOM    108  O6  NAG d1179      14.934  -7.250  12.302  0.00  0.00    -0.398 OA
ATOM    109  C1  NAG d1179      12.498 -10.373  11.499  0.00  0.00     0.154 C 
ATOM    110  C5  NAG d1179      14.459  -9.207  10.992  0.00  0.00     0.089 C 
ATOM    111  O5  NAG d1179      13.447  -9.455  11.951  0.00  0.00    -0.349 OA
ATOM    112  C2  NAG d1179      11.757  -9.737  10.328  0.00  0.00     0.087 C 
ATOM    113  C8  NAG d1179       8.480 -11.289   9.333  0.00  0.00    -0.003 C 
ATOM    114  C7  NAG d1179       9.475 -10.218   9.631  0.00  0.00     0.214 C 
ATOM    115  C3  NAG d1179      12.723  -9.322   9.206  0.00  0.00     0.093 C 
ATOM    116  O3  NAG d1179      12.037  -8.538   8.241  0.00  0.00    -0.348 OA
ATOM    117  O7  NAG d1179       9.145  -9.037   9.627  0.00  0.00    -0.274 OA
ATOM    118  H   NAG d1179      13.500  -7.537  10.080  0.00  0.00     0.091 H 
ATOM    119  H   NAG d1179      10.927 -11.594   9.756  0.00  0.00     0.163 HD
ATOM    120  H   NAG d1179      16.247  -8.053  10.971  0.00  0.00     0.078 H 
ATOM    121  H   NAG d1179      16.001  -8.976  12.437  0.00  0.00     0.078 H 
ATOM    122  H   NAG d1179      15.206  -9.192   8.507  0.00  0.00     0.210 HD
ATOM    123  H   NAG d1179      14.501  -6.705  11.627  0.00  0.00     0.209 HD
ATOM    124  H   NAG d1179      13.002 -11.285  11.258  0.00  0.00     0.132 H 
ATOM    125  H   NAG d1179      14.893 -10.113  10.623  0.00  0.00     0.090 H 
ATOM    126  H   NAG d1179      11.291  -8.828  10.647  0.00  0.00     0.084 H 
ATOM    127  H   NAG d1179       8.957 -12.245   9.387  0.00  0.00     0.040 H 
ATOM    128  H   NAG d1179       8.083 -11.142   8.350  0.00  0.00     0.040 H 
ATOM    129  H   NAG d1179       7.685 -11.247  10.049  0.00  0.00     0.040 H 
ATOM    130  H   NAG d1179      13.110 -10.208   8.749  0.00  0.00     0.091 H 
ATOM    131  O5  BDP d1180      13.308  -8.904   6.352  0.00  0.00    -0.340 OA
ATOM    132  O6A BDP d1180      15.403 -10.276   4.128  0.00  0.00    -0.646 OA
ATOM    133  O2  BDP d1180       9.690  -9.004   6.605  0.00  0.00    -0.388 OA
ATOM    134  O3  BDP d1180      10.186  -7.848   3.946  0.00  0.00    -0.390 OA
ATOM    135  C5  BDP d1180      13.403  -9.390   5.032  0.00  0.00     0.152 C 
ATOM    136  C2  BDP d1180      10.919  -8.492   6.135  0.00  0.00     0.110 C 
ATOM    137  C3  BDP d1180      11.006  -8.773   4.637  0.00  0.00     0.092 C 
ATOM    138  C6  BDP d1180      14.848  -9.251   4.579  0.00  0.00     0.206 C 
ATOM    139  C1  BDP d1180      12.050  -9.135   6.937  0.00  0.00     0.160 C 
ATOM    140  C4  BDP d1180      12.434  -8.628   4.140  0.00  0.00     0.103 C 
ATOM    141  O6B BDP d1180      15.398  -8.126   4.706  0.00  0.00    -0.646 OA
ATOM    142  O4  BDP d1180      12.493  -9.158   2.844  0.00  0.00    -0.348 OA
ATOM    143  H   BDP d1180       9.613  -8.836   7.557  0.00  0.00     0.210 HD
ATOM    144  H   BDP d1180       9.271  -7.932   4.256  0.00  0.00     0.210 HD
ATOM    145  H   BDP d1180      13.131 -10.423   4.973  0.00  0.00     0.104 H 
ATOM    146  H   BDP d1180      10.999  -7.433   6.269  0.00  0.00     0.094 H 
ATOM    147  H   BDP d1180      10.678  -9.776   4.459  0.00  0.00     0.091 H 
ATOM    148  H   BDP d1180      11.896 -10.194   6.970  0.00  0.00     0.133 H 
ATOM    149  H   BDP d1180      12.711  -7.594   4.152  0.00  0.00     0.092 H 
ATOM    150  C3  BDP d1176       4.822 -17.362  19.576  0.00  0.00     0.092 C 
ATOM    151  O4  BDP d1176       6.098 -15.589  18.425  0.00  0.00    -0.348 OA
ATOM    152  O3  BDP d1176       5.796 -18.386  19.418  0.00  0.00    -0.390 OA
ATOM    153  O5  BDP d1176       2.434 -16.081  18.661  0.00  0.00    -0.340 OA
ATOM    154  O2  BDP d1176       3.373 -18.803  20.848  0.00  0.00    -0.388 OA
ATOM    155  C1  BDP d1176       2.291 -16.999  19.724  0.00  0.00     0.160 C 
ATOM    156  O6B BDP d1176       3.684 -13.245  17.603  0.00  0.00    -0.646 OA
ATOM    157  C5  BDP d1176       3.687 -15.391  18.604  0.00  0.00     0.152 C 
ATOM    158  O6A BDP d1176       3.283 -14.994  16.286  0.00  0.00    -0.646 OA
ATOM    159  C6  BDP d1176       3.552 -14.482  17.405  0.00  0.00     0.206 C 
ATOM    160  C4  BDP d1176       4.887 -16.328  18.439  0.00  0.00     0.103 C 
ATOM    161  C2  BDP d1176       3.436 -18.012  19.674  0.00  0.00     0.110 C 
ATOM    162  H   BDP d1176       5.025 -16.821  20.477  0.00  0.00     0.091 H 
ATOM    163  H   BDP d1176       5.617 -18.879  18.601  0.00  0.00     0.210 HD
ATOM    164  H   BDP d1176       4.092 -19.454  20.839  0.00  0.00     0.210 HD
ATOM    165  H   BDP d1176       2.298 -16.459  20.649  0.00  0.00     0.133 H 
ATOM    166  H   BDP d1176       3.879 -14.869  19.518  0.00  0.00     0.104 H 
ATOM    167  H   BDP d1176       4.855 -16.844  17.502  0.00  0.00     0.092 H 
ATOM    168  H   BDP d1176       3.313 -18.598  18.788  0.00  0.00     0.094 H 
ENDROOT
TORSDOF 43
ENDMDL
MODEL 20
REMARK VINA RESULT:      -7.5      5.740      7.636
REMARK  0 active torsions:
REMARK  status: ('A' for Active; 'I' for Inactive)
REMARK       I    between atoms: C3_1  and  O3_90 
REMARK       I    between atoms: O1_4  and  C1_76 
REMARK       I    between atoms: C2_5  and  N2_21 
REMARK       I    between atoms: C8_6  and  C7_66 
REMARK       I    between atoms: C4_7  and  O4_24 
REMARK       I    between atoms: N2_9  and  C2_60 
REMARK       I    between atoms: N2_9  and  C7_69 
REMARK       I    between atoms: O4_12  and  C4_26 
REMARK       I    between atoms: O3_13  and  C3_65 
REMARK       I    between atoms: O3_13  and  C1_61 
REMARK       I    between atoms: C3_14  and  O3_35 
REMARK       I    between atoms: C6_15  and  C5_53 
REMARK       I    between atoms: C6_15  and  O6_46 
REMARK       I    between atoms: O6_16  and  C6_54 
REMARK       I    between atoms: C4_17  and  O4_49 
REMARK       I    between atoms: O4_18  and  C4_28 
REMARK       I    between atoms: O4_18  and  C1_47 
REMARK       I    between atoms: C3_19  and  O3_43 
REMARK       I    between atoms: C1_20  and  O4_91 
REMARK       I    between atoms: N2_21  and  C7_66 
REMARK       I    between atoms: O3_22  and  C3_82 
REMARK       I    between atoms: C7_23  and  C8_62 
REMARK       I    between atoms: C7_23  and  N2_51 
REMARK       I    between atoms: C2_25  and  N2_41 
REMARK       I    between atoms: C1_27  and  O3_90 
REMARK       I    between atoms: O6_29  and  C6_74 
REMARK       I    between atoms: O2_30  and  C2_37 
REMARK       I    between atoms: C2_31  and  O2_42 
REMARK       I    between atoms: O3_32  and  C3_45 
REMARK       I    between atoms: O4_33  and  C4_73 
REMARK       I    between atoms: O4_34  and  C4_84 
REMARK       I    between atoms: O4_34  and  C1_85 
REMARK       I    between atoms: C5_36  and  C6_48 
REMARK       I    between atoms: C6_38  and  C5_40 
REMARK       I    between atoms: C6_38  and  O6_89 
REMARK       I    between atoms: N2_41  and  C7_50 
REMARK       I    between atoms: C5_44  and  C6_74 
REMARK       I    between atoms: C7_50  and  C8_75 
REMARK       I    between atoms: N2_51  and  C2_58 
REMARK       I    between atoms: C1_52  and  O3_87 
REMARK       I    between atoms: C6_54  and  C5_86 
REMARK       I    between atoms: O2_59  and  C2_93 
REMARK       I    between atoms: C8_64  and  C7_69 
REMARK       I    between atoms: C6_70  and  C5_80 
REMARK       I    between atoms: C4_72  and  O4_91 
REMARK       I    between atoms: C5_77  and  C6_79 
REMARK       I    between atoms: C3_83  and  O3_87 
ROOT
ATOM      1  C3  NAG d1177      11.238 -14.046  14.704  0.00  0.00     0.093 C 
ATOM      2  O7  NAG d1177       9.436 -11.525  17.035  0.00  0.00    -0.274 OA
ATOM      3  C4  NAG d1177      12.143 -15.259  14.982  0.00  0.00     0.089 C 
ATOM      4  C2  NAG d1177      10.078 -14.015  15.686  0.00  0.00     0.087 C 
ATOM      5  C6  NAG d1177      12.183 -17.755  15.511  0.00  0.00     0.043 C 
ATOM      6  C5  NAG d1177      11.332 -16.540  15.105  0.00  0.00     0.089 C 
ATOM      7  N2  NAG d1177       9.061 -13.016  15.310  0.00  0.00    -0.349 N 
ATOM      8  O4  NAG d1177      13.106 -15.407  13.957  0.00  0.00    -0.390 OA
ATOM      9  C7  NAG d1177       8.831 -11.880  15.974  0.00  0.00     0.214 C 
ATOM     10  O5  NAG d1177      10.307 -16.374  16.076  0.00  0.00    -0.349 OA
ATOM     11  C8  NAG d1177       7.714 -11.078  15.359  0.00  0.00    -0.003 C 
ATOM     12  C1  NAG d1177       9.376 -15.371  15.742  0.00  0.00     0.154 C 
ATOM     13  O6  NAG d1177      12.749 -17.572  16.796  0.00  0.00    -0.398 OA
ATOM     14  O3  NAG d1177      11.966 -12.864  14.896  0.00  0.00    -0.348 OA
ATOM     15  H   NAG d1177      10.878 -14.125  13.700  0.00  0.00     0.091 H 
ATOM     16  H   NAG d1177      12.639 -15.081  15.913  0.00  0.00     0.091 H 
ATOM     17  H   NAG d1177      10.502 -13.762  16.636  0.00  0.00     0.084 H 
ATOM     18  H   NAG d1177      12.969 -17.886  14.797  0.00  0.00     0.078 H 
ATOM     19  H   NAG d1177      11.552 -18.619  15.536  0.00  0.00     0.078 H 
ATOM     20  H   NAG d1177      10.924 -16.729  14.134  0.00  0.00     0.090 H 
ATOM     21  H   NAG d1177       8.514 -13.198  14.512  0.00  0.00     0.163 HD
ATOM     22  H   NAG d1177      12.658 -15.569  13.113  0.00  0.00     0.210 HD
ATOM     23  H   NAG d1177       7.567 -10.181  15.924  0.00  0.00     0.040 H 
ATOM     24  H   NAG d1177       6.813 -11.655  15.367  0.00  0.00     0.040 H 
ATOM     25  H   NAG d1177       7.968 -10.827  14.350  0.00  0.00     0.040 H 
ATOM     26  H   NAG d1177       8.962 -15.607  14.785  0.00  0.00     0.132 H 
ATOM     27  H   NAG d1177      13.325 -16.790  16.788  0.00  0.00     0.209 HD
ATOM     28  O6A BDP d1178      14.381 -13.139  10.773  0.00  0.00    -0.646 OA
ATOM     29  O4  BDP d1178      12.704  -9.489  10.690  0.00  0.00    -0.348 OA
ATOM     30  O3  BDP d1178      13.251  -8.591  13.335  0.00  0.00    -0.390 OA
ATOM     31  C1  BDP d1178      11.923 -11.998  13.753  0.00  0.00     0.160 C 
ATOM     32  C4  BDP d1178      13.077 -10.350  11.741  0.00  0.00     0.103 C 
ATOM     33  C2  BDP d1178      12.571 -10.693  14.163  0.00  0.00     0.110 C 
ATOM     34  O2  BDP d1178      11.913 -10.146  15.277  0.00  0.00    -0.388 OA
ATOM     35  O6B BDP d1178      13.065 -12.287   9.184  0.00  0.00    -0.646 OA
ATOM     36  O5  BDP d1178      12.638 -12.535  12.656  0.00  0.00    -0.340 OA
ATOM     37  C6  BDP d1178      13.396 -12.446  10.392  0.00  0.00     0.206 C 
ATOM     38  C5  BDP d1178      12.560 -11.756  11.479  0.00  0.00     0.152 C 
ATOM     39  C3  BDP d1178      12.471  -9.729  13.015  0.00  0.00     0.092 C 
ATOM     40  H   BDP d1178      13.203  -7.951  12.607  0.00  0.00     0.210 HD
ATOM     41  H   BDP d1178      10.906 -11.871  13.445  0.00  0.00     0.133 H 
ATOM     42  H   BDP d1178      14.138 -10.446  11.838  0.00  0.00     0.092 H 
ATOM     43  H   BDP d1178      13.594 -10.872  14.420  0.00  0.00     0.094 H 
ATOM     44  H   BDP d1178      10.983  -9.981  15.054  0.00  0.00     0.210 HD
ATOM     45  H   BDP d1178      11.543 -11.674  11.158  0.00  0.00     0.104 H 
ATOM     46  H   BDP d1178      11.443  -9.483  12.848  0.00  0.00     0.091 H 
ATOM     47  O1  NAG d1175      -0.069 -20.521  19.366  0.00  0.00    -0.369 OA
ATOM     48  O3  NAG d1175       3.866 -18.566  17.748  0.00  0.00    -0.348 OA
ATOM     49  O6  NAG d1175      -1.867 -16.614  16.794  0.00  0.00    -0.398 OA
ATOM     50  C7  NAG d1175       3.655 -21.135  19.439  0.00  0.00     0.214 C 
ATOM     51  O4  NAG d1175       2.204 -16.293  16.727  0.00  0.00    -0.390 OA
ATOM     52  N2  NAG d1175       2.610 -20.314  19.598  0.00  0.00    -0.349 N 
ATOM     53  C6  NAG d1175      -0.608 -17.000  16.312  0.00  0.00     0.043 C 
ATOM     54  C2  NAG d1175       1.919 -19.583  18.525  0.00  0.00     0.087 C 
ATOM     55  C8  NAG d1175       3.918 -21.715  18.086  0.00  0.00    -0.003 C 
ATOM     56  O7  NAG d1175       4.406 -21.426  20.384  0.00  0.00    -0.274 OA
ATOM     57  C3  NAG d1175       2.559 -18.246  18.184  0.00  0.00     0.093 C 
ATOM     58  C4  NAG d1175       1.709 -17.582  17.092  0.00  0.00     0.089 C 
ATOM     59  C1  NAG d1175       0.489 -19.303  18.963  0.00  0.00     0.151 C 
ATOM     60  C5  NAG d1175       0.227 -17.511  17.477  0.00  0.00     0.089 C 
ATOM     61  O5  NAG d1175      -0.270 -18.772  17.885  0.00  0.00    -0.349 OA
ATOM     62  H   NAG d1175       0.447 -20.886  20.102  0.00  0.00     0.212 HD
ATOM     63  H   NAG d1175      -2.407 -16.286  16.059  0.00  0.00     0.209 HD
ATOM     64  H   NAG d1175       3.142 -16.362  16.488  0.00  0.00     0.210 HD
ATOM     65  H   NAG d1175       2.274 -20.188  20.515  0.00  0.00     0.163 HD
ATOM     66  H   NAG d1175      -0.122 -16.160  15.863  0.00  0.00     0.078 H 
ATOM     67  H   NAG d1175      -0.720 -17.772  15.579  0.00  0.00     0.078 H 
ATOM     68  H   NAG d1175       1.974 -20.203  17.654  0.00  0.00     0.084 H 
ATOM     69  H   NAG d1175       3.180 -21.362  17.397  0.00  0.00     0.040 H 
ATOM     70  H   NAG d1175       3.873 -22.783  18.141  0.00  0.00     0.040 H 
ATOM     71  H   NAG d1175       4.890 -21.416  17.753  0.00  0.00     0.040 H 
ATOM     72  H   NAG d1175       2.612 -17.556  19.001  0.00  0.00     0.091 H 
ATOM     73  H   NAG d1175       1.790 -18.211  16.230  0.00  0.00     0.091 H 
ATOM     74  H   NAG d1175       0.481 -18.588  19.759  0.00  0.00     0.132 H 
ATOM     75  H   NAG d1175       0.150 -16.831  18.300  0.00  0.00     0.090 H 
ATOM     76  C2  NAG d1181      14.654  -8.247  -1.204  0.00  0.00     0.087 C 
ATOM     77  C8  NAG d1181      15.612 -10.966  -1.782  0.00  0.00    -0.003 C 
ATOM     78  O5  NAG d1181      12.847  -6.861  -0.299  0.00  0.00    -0.349 OA
ATOM     79  O4  NAG d1181      13.050  -6.357  -3.937  0.00  0.00    -0.390 OA
ATOM     80  C3  NAG d1181      14.639  -7.414  -2.475  0.00  0.00     0.086 C 
ATOM     81  C1  NAG d1181      14.101  -7.462  -0.012  0.00  0.00     0.154 C 
ATOM     82  N2  NAG d1181      15.996  -8.717  -0.906  0.00  0.00    -0.349 N 
ATOM     83  C4  NAG d1181      13.189  -6.995  -2.687  0.00  0.00     0.089 C 
ATOM     84  O6  NAG d1181      10.409  -6.124  -1.073  0.00  0.00    -0.398 OA
ATOM     85  O3  NAG d1181      15.160  -8.131  -3.582  0.00  0.00    -0.391 OA
ATOM     86  C5  NAG d1181      12.809  -6.093  -1.499  0.00  0.00     0.089 C 
ATOM     87  O7  NAG d1181      17.174 -10.455  -0.085  0.00  0.00    -0.274 OA
ATOM     88  C7  NAG d1181      16.319 -10.019  -0.854  0.00  0.00     0.214 C 
ATOM     89  C6  NAG d1181      11.460  -5.375  -1.649  0.00  0.00     0.043 C 
ATOM     90  H   NAG d1181      14.020  -9.092  -1.373  0.00  0.00     0.084 H 
ATOM     91  H   NAG d1181      14.906 -10.422  -2.376  0.00  0.00     0.040 H 
ATOM     92  H   NAG d1181      15.098 -11.710  -1.210  0.00  0.00     0.040 H 
ATOM     93  H   NAG d1181      16.327 -11.438  -2.422  0.00  0.00     0.040 H 
ATOM     94  H   NAG d1181      13.302  -6.972  -4.644  0.00  0.00     0.210 HD
ATOM     95  H   NAG d1181      15.270  -6.555  -2.383  0.00  0.00     0.090 H 
ATOM     96  H   NAG d1181      14.734  -6.642   0.257  0.00  0.00     0.132 H 
ATOM     97  H   NAG d1181      16.700  -8.051  -0.734  0.00  0.00     0.163 HD
ATOM     98  H   NAG d1181      12.523  -7.832  -2.713  0.00  0.00     0.091 H 
ATOM     99  H   NAG d1181       9.573  -5.646  -1.184  0.00  0.00     0.209 HD
ATOM    100  H   NAG d1181      14.632  -8.931  -3.726  0.00  0.00     0.210 HD
ATOM    101  H   NAG d1181      13.534  -5.306  -1.466  0.00  0.00     0.090 H 
ATOM    102  H   NAG d1181      11.516  -4.424  -1.162  0.00  0.00     0.078 H 
ATOM    103  H   NAG d1181      11.256  -5.258  -2.693  0.00  0.00     0.078 H 
ATOM    104  C4  NAG d1179      14.691  -7.049   7.961  0.00  0.00     0.089 C 
ATOM    105  N2  NAG d1179      12.154  -9.899   8.059  0.00  0.00    -0.349 N 
ATOM    106  C6  NAG d1179      16.134  -6.412   9.941  0.00  0.00     0.043 C 
ATOM    107  O4  NAG d1179      15.689  -6.694   7.009  0.00  0.00    -0.390 OA
ATOM    108  O6  NAG d1179      15.247  -5.431  10.438  0.00  0.00    -0.398 OA
ATOM    109  C1  NAG d1179      13.704  -9.102   9.744  0.00  0.00     0.154 C 
ATOM    110  C5  NAG d1179      15.353  -7.519   9.253  0.00  0.00     0.089 C 
ATOM    111  O5  NAG d1179      14.369  -7.952  10.175  0.00  0.00    -0.349 OA
ATOM    112  C2  NAG d1179      12.913  -8.739   8.492  0.00  0.00     0.087 C 
ATOM    113  C8  NAG d1179      10.188 -11.110   7.448  0.00  0.00    -0.003 C 
ATOM    114  C7  NAG d1179      10.870  -9.811   7.716  0.00  0.00     0.214 C 
ATOM    115  C3  NAG d1179      13.823  -8.165   7.394  0.00  0.00     0.093 C 
ATOM    116  O3  NAG d1179      13.035  -7.634   6.339  0.00  0.00    -0.348 OA
ATOM    117  O7  NAG d1179      10.263  -8.750   7.607  0.00  0.00    -0.274 OA
ATOM    118  H   NAG d1179      14.081  -6.195   8.171  0.00  0.00     0.091 H 
ATOM    119  H   NAG d1179      12.601 -10.775   8.018  0.00  0.00     0.163 HD
ATOM    120  H   NAG d1179      16.804  -5.962   9.239  0.00  0.00     0.078 H 
ATOM    121  H   NAG d1179      16.690  -6.828  10.756  0.00  0.00     0.078 H 
ATOM    122  H   NAG d1179      16.242  -7.467   6.817  0.00  0.00     0.210 HD
ATOM    123  H   NAG d1179      14.741  -5.051   9.702  0.00  0.00     0.209 HD
ATOM    124  H   NAG d1179      14.430  -9.873   9.598  0.00  0.00     0.132 H 
ATOM    125  H   NAG d1179      16.019  -8.310   8.976  0.00  0.00     0.090 H 
ATOM    126  H   NAG d1179      12.219  -7.956   8.718  0.00  0.00     0.084 H 
ATOM    127  H   NAG d1179      10.878 -11.913   7.596  0.00  0.00     0.040 H 
ATOM    128  H   NAG d1179       9.835 -11.125   6.437  0.00  0.00     0.040 H 
ATOM    129  H   NAG d1179       9.360 -11.223   8.116  0.00  0.00     0.040 H 
ATOM    130  H   NAG d1179      14.444  -8.954   7.024  0.00  0.00     0.091 H 
ATOM    131  O5  BDP d1180      14.483  -7.786   4.551  0.00  0.00    -0.340 OA
ATOM    132  O6A BDP d1180      16.996  -8.727   2.547  0.00  0.00    -0.646 OA
ATOM    133  O2  BDP d1180      10.990  -8.762   4.623  0.00  0.00    -0.388 OA
ATOM    134  O3  BDP d1180      11.370  -7.680   1.914  0.00  0.00    -0.390 OA
ATOM    135  C5  BDP d1180      14.783  -8.311   3.277  0.00  0.00     0.152 C 
ATOM    136  C2  BDP d1180      12.086  -7.991   4.180  0.00  0.00     0.110 C 
ATOM    137  C3  BDP d1180      12.341  -8.331   2.714  0.00  0.00     0.092 C 
ATOM    138  C6  BDP d1180      16.179  -7.846   2.891  0.00  0.00     0.206 C 
ATOM    139  C1  BDP d1180      13.282  -8.286   5.085  0.00  0.00     0.160 C 
ATOM    140  C4  BDP d1180      13.722  -7.867   2.282  0.00  0.00     0.103 C 
ATOM    141  O6B BDP d1180      16.428  -6.615   2.962  0.00  0.00    -0.646 OA
ATOM    142  O4  BDP d1180      13.997  -8.442   1.034  0.00  0.00    -0.348 OA
ATOM    143  H   BDP d1180      10.809  -8.563   5.555  0.00  0.00     0.210 HD
ATOM    144  H   BDP d1180      10.483  -7.969   2.183  0.00  0.00     0.210 HD
ATOM    145  H   BDP d1180      14.776  -9.381   3.281  0.00  0.00     0.104 H 
ATOM    146  H   BDP d1180      11.896  -6.939   4.239  0.00  0.00     0.094 H 
ATOM    147  H   BDP d1180      12.280  -9.393   2.594  0.00  0.00     0.091 H 
ATOM    148  H   BDP d1180      13.388  -9.346   5.189  0.00  0.00     0.133 H 
ATOM    149  H   BDP d1180      13.737  -6.798   2.232  0.00  0.00     0.092 H 
ATOM    150  C3  BDP d1176       7.425 -17.279  17.911  0.00  0.00     0.092 C 
ATOM    151  O4  BDP d1176       8.307 -15.317  16.698  0.00  0.00    -0.348 OA
ATOM    152  O3  BDP d1176       8.628 -18.039  17.879  0.00  0.00    -0.390 OA
ATOM    153  O5  BDP d1176       4.866 -16.685  16.781  0.00  0.00    -0.340 OA
ATOM    154  O2  BDP d1176       6.287 -18.956  19.210  0.00  0.00    -0.388 OA
ATOM    155  C1  BDP d1176       4.878 -17.546  17.900  0.00  0.00     0.160 C 
ATOM    156  O6B BDP d1176       5.458 -13.696  15.581  0.00  0.00    -0.646 OA
ATOM    157  C5  BDP d1176       5.914 -15.712  16.738  0.00  0.00     0.152 C 
ATOM    158  O6A BDP d1176       5.585 -15.566  14.378  0.00  0.00    -0.646 OA
ATOM    159  C6  BDP d1176       5.644 -14.938  15.469  0.00  0.00     0.206 C 
ATOM    160  C4  BDP d1176       7.314 -16.331  16.705  0.00  0.00     0.103 C 
ATOM    161  C2  BDP d1176       6.236 -18.245  17.985  0.00  0.00     0.110 C 
ATOM    162  H   BDP d1176       7.428 -16.653  18.779  0.00  0.00     0.091 H 
ATOM    163  H   BDP d1176       8.630 -18.608  17.094  0.00  0.00     0.210 HD
ATOM    164  H   BDP d1176       7.141 -19.408  19.286  0.00  0.00     0.210 HD
ATOM    165  H   BDP d1176       4.690 -16.967  18.781  0.00  0.00     0.133 H 
ATOM    166  H   BDP d1176       5.910 -15.105  17.619  0.00  0.00     0.104 H 
ATOM    167  H   BDP d1176       7.473 -16.893  15.809  0.00  0.00     0.092 H 
ATOM    168  H   BDP d1176       6.320 -18.895  17.140  0.00  0.00     0.094 H 
ENDROOT
TORSDOF 43
ENDMDL
MODEL 21
REMARK VINA RESULT:      -7.4      2.517      3.390
REMARK  0 active torsions:
REMARK  status: ('A' for Active; 'I' for Inactive)
REMARK       I    between atoms: C3_1  and  O3_90 
REMARK       I    between atoms: O1_4  and  C1_76 
REMARK       I    between atoms: C2_5  and  N2_21 
REMARK       I    between atoms: C8_6  and  C7_66 
REMARK       I    between atoms: C4_7  and  O4_24 
REMARK       I    between atoms: N2_9  and  C2_60 
REMARK       I    between atoms: N2_9  and  C7_69 
REMARK       I    between atoms: O4_12  and  C4_26 
REMARK       I    between atoms: O3_13  and  C3_65 
REMARK       I    between atoms: O3_13  and  C1_61 
REMARK       I    between atoms: C3_14  and  O3_35 
REMARK       I    between atoms: C6_15  and  C5_53 
REMARK       I    between atoms: C6_15  and  O6_46 
REMARK       I    between atoms: O6_16  and  C6_54 
REMARK       I    between atoms: C4_17  and  O4_49 
REMARK       I    between atoms: O4_18  and  C4_28 
REMARK       I    between atoms: O4_18  and  C1_47 
REMARK       I    between atoms: C3_19  and  O3_43 
REMARK       I    between atoms: C1_20  and  O4_91 
REMARK       I    between atoms: N2_21  and  C7_66 
REMARK       I    between atoms: O3_22  and  C3_82 
REMARK       I    between atoms: C7_23  and  C8_62 
REMARK       I    between atoms: C7_23  and  N2_51 
REMARK       I    between atoms: C2_25  and  N2_41 
REMARK       I    between atoms: C1_27  and  O3_90 
REMARK       I    between atoms: O6_29  and  C6_74 
REMARK       I    between atoms: O2_30  and  C2_37 
REMARK       I    between atoms: C2_31  and  O2_42 
REMARK       I    between atoms: O3_32  and  C3_45 
REMARK       I    between atoms: O4_33  and  C4_73 
REMARK       I    between atoms: O4_34  and  C4_84 
REMARK       I    between atoms: O4_34  and  C1_85 
REMARK       I    between atoms: C5_36  and  C6_48 
REMARK       I    between atoms: C6_38  and  C5_40 
REMARK       I    between atoms: C6_38  and  O6_89 
REMARK       I    between atoms: N2_41  and  C7_50 
REMARK       I    between atoms: C5_44  and  C6_74 
REMARK       I    between atoms: C7_50  and  C8_75 
REMARK       I    between atoms: N2_51  and  C2_58 
REMARK       I    between atoms: C1_52  and  O3_87 
REMARK       I    between atoms: C6_54  and  C5_86 
REMARK       I    between atoms: O2_59  and  C2_93 
REMARK       I    between atoms: C8_64  and  C7_69 
REMARK       I    between atoms: C6_70  and  C5_80 
REMARK       I    between atoms: C4_72  and  O4_91 
REMARK       I    between atoms: C5_77  and  C6_79 
REMARK       I    between atoms: C3_83  and  O3_87 
ROOT
ATOM      1  C3  NAG d1177      10.716 -12.236  12.521  0.00  0.00     0.093 C 
ATOM      2  O7  NAG d1177       7.187 -10.727  13.078  0.00  0.00    -0.274 OA
ATOM      3  C4  NAG d1177      12.019 -12.167  13.337  0.00  0.00     0.089 C 
ATOM      4  C2  NAG d1177       9.523 -12.415  13.445  0.00  0.00     0.087 C 
ATOM      5  C6  NAG d1177      13.334 -13.206  15.261  0.00  0.00     0.043 C 
ATOM      6  C5  NAG d1177      12.110 -13.309  14.336  0.00  0.00     0.089 C 
ATOM      7  N2  NAG d1177       8.288 -12.724  12.700  0.00  0.00    -0.349 N 
ATOM      8  O4  NAG d1177      13.145 -12.199  12.480  0.00  0.00    -0.390 OA
ATOM      9  C7  NAG d1177       7.256 -11.889  12.562  0.00  0.00     0.214 C 
ATOM     10  O5  NAG d1177      10.943 -13.336  15.149  0.00  0.00    -0.349 OA
ATOM     11  C8  NAG d1177       6.131 -12.500  11.766  0.00  0.00    -0.003 C 
ATOM     12  C1  NAG d1177       9.759 -13.565  14.422  0.00  0.00     0.154 C 
ATOM     13  O6  NAG d1177      13.268 -12.040  16.063  0.00  0.00    -0.398 OA
ATOM     14  O3  NAG d1177      10.526 -11.026  11.839  0.00  0.00    -0.348 OA
ATOM     15  H   NAG d1177      10.794 -13.059  11.843  0.00  0.00     0.091 H 
ATOM     16  H   NAG d1177      12.010 -11.243  13.876  0.00  0.00     0.091 H 
ATOM     17  H   NAG d1177       9.410 -11.486  13.965  0.00  0.00     0.084 H 
ATOM     18  H   NAG d1177      14.221 -13.171  14.664  0.00  0.00     0.078 H 
ATOM     19  H   NAG d1177      13.348 -14.061  15.904  0.00  0.00     0.078 H 
ATOM     20  H   NAG d1177      12.203 -14.205  13.759  0.00  0.00     0.090 H 
ATOM     21  H   NAG d1177       8.221 -13.610  12.274  0.00  0.00     0.163 HD
ATOM     22  H   NAG d1177      13.155 -13.036  11.991  0.00  0.00     0.210 HD
ATOM     23  H   NAG d1177       5.330 -11.796  11.683  0.00  0.00     0.040 H 
ATOM     24  H   NAG d1177       5.781 -13.381  12.263  0.00  0.00     0.040 H 
ATOM     25  H   NAG d1177       6.484 -12.758  10.789  0.00  0.00     0.040 H 
ATOM     26  H   NAG d1177       9.871 -14.482  13.884  0.00  0.00     0.132 H 
ATOM     27  H   NAG d1177      13.254 -11.255  15.492  0.00  0.00     0.209 HD
ATOM     28  O6A BDP d1178      13.762 -11.911   8.425  0.00  0.00    -0.646 OA
ATOM     29  O4  BDP d1178      10.406 -11.039   6.397  0.00  0.00    -0.348 OA
ATOM     30  O3  BDP d1178       9.499  -8.750   7.825  0.00  0.00    -0.390 OA
ATOM     31  C1  BDP d1178      10.338 -11.212  10.429  0.00  0.00     0.160 C 
ATOM     32  C4  BDP d1178      10.868 -10.693   7.682  0.00  0.00     0.103 C 
ATOM     33  C2  BDP d1178       9.949  -9.867   9.854  0.00  0.00     0.110 C 
ATOM     34  O2  BDP d1178       8.798  -9.375  10.489  0.00  0.00    -0.388 OA
ATOM     35  O6B BDP d1178      12.753 -13.157   6.873  0.00  0.00    -0.646 OA
ATOM     36  O5  BDP d1178      11.523 -11.654   9.791  0.00  0.00    -0.340 OA
ATOM     37  C6  BDP d1178      12.730 -12.369   7.859  0.00  0.00     0.206 C 
ATOM     38  C5  BDP d1178      11.369 -11.927   8.414  0.00  0.00     0.152 C 
ATOM     39  C3  BDP d1178       9.664 -10.039   8.389  0.00  0.00     0.092 C 
ATOM     40  H   BDP d1178       9.313  -8.833   6.876  0.00  0.00     0.210 HD
ATOM     41  H   BDP d1178       9.588 -11.958  10.268  0.00  0.00     0.133 H 
ATOM     42  H   BDP d1178      11.698 -10.018   7.652  0.00  0.00     0.092 H 
ATOM     43  H   BDP d1178      10.750  -9.173  10.005  0.00  0.00     0.094 H 
ATOM     44  H   BDP d1178       8.065  -9.997  10.358  0.00  0.00     0.210 HD
ATOM     45  H   BDP d1178      10.649 -12.704   8.270  0.00  0.00     0.104 H 
ATOM     46  H   BDP d1178       8.793 -10.649   8.268  0.00  0.00     0.091 H 
ATOM     47  O1  NAG d1175       4.488 -20.361  21.832  0.00  0.00    -0.369 OA
ATOM     48  O3  NAG d1175       6.826 -17.693  18.776  0.00  0.00    -0.348 OA
ATOM     49  O6  NAG d1175       1.644 -20.795  17.728  0.00  0.00    -0.398 OA
ATOM     50  C7  NAG d1175       7.642 -18.291  21.689  0.00  0.00     0.214 C 
ATOM     51  O4  NAG d1175       4.562 -18.074  16.854  0.00  0.00    -0.390 OA
ATOM     52  N2  NAG d1175       6.327 -18.421  21.474  0.00  0.00    -0.349 N 
ATOM     53  C6  NAG d1175       2.967 -20.471  17.394  0.00  0.00     0.043 C 
ATOM     54  C2  NAG d1175       5.705 -19.053  20.299  0.00  0.00     0.087 C 
ATOM     55  C8  NAG d1175       8.586 -19.183  20.949  0.00  0.00    -0.003 C 
ATOM     56  O7  NAG d1175       8.092 -17.453  22.485  0.00  0.00    -0.274 OA
ATOM     57  C3  NAG d1175       5.520 -18.108  19.122  0.00  0.00     0.093 C 
ATOM     58  C4  NAG d1175       4.822 -18.888  17.998  0.00  0.00     0.089 C 
ATOM     59  C1  NAG d1175       4.327 -19.568  20.690  0.00  0.00     0.151 C 
ATOM     60  C5  NAG d1175       3.542 -19.578  18.483  0.00  0.00     0.089 C 
ATOM     61  O5  NAG d1175       3.772 -20.353  19.645  0.00  0.00    -0.349 OA
ATOM     62  H   NAG d1175       4.867 -19.827  22.547  0.00  0.00     0.212 HD
ATOM     63  H   NAG d1175       1.267 -21.365  17.040  0.00  0.00     0.209 HD
ATOM     64  H   NAG d1175       5.385 -17.649  16.565  0.00  0.00     0.210 HD
ATOM     65  H   NAG d1175       5.722 -18.061  22.163  0.00  0.00     0.163 HD
ATOM     66  H   NAG d1175       2.985 -19.954  16.458  0.00  0.00     0.078 H 
ATOM     67  H   NAG d1175       3.551 -21.365  17.311  0.00  0.00     0.078 H 
ATOM     68  H   NAG d1175       6.369 -19.833  19.991  0.00  0.00     0.084 H 
ATOM     69  H   NAG d1175       8.031 -19.839  20.311  0.00  0.00     0.040 H 
ATOM     70  H   NAG d1175       9.153 -19.762  21.648  0.00  0.00     0.040 H 
ATOM     71  H   NAG d1175       9.250 -18.588  20.358  0.00  0.00     0.040 H 
ATOM     72  H   NAG d1175       4.913 -17.251  19.330  0.00  0.00     0.091 H 
ATOM     73  H   NAG d1175       5.508 -19.652  17.698  0.00  0.00     0.091 H 
ATOM     74  H   NAG d1175       3.667 -18.747  20.876  0.00  0.00     0.132 H 
ATOM     75  H   NAG d1175       2.842 -18.805  18.722  0.00  0.00     0.090 H 
ATOM     76  C2  NAG d1181      14.763 -15.670  -3.916  0.00  0.00     0.087 C 
ATOM     77  C8  NAG d1181      17.237 -16.857  -2.859  0.00  0.00    -0.003 C 
ATOM     78  O5  NAG d1181      12.319 -15.567  -3.778  0.00  0.00    -0.349 OA
ATOM     79  O4  NAG d1181      13.283 -17.166  -6.947  0.00  0.00    -0.390 OA
ATOM     80  C3  NAG d1181      14.655 -15.927  -5.410  0.00  0.00     0.086 C 
ATOM     81  C1  NAG d1181      13.530 -14.939  -3.381  0.00  0.00     0.154 C 
ATOM     82  N2  NAG d1181      15.962 -14.910  -3.604  0.00  0.00    -0.349 N 
ATOM     83  C4  NAG d1181      13.378 -16.736  -5.607  0.00  0.00     0.089 C 
ATOM     84  O6  NAG d1181      10.281 -17.140  -4.453  0.00  0.00    -0.398 OA
ATOM     85  O3  NAG d1181      15.800 -16.594  -5.916  0.00  0.00    -0.391 OA
ATOM     86  C5  NAG d1181      12.209 -15.834  -5.173  0.00  0.00     0.089 C 
ATOM     87  O7  NAG d1181      17.611 -14.655  -2.089  0.00  0.00    -0.274 OA
ATOM     88  C7  NAG d1181      16.944 -15.383  -2.821  0.00  0.00     0.214 C 
ATOM     89  C6  NAG d1181      10.818 -16.383  -5.519  0.00  0.00     0.043 C 
ATOM     90  H   NAG d1181      14.824 -16.624  -3.436  0.00  0.00     0.084 H 
ATOM     91  H   NAG d1181      16.568 -17.336  -3.543  0.00  0.00     0.040 H 
ATOM     92  H   NAG d1181      17.106 -17.272  -1.881  0.00  0.00     0.040 H 
ATOM     93  H   NAG d1181      18.246 -17.011  -3.179  0.00  0.00     0.040 H 
ATOM     94  H   NAG d1181      14.044 -17.728  -7.162  0.00  0.00     0.210 HD
ATOM     95  H   NAG d1181      14.609 -15.010  -5.959  0.00  0.00     0.090 H 
ATOM     96  H   NAG d1181      13.454 -13.945  -3.768  0.00  0.00     0.132 H 
ATOM     97  H   NAG d1181      16.058 -14.007  -3.985  0.00  0.00     0.163 HD
ATOM     98  H   NAG d1181      13.367 -17.628  -5.016  0.00  0.00     0.091 H 
ATOM     99  H   NAG d1181       9.404 -17.472  -4.702  0.00  0.00     0.209 HD
ATOM    100  H   NAG d1181      15.906 -17.443  -5.460  0.00  0.00     0.210 HD
ATOM    101  H   NAG d1181      12.293 -14.929  -5.738  0.00  0.00     0.090 H 
ATOM    102  H   NAG d1181      10.163 -15.563  -5.728  0.00  0.00     0.078 H 
ATOM    103  H   NAG d1181      10.912 -17.022  -6.372  0.00  0.00     0.078 H 
ATOM    104  C4  NAG d1179      11.324  -9.955   2.482  0.00  0.00     0.089 C 
ATOM    105  N2  NAG d1179      11.022 -13.058   4.684  0.00  0.00    -0.349 N 
ATOM    106  C6  NAG d1179      11.450  -7.604   3.414  0.00  0.00     0.043 C 
ATOM    107  O4  NAG d1179      12.163  -9.653   1.371  0.00  0.00    -0.390 OA
ATOM    108  O6  NAG d1179      10.060  -7.361   3.339  0.00  0.00    -0.398 OA
ATOM    109  C1  NAG d1179      11.225 -10.715   5.271  0.00  0.00     0.154 C 
ATOM    110  C5  NAG d1179      11.707  -9.079   3.672  0.00  0.00     0.089 C 
ATOM    111  O5  NAG d1179      10.933  -9.432   4.804  0.00  0.00    -0.349 OA
ATOM    112  C2  NAG d1179      10.795 -11.709   4.198  0.00  0.00     0.087 C 
ATOM    113  C8  NAG d1179      10.418 -15.300   5.247  0.00  0.00    -0.003 C 
ATOM    114  C7  NAG d1179      10.102 -14.014   4.561  0.00  0.00     0.214 C 
ATOM    115  C3  NAG d1179      11.485 -11.424   2.854  0.00  0.00     0.093 C 
ATOM    116  O3  NAG d1179      10.900 -12.216   1.831  0.00  0.00    -0.348 OA
ATOM    117  O7  NAG d1179       9.062 -13.883   3.923  0.00  0.00    -0.274 OA
ATOM    118  H   NAG d1179      10.305  -9.763   2.220  0.00  0.00     0.091 H 
ATOM    119  H   NAG d1179      11.880 -13.273   5.116  0.00  0.00     0.163 HD
ATOM    120  H   NAG d1179      11.909  -7.321   2.490  0.00  0.00     0.078 H 
ATOM    121  H   NAG d1179      11.865  -7.030   4.215  0.00  0.00     0.078 H 
ATOM    122  H   NAG d1179      13.088  -9.827   1.607  0.00  0.00     0.210 HD
ATOM    123  H   NAG d1179       9.680  -7.881   2.613  0.00  0.00     0.209 HD
ATOM    124  H   NAG d1179      12.266 -10.753   5.515  0.00  0.00     0.132 H 
ATOM    125  H   NAG d1179      12.753  -9.239   3.835  0.00  0.00     0.090 H 
ATOM    126  H   NAG d1179       9.748 -11.600   4.004  0.00  0.00     0.084 H 
ATOM    127  H   NAG d1179      11.362 -15.216   5.746  0.00  0.00     0.040 H 
ATOM    128  H   NAG d1179      10.466 -16.087   4.525  0.00  0.00     0.040 H 
ATOM    129  H   NAG d1179       9.655 -15.519   5.964  0.00  0.00     0.040 H 
ATOM    130  H   NAG d1179      12.523 -11.661   2.950  0.00  0.00     0.091 H 
ATOM    131  O5  BDP d1180      12.625 -12.363   0.309  0.00  0.00    -0.340 OA
ATOM    132  O6A BDP d1180      15.680 -12.382  -1.065  0.00  0.00    -0.646 OA
ATOM    133  O2  BDP d1180      10.523 -15.070   1.497  0.00  0.00    -0.388 OA
ATOM    134  O3  BDP d1180      11.004 -15.731  -1.329  0.00  0.00    -0.390 OA
ATOM    135  C5  BDP d1180      13.542 -13.158  -0.410  0.00  0.00     0.152 C 
ATOM    136  C2  BDP d1180      11.041 -14.200   0.514  0.00  0.00     0.110 C 
ATOM    137  C3  BDP d1180      11.875 -15.029  -0.460  0.00  0.00     0.092 C 
ATOM    138  C6  BDP d1180      14.448 -12.233  -1.208  0.00  0.00     0.206 C 
ATOM    139  C1  BDP d1180      11.843 -13.103   1.214  0.00  0.00     0.160 C 
ATOM    140  C4  BDP d1180      12.782 -14.138  -1.291  0.00  0.00     0.103 C 
ATOM    141  O6B BDP d1180      13.902 -11.367  -1.941  0.00  0.00    -0.646 OA
ATOM    142  O4  BDP d1180      13.701 -14.962  -1.954  0.00  0.00    -0.348 OA
ATOM    143  H   BDP d1180       9.989 -14.563   2.128  0.00  0.00     0.210 HD
ATOM    144  H   BDP d1180      10.419 -16.303  -0.808  0.00  0.00     0.210 HD
ATOM    145  H   BDP d1180      14.154 -13.741   0.246  0.00  0.00     0.104 H 
ATOM    146  H   BDP d1180      10.271 -13.716  -0.051  0.00  0.00     0.094 H 
ATOM    147  H   BDP d1180      12.479 -15.709   0.103  0.00  0.00     0.091 H 
ATOM    148  H   BDP d1180      12.506 -13.554   1.923  0.00  0.00     0.133 H 
ATOM    149  H   BDP d1180      12.191 -13.576  -1.983  0.00  0.00     0.092 H 
ATOM    150  C3  BDP d1176       8.729 -14.646  17.572  0.00  0.00     0.092 C 
ATOM    151  O4  BDP d1176       8.629 -13.688  15.298  0.00  0.00    -0.348 OA
ATOM    152  O3  BDP d1176      10.088 -14.313  17.825  0.00  0.00    -0.390 OA
ATOM    153  O5  BDP d1176       6.789 -16.569  16.725  0.00  0.00    -0.340 OA
ATOM    154  O2  BDP d1176       8.443 -15.564  19.779  0.00  0.00    -0.388 OA
ATOM    155  C1  BDP d1176       6.956 -16.413  18.118  0.00  0.00     0.160 C 
ATOM    156  O6B BDP d1176       5.871 -15.231  13.880  0.00  0.00    -0.646 OA
ATOM    157  C5  BDP d1176       7.032 -15.399  15.938  0.00  0.00     0.152 C 
ATOM    158  O6A BDP d1176       7.413 -16.827  14.062  0.00  0.00    -0.646 OA
ATOM    159  C6  BDP d1176       6.764 -15.848  14.520  0.00  0.00     0.206 C 
ATOM    160  C4  BDP d1176       8.461 -14.865  16.073  0.00  0.00     0.103 C 
ATOM    161  C2  BDP d1176       8.364 -15.884  18.400  0.00  0.00     0.110 C 
ATOM    162  H   BDP d1176       8.106 -13.827  17.865  0.00  0.00     0.091 H 
ATOM    163  H   BDP d1176      10.657 -15.052  17.560  0.00  0.00     0.210 HD
ATOM    164  H   BDP d1176       9.329 -15.226  19.982  0.00  0.00     0.210 HD
ATOM    165  H   BDP d1176       6.213 -15.733  18.480  0.00  0.00     0.133 H 
ATOM    166  H   BDP d1176       6.412 -14.588  16.255  0.00  0.00     0.104 H 
ATOM    167  H   BDP d1176       9.178 -15.563  15.693  0.00  0.00     0.092 H 
ATOM    168  H   BDP d1176       9.060 -16.649  18.126  0.00  0.00     0.094 H 
ENDROOT
TORSDOF 43
ENDMDL
MODEL 22
REMARK VINA RESULT:      -7.3      4.121     18.628
REMARK  0 active torsions:
REMARK  status: ('A' for Active; 'I' for Inactive)
REMARK       I    between atoms: C3_1  and  O3_90 
REMARK       I    between atoms: O1_4  and  C1_76 
REMARK       I    between atoms: C2_5  and  N2_21 
REMARK       I    between atoms: C8_6  and  C7_66 
REMARK       I    between atoms: C4_7  and  O4_24 
REMARK       I    between atoms: N2_9  and  C2_60 
REMARK       I    between atoms: N2_9  and  C7_69 
REMARK       I    between atoms: O4_12  and  C4_26 
REMARK       I    between atoms: O3_13  and  C3_65 
REMARK       I    between atoms: O3_13  and  C1_61 
REMARK       I    between atoms: C3_14  and  O3_35 
REMARK       I    between atoms: C6_15  and  C5_53 
REMARK       I    between atoms: C6_15  and  O6_46 
REMARK       I    between atoms: O6_16  and  C6_54 
REMARK       I    between atoms: C4_17  and  O4_49 
REMARK       I    between atoms: O4_18  and  C4_28 
REMARK       I    between atoms: O4_18  and  C1_47 
REMARK       I    between atoms: C3_19  and  O3_43 
REMARK       I    between atoms: C1_20  and  O4_91 
REMARK       I    between atoms: N2_21  and  C7_66 
REMARK       I    between atoms: O3_22  and  C3_82 
REMARK       I    between atoms: C7_23  and  C8_62 
REMARK       I    between atoms: C7_23  and  N2_51 
REMARK       I    between atoms: C2_25  and  N2_41 
REMARK       I    between atoms: C1_27  and  O3_90 
REMARK       I    between atoms: O6_29  and  C6_74 
REMARK       I    between atoms: O2_30  and  C2_37 
REMARK       I    between atoms: C2_31  and  O2_42 
REMARK       I    between atoms: O3_32  and  C3_45 
REMARK       I    between atoms: O4_33  and  C4_73 
REMARK       I    between atoms: O4_34  and  C4_84 
REMARK       I    between atoms: O4_34  and  C1_85 
REMARK       I    between atoms: C5_36  and  C6_48 
REMARK       I    between atoms: C6_38  and  C5_40 
REMARK       I    between atoms: C6_38  and  O6_89 
REMARK       I    between atoms: N2_41  and  C7_50 
REMARK       I    between atoms: C5_44  and  C6_74 
REMARK       I    between atoms: C7_50  and  C8_75 
REMARK       I    between atoms: N2_51  and  C2_58 
REMARK       I    between atoms: C1_52  and  O3_87 
REMARK       I    between atoms: C6_54  and  C5_86 
REMARK       I    between atoms: O2_59  and  C2_93 
REMARK       I    between atoms: C8_64  and  C7_69 
REMARK       I    between atoms: C6_70  and  C5_80 
REMARK       I    between atoms: C4_72  and  O4_91 
REMARK       I    between atoms: C5_77  and  C6_79 
REMARK       I    between atoms: C3_83  and  O3_87 
ROOT
ATOM      1  C3  NAG d1177      11.824 -11.080   6.958  0.00  0.00     0.093 C 
ATOM      2  O7  NAG d1177      15.587 -11.404   7.835  0.00  0.00    -0.274 OA
ATOM      3  C4  NAG d1177      11.075 -10.335   5.838  0.00  0.00     0.089 C 
ATOM      4  C2  NAG d1177      13.079 -11.737   6.409  0.00  0.00     0.087 C 
ATOM      5  C6  NAG d1177      10.262 -10.472   3.424  0.00  0.00     0.043 C 
ATOM      6  C5  NAG d1177      10.890 -11.217   4.613  0.00  0.00     0.089 C 
ATOM      7  N2  NAG d1177      13.696 -12.654   7.385  0.00  0.00    -0.349 N 
ATOM      8  O4  NAG d1177       9.813  -9.890   6.295  0.00  0.00    -0.390 OA
ATOM      9  C7  NAG d1177      14.851 -12.427   8.015  0.00  0.00     0.214 C 
ATOM     10  O5  NAG d1177      12.146 -11.736   4.195  0.00  0.00    -0.349 OA
ATOM     11  C8  NAG d1177      15.231 -13.559   8.934  0.00  0.00    -0.003 C 
ATOM     12  C1  NAG d1177      12.762 -12.558   5.160  0.00  0.00     0.154 C 
ATOM     13  O6  NAG d1177      11.104  -9.423   2.980  0.00  0.00    -0.398 OA
ATOM     14  O3  NAG d1177      12.238 -10.164   7.934  0.00  0.00    -0.348 OA
ATOM     15  H   NAG d1177      11.162 -11.814   7.366  0.00  0.00     0.091 H 
ATOM     16  H   NAG d1177      11.671  -9.490   5.562  0.00  0.00     0.091 H 
ATOM     17  H   NAG d1177      13.756 -10.939   6.182  0.00  0.00     0.084 H 
ATOM     18  H   NAG d1177       9.321 -10.062   3.725  0.00  0.00     0.078 H 
ATOM     19  H   NAG d1177      10.128 -11.165   2.620  0.00  0.00     0.078 H 
ATOM     20  H   NAG d1177      10.222 -11.999   4.906  0.00  0.00     0.090 H 
ATOM     21  H   NAG d1177      13.222 -13.493   7.587  0.00  0.00     0.163 HD
ATOM     22  H   NAG d1177       9.271 -10.655   6.545  0.00  0.00     0.210 HD
ATOM     23  H   NAG d1177      16.160 -13.331   9.414  0.00  0.00     0.040 H 
ATOM     24  H   NAG d1177      15.334 -14.460   8.366  0.00  0.00     0.040 H 
ATOM     25  H   NAG d1177      14.469 -13.689   9.674  0.00  0.00     0.040 H 
ATOM     26  H   NAG d1177      12.083 -13.347   5.406  0.00  0.00     0.132 H 
ATOM     27  H   NAG d1177      11.234  -8.785   3.700  0.00  0.00     0.209 HD
ATOM     28  O6A BDP d1178       7.921  -9.648   9.938  0.00  0.00    -0.646 OA
ATOM     29  O4  BDP d1178      10.318 -10.641  13.005  0.00  0.00    -0.348 OA
ATOM     30  O3  BDP d1178      12.559  -8.964  12.496  0.00  0.00    -0.390 OA
ATOM     31  C1  BDP d1178      11.793 -10.522   9.250  0.00  0.00     0.160 C 
ATOM     32  C4  BDP d1178      10.556 -10.020  11.764  0.00  0.00     0.103 C 
ATOM     33  C2  BDP d1178      12.468  -9.573  10.219  0.00  0.00     0.110 C 
ATOM     34  O2  BDP d1178      13.864  -9.645  10.085  0.00  0.00    -0.388 OA
ATOM     35  O6B BDP d1178       7.658 -11.337  11.372  0.00  0.00    -0.646 OA
ATOM     36  O5  BDP d1178      10.390 -10.390   9.389  0.00  0.00    -0.340 OA
ATOM     37  C6  BDP d1178       8.374 -10.585  10.654  0.00  0.00     0.206 C 
ATOM     38  C5  BDP d1178       9.892 -10.806  10.644  0.00  0.00     0.152 C 
ATOM     39  C3  BDP d1178      12.090  -9.970  11.618  0.00  0.00     0.092 C 
ATOM     40  H   BDP d1178      12.327  -9.197  13.409  0.00  0.00     0.210 HD
ATOM     41  H   BDP d1178      12.041 -11.545   9.441  0.00  0.00     0.133 H 
ATOM     42  H   BDP d1178      10.141  -9.035  11.710  0.00  0.00     0.092 H 
ATOM     43  H   BDP d1178      12.152  -8.572  10.010  0.00  0.00     0.094 H 
ATOM     44  H   BDP d1178      14.160 -10.550  10.271  0.00  0.00     0.210 HD
ATOM     45  H   BDP d1178      10.109 -11.842  10.802  0.00  0.00     0.104 H 
ATOM     46  H   BDP d1178      12.509 -10.930  11.838  0.00  0.00     0.091 H 
ATOM     47  O1  NAG d1175      17.012 -20.468  -1.785  0.00  0.00    -0.369 OA
ATOM     48  O3  NAG d1175      15.066 -17.245   0.999  0.00  0.00    -0.348 OA
ATOM     49  O6  NAG d1175      17.667 -22.515   2.742  0.00  0.00    -0.398 OA
ATOM     50  C7  NAG d1175      15.217 -17.160  -2.080  0.00  0.00     0.214 C 
ATOM     51  O4  NAG d1175      16.070 -18.805   3.349  0.00  0.00    -0.390 OA
ATOM     52  N2  NAG d1175      16.173 -17.918  -1.528  0.00  0.00    -0.349 N 
ATOM     53  C6  NAG d1175      16.584 -21.624   2.742  0.00  0.00     0.043 C 
ATOM     54  C2  NAG d1175      15.987 -18.856  -0.409  0.00  0.00     0.087 C 
ATOM     55  C8  NAG d1175      13.786 -17.545  -1.884  0.00  0.00    -0.003 C 
ATOM     56  O7  NAG d1175      15.492 -16.151  -2.749  0.00  0.00    -0.274 OA
ATOM     57  C3  NAG d1175      16.102 -18.206   0.961  0.00  0.00     0.093 C 
ATOM     58  C4  NAG d1175      15.936 -19.307   2.019  0.00  0.00     0.089 C 
ATOM     59  C1  NAG d1175      17.056 -19.936  -0.492  0.00  0.00     0.151 C 
ATOM     60  C5  NAG d1175      16.886 -20.486   1.779  0.00  0.00     0.089 C 
ATOM     61  O5  NAG d1175      16.799 -20.967   0.451  0.00  0.00    -0.349 OA
ATOM     62  H   NAG d1175      17.188 -19.765  -2.430  0.00  0.00     0.212 HD
ATOM     63  H   NAG d1175      17.484 -23.245   3.353  0.00  0.00     0.209 HD
ATOM     64  H   NAG d1175      15.461 -18.061   3.477  0.00  0.00     0.210 HD
ATOM     65  H   NAG d1175      17.080 -17.840  -1.902  0.00  0.00     0.163 HD
ATOM     66  H   NAG d1175      16.439 -21.234   3.727  0.00  0.00     0.078 H 
ATOM     67  H   NAG d1175      15.693 -22.134   2.435  0.00  0.00     0.078 H 
ATOM     68  H   NAG d1175      14.995 -19.245  -0.505  0.00  0.00     0.084 H 
ATOM     69  H   NAG d1175      13.734 -18.432  -1.288  0.00  0.00     0.040 H 
ATOM     70  H   NAG d1175      13.333 -17.728  -2.836  0.00  0.00     0.040 H 
ATOM     71  H   NAG d1175      13.268 -16.751  -1.388  0.00  0.00     0.040 H 
ATOM     72  H   NAG d1175      17.042 -17.731   1.151  0.00  0.00     0.091 H 
ATOM     73  H   NAG d1175      14.935 -19.670   1.914  0.00  0.00     0.091 H 
ATOM     74  H   NAG d1175      18.017 -19.518  -0.274  0.00  0.00     0.132 H 
ATOM     75  H   NAG d1175      17.879 -20.126   1.948  0.00  0.00     0.090 H 
ATOM     76  C2  NAG d1181       0.943 -13.387  20.173  0.00  0.00     0.087 C 
ATOM     77  C8  NAG d1181      -1.214 -13.163  18.187  0.00  0.00    -0.003 C 
ATOM     78  O5  NAG d1181       3.062 -14.454  20.784  0.00  0.00    -0.349 OA
ATOM     79  O4  NAG d1181       0.418 -15.631  23.055  0.00  0.00    -0.390 OA
ATOM     80  C3  NAG d1181       0.372 -13.776  21.527  0.00  0.00     0.086 C 
ATOM     81  C1  NAG d1181       2.470 -13.296  20.213  0.00  0.00     0.154 C 
ATOM     82  N2  NAG d1181       0.385 -12.126  19.716  0.00  0.00    -0.349 N 
ATOM     83  C4  NAG d1181       1.016 -15.109  21.889  0.00  0.00     0.089 C 
ATOM     84  O6  NAG d1181       3.839 -16.856  21.630  0.00  0.00    -0.398 OA
ATOM     85  O3  NAG d1181      -1.044 -13.850  21.501  0.00  0.00    -0.391 OA
ATOM     86  C5  NAG d1181       2.524 -14.845  22.045  0.00  0.00     0.089 C 
ATOM     87  O7  NAG d1181      -0.313 -11.000  17.892  0.00  0.00    -0.274 OA
ATOM     88  C7  NAG d1181      -0.337 -12.011  18.591  0.00  0.00     0.214 C 
ATOM     89  C6  NAG d1181       3.318 -16.017  22.640  0.00  0.00     0.043 C 
ATOM     90  H   NAG d1181       0.669 -14.157  19.483  0.00  0.00     0.084 H 
ATOM     91  H   NAG d1181      -1.115 -13.954  18.902  0.00  0.00     0.040 H 
ATOM     92  H   NAG d1181      -0.918 -13.516  17.221  0.00  0.00     0.040 H 
ATOM     93  H   NAG d1181      -2.233 -12.841  18.152  0.00  0.00     0.040 H 
ATOM     94  H   NAG d1181      -0.528 -15.776  22.896  0.00  0.00     0.210 HD
ATOM     95  H   NAG d1181       0.592 -13.036  22.268  0.00  0.00     0.090 H 
ATOM     96  H   NAG d1181       2.808 -12.492  20.832  0.00  0.00     0.132 H 
ATOM     97  H   NAG d1181       0.544 -11.318  20.256  0.00  0.00     0.163 HD
ATOM     98  H   NAG d1181       0.869 -15.850  21.131  0.00  0.00     0.091 H 
ATOM     99  H   NAG d1181       4.333 -17.584  22.037  0.00  0.00     0.209 HD
ATOM    100  H   NAG d1181      -1.321 -14.508  20.845  0.00  0.00     0.210 HD
ATOM    101  H   NAG d1181       2.626 -14.055  22.759  0.00  0.00     0.090 H 
ATOM    102  H   NAG d1181       4.128 -15.628  23.221  0.00  0.00     0.078 H 
ATOM    103  H   NAG d1181       2.656 -16.596  23.249  0.00  0.00     0.078 H 
ATOM    104  C4  NAG d1179       8.563  -9.548  16.621  0.00  0.00     0.089 C 
ATOM    105  N2  NAG d1179       8.324 -12.243  13.929  0.00  0.00    -0.349 N 
ATOM    106  C6  NAG d1179       9.792  -7.360  16.284  0.00  0.00     0.043 C 
ATOM    107  O4  NAG d1179       7.584  -8.966  17.477  0.00  0.00    -0.390 OA
ATOM    108  O6  NAG d1179      11.019  -7.818  16.818  0.00  0.00    -0.398 OA
ATOM    109  C1  NAG d1179       9.358 -10.050  13.886  0.00  0.00     0.154 C 
ATOM    110  C5  NAG d1179       9.055  -8.508  15.617  0.00  0.00     0.089 C 
ATOM    111  O5  NAG d1179       9.967  -9.102  14.711  0.00  0.00    -0.349 OA
ATOM    112  C2  NAG d1179       8.899 -11.207  14.768  0.00  0.00     0.087 C 
ATOM    113  C8  NAG d1179       8.090 -14.450  13.047  0.00  0.00    -0.003 C 
ATOM    114  C7  NAG d1179       8.638 -13.528  14.083  0.00  0.00     0.214 C 
ATOM    115  C3  NAG d1179       7.950 -10.728  15.879  0.00  0.00     0.093 C 
ATOM    116  O3  NAG d1179       7.723 -11.778  16.807  0.00  0.00    -0.348 OA
ATOM    117  O7  NAG d1179       9.318 -13.958  15.009  0.00  0.00    -0.274 OA
ATOM    118  H   NAG d1179       9.391  -9.886  17.208  0.00  0.00     0.091 H 
ATOM    119  H   NAG d1179       7.683 -11.988  13.226  0.00  0.00     0.163 HD
ATOM    120  H   NAG d1179       9.190  -6.962  17.073  0.00  0.00     0.078 H 
ATOM    121  H   NAG d1179       9.987  -6.599  15.558  0.00  0.00     0.078 H 
ATOM    122  H   NAG d1179       6.832  -8.659  16.946  0.00  0.00     0.210 HD
ATOM    123  H   NAG d1179      10.846  -8.508  17.477  0.00  0.00     0.209 HD
ATOM    124  H   NAG d1179       8.570  -9.568  13.346  0.00  0.00     0.132 H 
ATOM    125  H   NAG d1179       8.182  -8.137  15.122  0.00  0.00     0.090 H 
ATOM    126  H   NAG d1179       9.741 -11.626  15.279  0.00  0.00     0.084 H 
ATOM    127  H   NAG d1179       7.528 -13.888  12.330  0.00  0.00     0.040 H 
ATOM    128  H   NAG d1179       7.451 -15.171  13.514  0.00  0.00     0.040 H 
ATOM    129  H   NAG d1179       8.895 -14.953  12.555  0.00  0.00     0.040 H 
ATOM    130  H   NAG d1179       7.026 -10.432  15.429  0.00  0.00     0.091 H 
ATOM    131  O5  BDP d1180       5.668 -11.197  17.677  0.00  0.00    -0.340 OA
ATOM    132  O6A BDP d1180       2.622  -9.857  18.052  0.00  0.00    -0.646 OA
ATOM    133  O2  BDP d1180       6.711 -14.481  16.544  0.00  0.00    -0.388 OA
ATOM    134  O3  BDP d1180       4.989 -15.042  18.862  0.00  0.00    -0.390 OA
ATOM    135  C5  BDP d1180       4.308 -11.509  17.884  0.00  0.00     0.152 C 
ATOM    136  C2  BDP d1180       6.284 -13.546  17.511  0.00  0.00     0.110 C 
ATOM    137  C3  BDP d1180       4.885 -13.946  17.971  0.00  0.00     0.092 C 
ATOM    138  C6  BDP d1180       3.652 -10.326  18.580  0.00  0.00     0.206 C 
ATOM    139  C1  BDP d1180       6.340 -12.150  16.891  0.00  0.00     0.160 C 
ATOM    140  C4  BDP d1180       4.200 -12.795  18.688  0.00  0.00     0.103 C 
ATOM    141  O6B BDP d1180       4.197  -9.883  19.625  0.00  0.00    -0.646 OA
ATOM    142  O4  BDP d1180       2.846 -13.127  18.837  0.00  0.00    -0.348 OA
ATOM    143  H   BDP d1180       7.601 -14.246  16.237  0.00  0.00     0.210 HD
ATOM    144  H   BDP d1180       5.426 -15.783  18.414  0.00  0.00     0.210 HD
ATOM    145  H   BDP d1180       3.799 -11.677  16.959  0.00  0.00     0.104 H 
ATOM    146  H   BDP d1180       6.916 -13.533  18.375  0.00  0.00     0.094 H 
ATOM    147  H   BDP d1180       4.306 -14.211  17.110  0.00  0.00     0.091 H 
ATOM    148  H   BDP d1180       5.864 -12.174  15.932  0.00  0.00     0.133 H 
ATOM    149  H   BDP d1180       4.670 -12.638  19.636  0.00  0.00     0.092 H 
ATOM    150  C3  BDP d1176      14.326 -13.759   2.286  0.00  0.00     0.092 C 
ATOM    151  O4  BDP d1176      13.970 -13.140   4.650  0.00  0.00    -0.348 OA
ATOM    152  O3  BDP d1176      13.434 -12.799   1.734  0.00  0.00    -0.390 OA
ATOM    153  O5  BDP d1176      14.810 -16.433   3.178  0.00  0.00    -0.340 OA
ATOM    154  O2  BDP d1176      14.994 -14.534   0.106  0.00  0.00    -0.388 OA
ATOM    155  C1  BDP d1176      15.253 -16.112   1.876  0.00  0.00     0.160 C 
ATOM    156  O6B BDP d1176      15.081 -15.915   6.400  0.00  0.00    -0.646 OA
ATOM    157  C5  BDP d1176      14.809 -15.352   4.115  0.00  0.00     0.152 C 
ATOM    158  O6A BDP d1176      13.200 -16.561   5.399  0.00  0.00    -0.646 OA
ATOM    159  C6  BDP d1176      14.318 -15.980   5.399  0.00  0.00     0.206 C 
ATOM    160  C4  BDP d1176      13.901 -14.192   3.700  0.00  0.00     0.103 C 
ATOM    161  C2  BDP d1176      14.414 -14.955   1.329  0.00  0.00     0.110 C 
ATOM    162  H   BDP d1176      15.295 -13.318   2.392  0.00  0.00     0.091 H 
ATOM    163  H   BDP d1176      12.553 -13.194   1.636  0.00  0.00     0.210 HD
ATOM    164  H   BDP d1176      14.477 -13.799  -0.260  0.00  0.00     0.210 HD
ATOM    165  H   BDP d1176      16.289 -15.845   1.921  0.00  0.00     0.133 H 
ATOM    166  H   BDP d1176      15.782 -14.914   4.197  0.00  0.00     0.104 H 
ATOM    167  H   BDP d1176      12.873 -14.488   3.675  0.00  0.00     0.092 H 
ATOM    168  H   BDP d1176      13.414 -15.312   1.197  0.00  0.00     0.094 H 
ENDROOT
TORSDOF 43
ENDMDL
MODEL 23
REMARK VINA RESULT:      -7.3      5.360      7.126
REMARK  0 active torsions:
REMARK  status: ('A' for Active; 'I' for Inactive)
REMARK       I    between atoms: C3_1  and  O3_90 
REMARK       I    between atoms: O1_4  and  C1_76 
REMARK       I    between atoms: C2_5  and  N2_21 
REMARK       I    between atoms: C8_6  and  C7_66 
REMARK       I    between atoms: C4_7  and  O4_24 
REMARK       I    between atoms: N2_9  and  C2_60 
REMARK       I    between atoms: N2_9  and  C7_69 
REMARK       I    between atoms: O4_12  and  C4_26 
REMARK       I    between atoms: O3_13  and  C3_65 
REMARK       I    between atoms: O3_13  and  C1_61 
REMARK       I    between atoms: C3_14  and  O3_35 
REMARK       I    between atoms: C6_15  and  C5_53 
REMARK       I    between atoms: C6_15  and  O6_46 
REMARK       I    between atoms: O6_16  and  C6_54 
REMARK       I    between atoms: C4_17  and  O4_49 
REMARK       I    between atoms: O4_18  and  C4_28 
REMARK       I    between atoms: O4_18  and  C1_47 
REMARK       I    between atoms: C3_19  and  O3_43 
REMARK       I    between atoms: C1_20  and  O4_91 
REMARK       I    between atoms: N2_21  and  C7_66 
REMARK       I    between atoms: O3_22  and  C3_82 
REMARK       I    between atoms: C7_23  and  C8_62 
REMARK       I    between atoms: C7_23  and  N2_51 
REMARK       I    between atoms: C2_25  and  N2_41 
REMARK       I    between atoms: C1_27  and  O3_90 
REMARK       I    between atoms: O6_29  and  C6_74 
REMARK       I    between atoms: O2_30  and  C2_37 
REMARK       I    between atoms: C2_31  and  O2_42 
REMARK       I    between atoms: O3_32  and  C3_45 
REMARK       I    between atoms: O4_33  and  C4_73 
REMARK       I    between atoms: O4_34  and  C4_84 
REMARK       I    between atoms: O4_34  and  C1_85 
REMARK       I    between atoms: C5_36  and  C6_48 
REMARK       I    between atoms: C6_38  and  C5_40 
REMARK       I    between atoms: C6_38  and  O6_89 
REMARK       I    between atoms: N2_41  and  C7_50 
REMARK       I    between atoms: C5_44  and  C6_74 
REMARK       I    between atoms: C7_50  and  C8_75 
REMARK       I    between atoms: N2_51  and  C2_58 
REMARK       I    between atoms: C1_52  and  O3_87 
REMARK       I    between atoms: C6_54  and  C5_86 
REMARK       I    between atoms: O2_59  and  C2_93 
REMARK       I    between atoms: C8_64  and  C7_69 
REMARK       I    between atoms: C6_70  and  C5_80 
REMARK       I    between atoms: C4_72  and  O4_91 
REMARK       I    between atoms: C5_77  and  C6_79 
REMARK       I    between atoms: C3_83  and  O3_87 
ROOT
ATOM      1  C3  NAG d1177      12.069 -12.413  14.286  0.00  0.00     0.093 C 
ATOM      2  O7  NAG d1177      11.082  -9.315  16.400  0.00  0.00    -0.274 OA
ATOM      3  C4  NAG d1177      12.709 -13.764  14.653  0.00  0.00     0.089 C 
ATOM      4  C2  NAG d1177      11.039 -12.015  15.330  0.00  0.00     0.087 C 
ATOM      5  C6  NAG d1177      12.251 -16.133  15.482  0.00  0.00     0.043 C 
ATOM      6  C5  NAG d1177      11.653 -14.806  14.985  0.00  0.00     0.089 C 
ATOM      7  N2  NAG d1177      10.235 -10.856  14.900  0.00  0.00    -0.349 N 
ATOM      8  O4  NAG d1177      13.520 -14.234  13.594  0.00  0.00    -0.390 OA
ATOM      9  C7  NAG d1177      10.319  -9.634  15.432  0.00  0.00     0.214 C 
ATOM     10  O5  NAG d1177      10.781 -14.309  15.993  0.00  0.00    -0.349 OA
ATOM     11  C8  NAG d1177       9.354  -8.668  14.796  0.00  0.00    -0.003 C 
ATOM     12  C1  NAG d1177      10.066 -13.162  15.599  0.00  0.00     0.154 C 
ATOM     13  O6  NAG d1177      12.958 -15.948  16.696  0.00  0.00    -0.398 OA
ATOM     14  O3  NAG d1177      13.052 -11.414  14.283  0.00  0.00    -0.348 OA
ATOM     15  H   NAG d1177      11.612 -12.514  13.325  0.00  0.00     0.091 H 
ATOM     16  H   NAG d1177      13.315 -13.605  15.521  0.00  0.00     0.091 H 
ATOM     17  H   NAG d1177      11.592 -11.766  16.212  0.00  0.00     0.084 H 
ATOM     18  H   NAG d1177      12.921 -16.514  14.740  0.00  0.00     0.078 H 
ATOM     19  H   NAG d1177      11.452 -16.823  15.655  0.00  0.00     0.078 H 
ATOM     20  H   NAG d1177      11.127 -14.999  14.074  0.00  0.00     0.090 H 
ATOM     21  H   NAG d1177       9.591 -10.993  14.167  0.00  0.00     0.163 HD
ATOM     22  H   NAG d1177      12.972 -14.378  12.806  0.00  0.00     0.210 HD
ATOM     23  H   NAG d1177       9.458  -7.707  15.254  0.00  0.00     0.040 H 
ATOM     24  H   NAG d1177       8.353  -9.022  14.934  0.00  0.00     0.040 H 
ATOM     25  H   NAG d1177       9.563  -8.590  13.750  0.00  0.00     0.040 H 
ATOM     26  H   NAG d1177       9.525 -13.397  14.707  0.00  0.00     0.132 H 
ATOM     27  H   NAG d1177      13.687 -15.323  16.553  0.00  0.00     0.209 HD
ATOM     28  O6A BDP d1178      14.964 -12.667  10.077  0.00  0.00    -0.646 OA
ATOM     29  O4  BDP d1178      14.125  -8.761   9.653  0.00  0.00    -0.348 OA
ATOM     30  O3  BDP d1178      15.092  -7.736  12.125  0.00  0.00    -0.390 OA
ATOM     31  C1  BDP d1178      13.096 -10.687  13.047  0.00  0.00     0.160 C 
ATOM     32  C4  BDP d1178      14.394  -9.568  10.775  0.00  0.00     0.103 C 
ATOM     33  C2  BDP d1178      14.048  -9.528  13.249  0.00  0.00     0.110 C 
ATOM     34  O2  BDP d1178      13.629  -8.731  14.327  0.00  0.00    -0.388 OA
ATOM     35  O6B BDP d1178      13.727 -11.711   8.484  0.00  0.00    -0.646 OA
ATOM     36  O5  BDP d1178      13.574 -11.486  11.980  0.00  0.00    -0.340 OA
ATOM     37  C6  BDP d1178      14.124 -11.812   9.679  0.00  0.00     0.206 C 
ATOM     38  C5  BDP d1178      13.561 -10.839  10.724  0.00  0.00     0.152 C 
ATOM     39  C3  BDP d1178      14.057  -8.694  12.000  0.00  0.00     0.092 C 
ATOM     40  H   BDP d1178      15.120  -7.183  11.328  0.00  0.00     0.210 HD
ATOM     41  H   BDP d1178      12.108 -10.366  12.792  0.00  0.00     0.133 H 
ATOM     42  H   BDP d1178      15.413  -9.892  10.815  0.00  0.00     0.092 H 
ATOM     43  H   BDP d1178      15.026  -9.906  13.460  0.00  0.00     0.094 H 
ATOM     44  H   BDP d1178      12.742  -8.382  14.147  0.00  0.00     0.210 HD
ATOM     45  H   BDP d1178      12.562 -10.562  10.462  0.00  0.00     0.104 H 
ATOM     46  H   BDP d1178      13.097  -8.240  11.871  0.00  0.00     0.091 H 
ATOM     47  O1  NAG d1175       0.093 -15.614  20.437  0.00  0.00    -0.369 OA
ATOM     48  O3  NAG d1175       4.196 -14.788  18.337  0.00  0.00    -0.348 OA
ATOM     49  O6  NAG d1175      -1.033 -11.695  17.524  0.00  0.00    -0.398 OA
ATOM     50  C7  NAG d1175       3.584 -17.048  20.343  0.00  0.00     0.214 C 
ATOM     51  O4  NAG d1175       2.986 -12.317  17.153  0.00  0.00    -0.390 OA
ATOM     52  N2  NAG d1175       2.763 -15.998  20.467  0.00  0.00    -0.349 N 
ATOM     53  C6  NAG d1175       0.061 -12.406  17.013  0.00  0.00     0.043 C 
ATOM     54  C2  NAG d1175       2.154 -15.247  19.358  0.00  0.00     0.087 C 
ATOM     55  C8  NAG d1175       3.590 -17.813  19.058  0.00  0.00    -0.003 C 
ATOM     56  O7  NAG d1175       4.336 -17.400  21.266  0.00  0.00    -0.274 OA
ATOM     57  C3  NAG d1175       3.037 -14.134  18.814  0.00  0.00     0.093 C 
ATOM     58  C4  NAG d1175       2.256 -13.414  17.706  0.00  0.00     0.089 C 
ATOM     59  C1  NAG d1175       0.865 -14.604  19.850  0.00  0.00     0.151 C 
ATOM     60  C5  NAG d1175       0.866 -12.967  18.175  0.00  0.00     0.089 C 
ATOM     61  O5  NAG d1175       0.146 -14.032  18.767  0.00  0.00    -0.349 OA
ATOM     62  H   NAG d1175       0.582 -16.006  21.177  0.00  0.00     0.212 HD
ATOM     63  H   NAG d1175      -1.554 -11.333  16.790  0.00  0.00     0.209 HD
ATOM     64  H   NAG d1175       3.860 -12.623  16.864  0.00  0.00     0.210 HD
ATOM     65  H   NAG d1175       2.547 -15.703  21.381  0.00  0.00     0.163 HD
ATOM     66  H   NAG d1175       0.676 -11.751  16.432  0.00  0.00     0.078 H 
ATOM     67  H   NAG d1175      -0.283 -13.206  16.389  0.00  0.00     0.078 H 
ATOM     68  H   NAG d1175       1.992 -15.952  18.570  0.00  0.00     0.084 H 
ATOM     69  H   NAG d1175       2.887 -17.375  18.380  0.00  0.00     0.040 H 
ATOM     70  H   NAG d1175       3.317 -18.830  19.248  0.00  0.00     0.040 H 
ATOM     71  H   NAG d1175       4.569 -17.779  18.628  0.00  0.00     0.040 H 
ATOM     72  H   NAG d1175       3.312 -13.392  19.534  0.00  0.00     0.091 H 
ATOM     73  H   NAG d1175       2.119 -14.132  16.925  0.00  0.00     0.091 H 
ATOM     74  H   NAG d1175       1.086 -13.826  20.551  0.00  0.00     0.132 H 
ATOM     75  H   NAG d1175       1.016 -12.205  18.910  0.00  0.00     0.090 H 
ATOM     76  C2  NAG d1181      15.209  -9.262  -2.405  0.00  0.00     0.087 C 
ATOM     77  C8  NAG d1181      15.493 -12.173  -2.704  0.00  0.00    -0.003 C 
ATOM     78  O5  NAG d1181      13.838  -7.413  -1.563  0.00  0.00    -0.349 OA
ATOM     79  O4  NAG d1181      13.814  -7.357  -5.241  0.00  0.00    -0.390 OA
ATOM     80  C3  NAG d1181      15.260  -8.587  -3.765  0.00  0.00     0.086 C 
ATOM     81  C1  NAG d1181      14.952  -8.250  -1.286  0.00  0.00     0.154 C 
ATOM     82  N2  NAG d1181      16.437  -9.991  -2.138  0.00  0.00    -0.349 N 
ATOM     83  C4  NAG d1181      13.924  -7.874  -3.933  0.00  0.00     0.089 C 
ATOM     84  O6  NAG d1181      11.560  -6.227  -2.263  0.00  0.00    -0.398 OA
ATOM     85  O3  NAG d1181      15.510  -9.517  -4.806  0.00  0.00    -0.391 OA
ATOM     86  C5  NAG d1181      13.860  -6.788  -2.844  0.00  0.00     0.089 C 
ATOM     87  O7  NAG d1181      17.276 -11.854  -1.187  0.00  0.00    -0.274 OA
ATOM     88  C7  NAG d1181      16.471 -11.319  -1.947  0.00  0.00     0.214 C 
ATOM     89  C6  NAG d1181      12.692  -5.802  -2.993  0.00  0.00     0.043 C 
ATOM     90  H   NAG d1181      14.393  -9.953  -2.427  0.00  0.00     0.084 H 
ATOM     91  H   NAG d1181      14.872 -11.550  -3.313  0.00  0.00     0.040 H 
ATOM     92  H   NAG d1181      14.883 -12.716  -2.011  0.00  0.00     0.040 H 
ATOM     93  H   NAG d1181      16.026 -12.861  -3.325  0.00  0.00     0.040 H 
ATOM     94  H   NAG d1181      13.861  -8.085  -5.881  0.00  0.00     0.210 HD
ATOM     95  H   NAG d1181      16.070  -7.890  -3.822  0.00  0.00     0.090 H 
ATOM     96  H   NAG d1181      15.770  -7.572  -1.162  0.00  0.00     0.132 H 
ATOM     97  H   NAG d1181      17.283  -9.488  -2.097  0.00  0.00     0.163 HD
ATOM     98  H   NAG d1181      13.092  -8.536  -3.812  0.00  0.00     0.091 H 
ATOM     99  H   NAG d1181      10.842  -5.586  -2.377  0.00  0.00     0.209 HD
ATOM    100  H   NAG d1181      14.809 -10.186  -4.817  0.00  0.00     0.210 HD
ATOM    101  H   NAG d1181      14.739  -6.188  -2.955  0.00  0.00     0.090 H 
ATOM    102  H   NAG d1181      12.999  -4.843  -2.633  0.00  0.00     0.078 H 
ATOM    103  H   NAG d1181      12.425  -5.753  -4.028  0.00  0.00     0.078 H 
ATOM    104  C4  NAG d1179      16.340  -7.140   6.520  0.00  0.00     0.089 C 
ATOM    105  N2  NAG d1179      13.261  -9.310   7.134  0.00  0.00    -0.349 N 
ATOM    106  C6  NAG d1179      18.062  -6.642   8.308  0.00  0.00     0.043 C 
ATOM    107  O4  NAG d1179      17.300  -7.125   5.468  0.00  0.00    -0.390 OA
ATOM    108  O6  NAG d1179      17.459  -5.438   8.736  0.00  0.00    -0.398 OA
ATOM    109  C1  NAG d1179      15.095  -8.713   8.603  0.00  0.00     0.154 C 
ATOM    110  C5  NAG d1179      16.998  -7.609   7.815  0.00  0.00     0.089 C 
ATOM    111  O5  NAG d1179      16.031  -7.706   8.844  0.00  0.00    -0.349 OA
ATOM    112  C2  NAG d1179      14.291  -8.315   7.370  0.00  0.00     0.087 C 
ATOM    113  C8  NAG d1179      11.031 -10.100   6.806  0.00  0.00    -0.003 C 
ATOM    114  C7  NAG d1179      12.001  -8.970   6.867  0.00  0.00     0.214 C 
ATOM    115  C3  NAG d1179      15.201  -8.083   6.152  0.00  0.00     0.093 C 
ATOM    116  O3  NAG d1179      14.455  -7.502   5.094  0.00  0.00    -0.348 OA
ATOM    117  O7  NAG d1179      11.634  -7.817   6.666  0.00  0.00    -0.274 OA
ATOM    118  H   NAG d1179      15.953  -6.152   6.662  0.00  0.00     0.091 H 
ATOM    119  H   NAG d1179      13.500 -10.265   7.172  0.00  0.00     0.163 HD
ATOM    120  H   NAG d1179      18.747  -6.433   7.514  0.00  0.00     0.078 H 
ATOM    121  H   NAG d1179      18.584  -7.085   9.130  0.00  0.00     0.078 H 
ATOM    122  H   NAG d1179      17.652  -8.019   5.338  0.00  0.00     0.210 HD
ATOM    123  H   NAG d1179      16.984  -5.033   7.993  0.00  0.00     0.209 HD
ATOM    124  H   NAG d1179      15.619  -9.641   8.507  0.00  0.00     0.132 H 
ATOM    125  H   NAG d1179      17.447  -8.555   7.594  0.00  0.00     0.090 H 
ATOM    126  H   NAG d1179      13.808  -7.376   7.542  0.00  0.00     0.084 H 
ATOM    127  H   NAG d1179      11.540 -11.020   7.008  0.00  0.00     0.040 H 
ATOM    128  H   NAG d1179      10.593 -10.142   5.830  0.00  0.00     0.040 H 
ATOM    129  H   NAG d1179      10.263  -9.951   7.535  0.00  0.00     0.040 H 
ATOM    130  H   NAG d1179      15.599  -9.027   5.844  0.00  0.00     0.091 H 
ATOM    131  O5  BDP d1180      15.666  -8.167   3.248  0.00  0.00    -0.340 OA
ATOM    132  O6A BDP d1180      17.720  -9.862   1.216  0.00  0.00    -0.646 OA
ATOM    133  O2  BDP d1180      12.066  -8.310   3.667  0.00  0.00    -0.388 OA
ATOM    134  O3  BDP d1180      12.425  -7.635   0.826  0.00  0.00    -0.390 OA
ATOM    135  C5  BDP d1180      15.728  -8.879   2.031  0.00  0.00     0.152 C 
ATOM    136  C2  BDP d1180      13.259  -7.860   3.061  0.00  0.00     0.110 C 
ATOM    137  C3  BDP d1180      13.299  -8.402   1.635  0.00  0.00     0.092 C 
ATOM    138  C6  BDP d1180      17.150  -8.787   1.501  0.00  0.00     0.206 C 
ATOM    139  C1  BDP d1180      14.439  -8.322   3.917  0.00  0.00     0.160 C 
ATOM    140  C4  BDP d1180      14.703  -8.313   1.061  0.00  0.00     0.103 C 
ATOM    141  O6B BDP d1180      17.668  -7.645   1.403  0.00  0.00    -0.646 OA
ATOM    142  O4  BDP d1180      14.731  -9.064  -0.122  0.00  0.00    -0.348 OA
ATOM    143  H   BDP d1180      12.019  -7.977   4.577  0.00  0.00     0.210 HD
ATOM    144  H   BDP d1180      11.525  -7.685   1.185  0.00  0.00     0.210 HD
ATOM    145  H   BDP d1180      15.487  -9.912   2.169  0.00  0.00     0.104 H 
ATOM    146  H   BDP d1180      13.310  -6.792   3.002  0.00  0.00     0.094 H 
ATOM    147  H   BDP d1180      12.998  -9.429   1.652  0.00  0.00     0.091 H 
ATOM    148  H   BDP d1180      14.320  -9.361   4.143  0.00  0.00     0.133 H 
ATOM    149  H   BDP d1180      14.947  -7.287   0.878  0.00  0.00     0.092 H 
ATOM    150  C3  BDP d1176       7.951 -14.335  18.108  0.00  0.00     0.092 C 
ATOM    151  O4  BDP d1176       9.126 -12.765  16.608  0.00  0.00    -0.348 OA
ATOM    152  O3  BDP d1176       8.950 -15.347  18.093  0.00  0.00    -0.390 OA
ATOM    153  O5  BDP d1176       5.491 -13.298  17.082  0.00  0.00    -0.340 OA
ATOM    154  O2  BDP d1176       6.596 -15.561  19.676  0.00  0.00    -0.388 OA
ATOM    155  C1  BDP d1176       5.416 -14.014  18.296  0.00  0.00     0.160 C 
ATOM    156  O6B BDP d1176       6.610 -10.666  15.486  0.00  0.00    -0.646 OA
ATOM    157  C5  BDP d1176       6.718 -12.598  16.851  0.00  0.00     0.152 C 
ATOM    158  O6A BDP d1176       6.215 -12.632  14.518  0.00  0.00    -0.646 OA
ATOM    159  C6  BDP d1176       6.510 -11.922  15.516  0.00  0.00     0.206 C 
ATOM    160  C4  BDP d1176       7.940 -13.520  16.804  0.00  0.00     0.103 C 
ATOM    161  C2  BDP d1176       6.591 -14.991  18.379  0.00  0.00     0.110 C 
ATOM    162  H   BDP d1176       8.170 -13.638  18.890  0.00  0.00     0.091 H 
ATOM    163  H   BDP d1176       8.757 -15.982  17.386  0.00  0.00     0.210 HD
ATOM    164  H   BDP d1176       7.334 -16.186  19.752  0.00  0.00     0.210 HD
ATOM    165  H   BDP d1176       5.441 -13.318  19.109  0.00  0.00     0.133 H 
ATOM    166  H   BDP d1176       6.927 -11.917  17.649  0.00  0.00     0.104 H 
ATOM    167  H   BDP d1176       7.890 -14.195  15.976  0.00  0.00     0.092 H 
ATOM    168  H   BDP d1176       6.454 -15.730  17.617  0.00  0.00     0.094 H 
ENDROOT
TORSDOF 43
ENDMDL
MODEL 24
REMARK VINA RESULT:      -7.3      2.159      2.677
REMARK  0 active torsions:
REMARK  status: ('A' for Active; 'I' for Inactive)
REMARK       I    between atoms: C3_1  and  O3_90 
REMARK       I    between atoms: O1_4  and  C1_76 
REMARK       I    between atoms: C2_5  and  N2_21 
REMARK       I    between atoms: C8_6  and  C7_66 
REMARK       I    between atoms: C4_7  and  O4_24 
REMARK       I    between atoms: N2_9  and  C2_60 
REMARK       I    between atoms: N2_9  and  C7_69 
REMARK       I    between atoms: O4_12  and  C4_26 
REMARK       I    between atoms: O3_13  and  C3_65 
REMARK       I    between atoms: O3_13  and  C1_61 
REMARK       I    between atoms: C3_14  and  O3_35 
REMARK       I    between atoms: C6_15  and  C5_53 
REMARK       I    between atoms: C6_15  and  O6_46 
REMARK       I    between atoms: O6_16  and  C6_54 
REMARK       I    between atoms: C4_17  and  O4_49 
REMARK       I    between atoms: O4_18  and  C4_28 
REMARK       I    between atoms: O4_18  and  C1_47 
REMARK       I    between atoms: C3_19  and  O3_43 
REMARK       I    between atoms: C1_20  and  O4_91 
REMARK       I    between atoms: N2_21  and  C7_66 
REMARK       I    between atoms: O3_22  and  C3_82 
REMARK       I    between atoms: C7_23  and  C8_62 
REMARK       I    between atoms: C7_23  and  N2_51 
REMARK       I    between atoms: C2_25  and  N2_41 
REMARK       I    between atoms: C1_27  and  O3_90 
REMARK       I    between atoms: O6_29  and  C6_74 
REMARK       I    between atoms: O2_30  and  C2_37 
REMARK       I    between atoms: C2_31  and  O2_42 
REMARK       I    between atoms: O3_32  and  C3_45 
REMARK       I    between atoms: O4_33  and  C4_73 
REMARK       I    between atoms: O4_34  and  C4_84 
REMARK       I    between atoms: O4_34  and  C1_85 
REMARK       I    between atoms: C5_36  and  C6_48 
REMARK       I    between atoms: C6_38  and  C5_40 
REMARK       I    between atoms: C6_38  and  O6_89 
REMARK       I    between atoms: N2_41  and  C7_50 
REMARK       I    between atoms: C5_44  and  C6_74 
REMARK       I    between atoms: C7_50  and  C8_75 
REMARK       I    between atoms: N2_51  and  C2_58 
REMARK       I    between atoms: C1_52  and  O3_87 
REMARK       I    between atoms: C6_54  and  C5_86 
REMARK       I    between atoms: O2_59  and  C2_93 
REMARK       I    between atoms: C8_64  and  C7_69 
REMARK       I    between atoms: C6_70  and  C5_80 
REMARK       I    between atoms: C4_72  and  O4_91 
REMARK       I    between atoms: C5_77  and  C6_79 
REMARK       I    between atoms: C3_83  and  O3_87 
ROOT
ATOM      1  C3  NAG d1177      12.691 -11.463   9.416  0.00  0.00     0.093 C 
ATOM      2  O7  NAG d1177      10.835  -8.159  10.239  0.00  0.00    -0.274 OA
ATOM      3  C4  NAG d1177      14.008 -12.073   9.927  0.00  0.00     0.089 C 
ATOM      4  C2  NAG d1177      11.919 -10.833  10.564  0.00  0.00     0.087 C 
ATOM      5  C6  NAG d1177      15.081 -13.481  11.764  0.00  0.00     0.043 C 
ATOM      6  C5  NAG d1177      13.776 -12.955  11.143  0.00  0.00     0.089 C 
ATOM      7  N2  NAG d1177      10.552 -10.451  10.168  0.00  0.00    -0.349 N 
ATOM      8  O4  NAG d1177      14.634 -12.829   8.908  0.00  0.00    -0.390 OA
ATOM      9  C7  NAG d1177      10.126  -9.194  10.024  0.00  0.00     0.214 C 
ATOM     10  O5  NAG d1177      13.073 -12.228  12.143  0.00  0.00    -0.349 OA
ATOM     11  C8  NAG d1177       8.672  -9.125   9.634  0.00  0.00    -0.003 C 
ATOM     12  C1  NAG d1177      11.793 -11.808  11.734  0.00  0.00     0.154 C 
ATOM     13  O6  NAG d1177      15.879 -12.416  12.248  0.00  0.00    -0.398 OA
ATOM     14  O3  NAG d1177      12.972 -10.437   8.504  0.00  0.00    -0.348 OA
ATOM     15  H   NAG d1177      12.119 -12.244   8.962  0.00  0.00     0.091 H 
ATOM     16  H   NAG d1177      14.647 -11.263  10.211  0.00  0.00     0.091 H 
ATOM     17  H   NAG d1177      12.472  -9.962  10.849  0.00  0.00     0.084 H 
ATOM     18  H   NAG d1177      15.630 -14.020  11.020  0.00  0.00     0.078 H 
ATOM     19  H   NAG d1177      14.834 -14.122  12.584  0.00  0.00     0.078 H 
ATOM     20  H   NAG d1177      13.209 -13.795  10.800  0.00  0.00     0.090 H 
ATOM     21  H   NAG d1177       9.906 -11.175   9.996  0.00  0.00     0.163 HD
ATOM     22  H   NAG d1177      14.057 -13.564   8.649  0.00  0.00     0.210 HD
ATOM     23  H   NAG d1177       8.379  -8.101   9.531  0.00  0.00     0.040 H 
ATOM     24  H   NAG d1177       8.078  -9.592  10.391  0.00  0.00     0.040 H 
ATOM     25  H   NAG d1177       8.528  -9.633   8.703  0.00  0.00     0.040 H 
ATOM     26  H   NAG d1177      11.241 -12.672  11.429  0.00  0.00     0.132 H 
ATOM     27  H   NAG d1177      16.111 -11.826  11.513  0.00  0.00     0.209 HD
ATOM     28  O6A BDP d1178      14.075 -13.348   4.868  0.00  0.00    -0.646 OA
ATOM     29  O4  BDP d1178      11.255 -10.916   3.361  0.00  0.00    -0.348 OA
ATOM     30  O3  BDP d1178      12.159  -8.393   4.319  0.00  0.00    -0.390 OA
ATOM     31  C1  BDP d1178      12.307 -10.620   7.246  0.00  0.00     0.160 C 
ATOM     32  C4  BDP d1178      12.187 -10.771   4.407  0.00  0.00     0.103 C 
ATOM     33  C2  BDP d1178      12.533  -9.359   6.439  0.00  0.00     0.110 C 
ATOM     34  O2  BDP d1178      12.062  -8.237   7.138  0.00  0.00    -0.388 OA
ATOM     35  O6B BDP d1178      12.155 -13.937   3.894  0.00  0.00    -0.646 OA
ATOM     36  O5  BDP d1178      12.830 -11.721   6.525  0.00  0.00    -0.340 OA
ATOM     37  C6  BDP d1178      12.843 -13.185   4.639  0.00  0.00     0.206 C 
ATOM     38  C5  BDP d1178      12.155 -11.991   5.314  0.00  0.00     0.152 C 
ATOM     39  C3  BDP d1178      11.781  -9.480   5.144  0.00  0.00     0.092 C 
ATOM     40  H   BDP d1178      11.686  -8.448   3.474  0.00  0.00     0.210 HD
ATOM     41  H   BDP d1178      11.269 -10.813   7.421  0.00  0.00     0.133 H 
ATOM     42  H   BDP d1178      13.195 -10.701   4.054  0.00  0.00     0.092 H 
ATOM     43  H   BDP d1178      13.581  -9.239   6.258  0.00  0.00     0.094 H 
ATOM     44  H   BDP d1178      11.112  -8.336   7.307  0.00  0.00     0.210 HD
ATOM     45  H   BDP d1178      11.130 -12.225   5.508  0.00  0.00     0.104 H 
ATOM     46  H   BDP d1178      10.730  -9.490   5.346  0.00  0.00     0.091 H 
ATOM     47  O1  NAG d1175       6.217 -13.586  21.461  0.00  0.00    -0.369 OA
ATOM     48  O3  NAG d1175       8.577 -13.057  17.451  0.00  0.00    -0.348 OA
ATOM     49  O6  NAG d1175       2.504 -12.715  18.210  0.00  0.00    -0.398 OA
ATOM     50  C7  NAG d1175       9.777 -13.724  20.212  0.00  0.00     0.214 C 
ATOM     51  O4  NAG d1175       6.001 -12.259  16.150  0.00  0.00    -0.390 OA
ATOM     52  N2  NAG d1175       8.597 -13.097  20.290  0.00  0.00    -0.349 N 
ATOM     53  C6  NAG d1175       3.630 -13.242  17.562  0.00  0.00     0.043 C 
ATOM     54  C2  NAG d1175       7.421 -13.371  19.449  0.00  0.00     0.087 C 
ATOM     55  C8  NAG d1175       9.842 -15.063  19.553  0.00  0.00    -0.003 C 
ATOM     56  O7  NAG d1175      10.813 -13.221  20.675  0.00  0.00    -0.274 OA
ATOM     57  C3  NAG d1175       7.420 -12.612  18.131  0.00  0.00     0.093 C 
ATOM     58  C4  NAG d1175       6.121 -12.957  17.390  0.00  0.00     0.089 C 
ATOM     59  C1  NAG d1175       6.167 -12.961  20.210  0.00  0.00     0.151 C 
ATOM     60  C5  NAG d1175       4.881 -12.737  18.265  0.00  0.00     0.089 C 
ATOM     61  O5  NAG d1175       5.002 -13.386  19.518  0.00  0.00    -0.349 OA
ATOM     62  H   NAG d1175       7.012 -13.298  21.936  0.00  0.00     0.212 HD
ATOM     63  H   NAG d1175       1.700 -13.031  17.770  0.00  0.00     0.209 HD
ATOM     64  H   NAG d1175       6.795 -12.413  15.614  0.00  0.00     0.210 HD
ATOM     65  H   NAG d1175       8.508 -12.390  20.969  0.00  0.00     0.163 HD
ATOM     66  H   NAG d1175       3.638 -12.924  16.540  0.00  0.00     0.078 H 
ATOM     67  H   NAG d1175       3.601 -14.312  17.594  0.00  0.00     0.078 H 
ATOM     68  H   NAG d1175       7.448 -14.416  19.225  0.00  0.00     0.084 H 
ATOM     69  H   NAG d1175       8.865 -15.342  19.215  0.00  0.00     0.040 H 
ATOM     70  H   NAG d1175      10.197 -15.790  20.254  0.00  0.00     0.040 H 
ATOM     71  H   NAG d1175      10.509 -15.017  18.717  0.00  0.00     0.040 H 
ATOM     72  H   NAG d1175       7.448 -11.547  18.231  0.00  0.00     0.091 H 
ATOM     73  H   NAG d1175       6.177 -14.002  17.165  0.00  0.00     0.091 H 
ATOM     74  H   NAG d1175       6.128 -11.897  20.307  0.00  0.00     0.132 H 
ATOM     75  H   NAG d1175       4.800 -11.684  18.432  0.00  0.00     0.090 H 
ATOM     76  C2  NAG d1181       9.236 -18.198  -6.110  0.00  0.00     0.087 C 
ATOM     77  C8  NAG d1181      10.899 -20.476  -5.280  0.00  0.00    -0.003 C 
ATOM     78  O5  NAG d1181       7.383 -16.699  -5.541  0.00  0.00    -0.349 OA
ATOM     79  O4  NAG d1181       6.370 -18.866  -8.337  0.00  0.00    -0.390 OA
ATOM     80  C3  NAG d1181       8.571 -18.492  -7.445  0.00  0.00     0.086 C 
ATOM     81  C1  NAG d1181       8.795 -16.844  -5.550  0.00  0.00     0.154 C 
ATOM     82  N2  NAG d1181      10.683 -18.236  -6.230  0.00  0.00    -0.349 N 
ATOM     83  C4  NAG d1181       7.070 -18.438  -7.189  0.00  0.00     0.089 C 
ATOM     84  O6  NAG d1181       4.730 -16.878  -5.405  0.00  0.00    -0.398 OA
ATOM     85  O3  NAG d1181       8.984 -19.741  -7.976  0.00  0.00    -0.391 OA
ATOM     86  C5  NAG d1181       6.741 -16.991  -6.780  0.00  0.00     0.089 C 
ATOM     87  O7  NAG d1181      12.582 -18.823  -5.167  0.00  0.00    -0.274 OA
ATOM     88  C7  NAG d1181      11.450 -19.106  -5.555  0.00  0.00     0.214 C 
ATOM     89  C6  NAG d1181       5.240 -16.675  -6.708  0.00  0.00     0.043 C 
ATOM     90  H   NAG d1181       8.925 -18.961  -5.428  0.00  0.00     0.084 H 
ATOM     91  H   NAG d1181       9.910 -20.551  -5.683  0.00  0.00     0.040 H 
ATOM     92  H   NAG d1181      10.865 -20.643  -4.223  0.00  0.00     0.040 H 
ATOM     93  H   NAG d1181      11.527 -21.212  -5.737  0.00  0.00     0.040 H 
ATOM     94  H   NAG d1181       6.617 -19.780  -8.545  0.00  0.00     0.210 HD
ATOM     95  H   NAG d1181       8.854 -17.774  -8.185  0.00  0.00     0.090 H 
ATOM     96  H   NAG d1181       9.142 -16.029  -6.150  0.00  0.00     0.132 H 
ATOM     97  H   NAG d1181      11.122 -17.593  -6.834  0.00  0.00     0.163 HD
ATOM     98  H   NAG d1181       6.768 -19.099  -6.403  0.00  0.00     0.091 H 
ATOM     99  H   NAG d1181       3.783 -16.670  -5.393  0.00  0.00     0.209 HD
ATOM    100  H   NAG d1181       8.757 -20.447  -7.352  0.00  0.00     0.210 HD
ATOM    101  H   NAG d1181       7.115 -16.359  -7.557  0.00  0.00     0.090 H 
ATOM    102  H   NAG d1181       5.086 -15.654  -6.986  0.00  0.00     0.078 H 
ATOM    103  H   NAG d1181       4.726 -17.333  -7.376  0.00  0.00     0.078 H 
ATOM    104  C4  NAG d1179      11.396 -10.946  -0.802  0.00  0.00     0.089 C 
ATOM    105  N2  NAG d1179      10.177 -13.080   2.118  0.00  0.00    -0.349 N 
ATOM    106  C6  NAG d1179      13.008  -9.014  -0.526  0.00  0.00     0.043 C 
ATOM    107  O4  NAG d1179      11.894 -11.291  -2.091  0.00  0.00    -0.390 OA
ATOM    108  O6  NAG d1179      12.005  -8.027  -0.393  0.00  0.00    -0.398 OA
ATOM    109  C1  NAG d1179      11.745 -11.232   2.055  0.00  0.00     0.154 C 
ATOM    110  C5  NAG d1179      12.515 -10.335   0.038  0.00  0.00     0.089 C 
ATOM    111  O5  NAG d1179      12.048 -10.067   1.348  0.00  0.00    -0.349 OA
ATOM    112  C2  NAG d1179      10.561 -11.900   1.364  0.00  0.00     0.087 C 
ATOM    113  C8  NAG d1179       8.685 -14.503   3.325  0.00  0.00    -0.003 C 
ATOM    114  C7  NAG d1179       8.905 -13.343   2.414  0.00  0.00     0.214 C 
ATOM    115  C3  NAG d1179      10.862 -12.196  -0.114  0.00  0.00     0.093 C 
ATOM    116  O3  NAG d1179       9.676 -12.607  -0.778  0.00  0.00    -0.348 OA
ATOM    117  O7  NAG d1179       7.956 -12.704   1.972  0.00  0.00    -0.274 OA
ATOM    118  H   NAG d1179      10.606 -10.231  -0.906  0.00  0.00     0.091 H 
ATOM    119  H   NAG d1179      10.877 -13.704   2.420  0.00  0.00     0.163 HD
ATOM    120  H   NAG d1179      13.249  -9.137  -1.561  0.00  0.00     0.078 H 
ATOM    121  H   NAG d1179      13.878  -8.705   0.014  0.00  0.00     0.078 H 
ATOM    122  H   NAG d1179      12.609 -11.939  -1.999  0.00  0.00     0.210 HD
ATOM    123  H   NAG d1179      11.214  -8.303  -0.882  0.00  0.00     0.209 HD
ATOM    124  H   NAG d1179      12.627 -11.836   2.099  0.00  0.00     0.132 H 
ATOM    125  H   NAG d1179      13.313 -11.048   0.034  0.00  0.00     0.090 H 
ATOM    126  H   NAG d1179       9.726 -11.231   1.351  0.00  0.00     0.084 H 
ATOM    127  H   NAG d1179       9.629 -14.926   3.599  0.00  0.00     0.040 H 
ATOM    128  H   NAG d1179       8.095 -15.242   2.825  0.00  0.00     0.040 H 
ATOM    129  H   NAG d1179       8.174 -14.173   4.205  0.00  0.00     0.040 H 
ATOM    130  H   NAG d1179      11.594 -12.975  -0.160  0.00  0.00     0.091 H 
ATOM    131  O5  BDP d1180      10.523 -13.865  -2.514  0.00  0.00    -0.340 OA
ATOM    132  O6A BDP d1180      12.541 -15.766  -4.394  0.00  0.00    -0.646 OA
ATOM    133  O2  BDP d1180       7.776 -14.746  -0.314  0.00  0.00    -0.388 OA
ATOM    134  O3  BDP d1180       6.974 -15.838  -2.925  0.00  0.00    -0.390 OA
ATOM    135  C5  BDP d1180      10.623 -15.109  -3.173  0.00  0.00     0.152 C 
ATOM    136  C2  BDP d1180       8.355 -14.432  -1.562  0.00  0.00     0.110 C 
ATOM    137  C3  BDP d1180       8.295 -15.680  -2.439  0.00  0.00     0.092 C 
ATOM    138  C6  BDP d1180      11.594 -14.953  -4.333  0.00  0.00     0.206 C 
ATOM    139  C1  BDP d1180       9.779 -13.930  -1.322  0.00  0.00     0.160 C 
ATOM    140  C4  BDP d1180       9.241 -15.557  -3.622  0.00  0.00     0.103 C 
ATOM    141  O6B BDP d1180      11.397 -14.008  -5.141  0.00  0.00    -0.646 OA
ATOM    142  O4  BDP d1180       9.343 -16.820  -4.222  0.00  0.00    -0.348 OA
ATOM    143  H   BDP d1180       7.804 -13.965   0.261  0.00  0.00     0.210 HD
ATOM    144  H   BDP d1180       6.362 -15.917  -2.177  0.00  0.00     0.210 HD
ATOM    145  H   BDP d1180      10.999 -15.869  -2.521  0.00  0.00     0.104 H 
ATOM    146  H   BDP d1180       7.828 -13.653  -2.073  0.00  0.00     0.094 H 
ATOM    147  H   BDP d1180       8.587 -16.524  -1.850  0.00  0.00     0.091 H 
ATOM    148  H   BDP d1180      10.281 -14.606  -0.662  0.00  0.00     0.133 H 
ATOM    149  H   BDP d1180       8.859 -14.829  -4.307  0.00  0.00     0.092 H 
ATOM    150  C3  BDP d1176      11.338 -11.787  15.189  0.00  0.00     0.092 C 
ATOM    151  O4  BDP d1176      11.087 -11.175  12.811  0.00  0.00    -0.348 OA
ATOM    152  O3  BDP d1176      12.672 -12.270  15.089  0.00  0.00    -0.390 OA
ATOM    153  O5  BDP d1176       8.529 -12.324  15.231  0.00  0.00    -0.340 OA
ATOM    154  O2  BDP d1176      11.283 -12.152  17.569  0.00  0.00    -0.388 OA
ATOM    155  C1  BDP d1176       9.158 -12.155  16.484  0.00  0.00     0.160 C 
ATOM    156  O6B BDP d1176       7.657 -10.989  12.371  0.00  0.00    -0.646 OA
ATOM    157  C5  BDP d1176       9.105 -11.589  14.146  0.00  0.00     0.152 C 
ATOM    158  O6A BDP d1176       8.101 -13.153  12.648  0.00  0.00    -0.646 OA
ATOM    159  C6  BDP d1176       8.234 -11.940  12.962  0.00  0.00     0.206 C 
ATOM    160  C4  BDP d1176      10.565 -11.959  13.871  0.00  0.00     0.103 C 
ATOM    161  C2  BDP d1176      10.642 -12.503  16.354  0.00  0.00     0.110 C 
ATOM    162  H   BDP d1176      11.359 -10.734  15.383  0.00  0.00     0.091 H 
ATOM    163  H   BDP d1176      12.659 -13.224  14.913  0.00  0.00     0.210 HD
ATOM    164  H   BDP d1176      12.227 -12.364  17.509  0.00  0.00     0.210 HD
ATOM    165  H   BDP d1176       9.030 -11.140  16.800  0.00  0.00     0.133 H 
ATOM    166  H   BDP d1176       9.131 -10.542  14.363  0.00  0.00     0.104 H 
ATOM    167  H   BDP d1176      10.657 -12.975  13.548  0.00  0.00     0.092 H 
ATOM    168  H   BDP d1176      10.714 -13.551  16.151  0.00  0.00     0.094 H 
ENDROOT
TORSDOF 43
ENDMDL
MODEL 25
REMARK VINA RESULT:      -7.3      4.890      5.972
REMARK  0 active torsions:
REMARK  status: ('A' for Active; 'I' for Inactive)
REMARK       I    between atoms: C3_1  and  O3_90 
REMARK       I    between atoms: O1_4  and  C1_76 
REMARK       I    between atoms: C2_5  and  N2_21 
REMARK       I    between atoms: C8_6  and  C7_66 
REMARK       I    between atoms: C4_7  and  O4_24 
REMARK       I    between atoms: N2_9  and  C2_60 
REMARK       I    between atoms: N2_9  and  C7_69 
REMARK       I    between atoms: O4_12  and  C4_26 
REMARK       I    between atoms: O3_13  and  C3_65 
REMARK       I    between atoms: O3_13  and  C1_61 
REMARK       I    between atoms: C3_14  and  O3_35 
REMARK       I    between atoms: C6_15  and  C5_53 
REMARK       I    between atoms: C6_15  and  O6_46 
REMARK       I    between atoms: O6_16  and  C6_54 
REMARK       I    between atoms: C4_17  and  O4_49 
REMARK       I    between atoms: O4_18  and  C4_28 
REMARK       I    between atoms: O4_18  and  C1_47 
REMARK       I    between atoms: C3_19  and  O3_43 
REMARK       I    between atoms: C1_20  and  O4_91 
REMARK       I    between atoms: N2_21  and  C7_66 
REMARK       I    between atoms: O3_22  and  C3_82 
REMARK       I    between atoms: C7_23  and  C8_62 
REMARK       I    between atoms: C7_23  and  N2_51 
REMARK       I    between atoms: C2_25  and  N2_41 
REMARK       I    between atoms: C1_27  and  O3_90 
REMARK       I    between atoms: O6_29  and  C6_74 
REMARK       I    between atoms: O2_30  and  C2_37 
REMARK       I    between atoms: C2_31  and  O2_42 
REMARK       I    between atoms: O3_32  and  C3_45 
REMARK       I    between atoms: O4_33  and  C4_73 
REMARK       I    between atoms: O4_34  and  C4_84 
REMARK       I    between atoms: O4_34  and  C1_85 
REMARK       I    between atoms: C5_36  and  C6_48 
REMARK       I    between atoms: C6_38  and  C5_40 
REMARK       I    between atoms: C6_38  and  O6_89 
REMARK       I    between atoms: N2_41  and  C7_50 
REMARK       I    between atoms: C5_44  and  C6_74 
REMARK       I    between atoms: C7_50  and  C8_75 
REMARK       I    between atoms: N2_51  and  C2_58 
REMARK       I    between atoms: C1_52  and  O3_87 
REMARK       I    between atoms: C6_54  and  C5_86 
REMARK       I    between atoms: O2_59  and  C2_93 
REMARK       I    between atoms: C8_64  and  C7_69 
REMARK       I    between atoms: C6_70  and  C5_80 
REMARK       I    between atoms: C4_72  and  O4_91 
REMARK       I    between atoms: C5_77  and  C6_79 
REMARK       I    between atoms: C3_83  and  O3_87 
ROOT
ATOM      1  C3  NAG d1177      13.841 -12.452   8.110  0.00  0.00     0.093 C 
ATOM      2  O7  NAG d1177      14.754  -8.690   8.332  0.00  0.00    -0.274 OA
ATOM      3  C4  NAG d1177      14.478 -13.716   8.713  0.00  0.00     0.089 C 
ATOM      4  C2  NAG d1177      13.832 -11.325   9.130  0.00  0.00     0.087 C 
ATOM      5  C6  NAG d1177      14.577 -15.226  10.767  0.00  0.00     0.043 C 
ATOM      6  C5  NAG d1177      13.880 -14.046  10.071  0.00  0.00     0.089 C 
ATOM      7  N2  NAG d1177      13.021 -10.179   8.681  0.00  0.00    -0.349 N 
ATOM      8  O4  NAG d1177      14.313 -14.820   7.844  0.00  0.00    -0.390 OA
ATOM      9  C7  NAG d1177      13.518  -8.995   8.315  0.00  0.00     0.214 C 
ATOM     10  O5  NAG d1177      13.967 -12.913  10.928  0.00  0.00    -0.349 OA
ATOM     11  C8  NAG d1177      12.437  -8.018   7.930  0.00  0.00    -0.003 C 
ATOM     12  C1  NAG d1177      13.245 -11.799  10.459  0.00  0.00     0.154 C 
ATOM     13  O6  NAG d1177      15.934 -14.923  11.043  0.00  0.00    -0.398 OA
ATOM     14  O3  NAG d1177      14.610 -12.012   7.024  0.00  0.00    -0.348 OA
ATOM     15  H   NAG d1177      12.843 -12.696   7.810  0.00  0.00     0.091 H 
ATOM     16  H   NAG d1177      15.522 -13.518   8.840  0.00  0.00     0.091 H 
ATOM     17  H   NAG d1177      14.853 -11.025   9.247  0.00  0.00     0.084 H 
ATOM     18  H   NAG d1177      14.533 -16.084  10.130  0.00  0.00     0.078 H 
ATOM     19  H   NAG d1177      14.077 -15.420  11.692  0.00  0.00     0.078 H 
ATOM     20  H   NAG d1177      12.862 -14.320   9.891  0.00  0.00     0.090 H 
ATOM     21  H   NAG d1177      12.044 -10.294   8.649  0.00  0.00     0.163 HD
ATOM     22  H   NAG d1177      13.367 -15.001   7.727  0.00  0.00     0.210 HD
ATOM     23  H   NAG d1177      12.883  -7.088   7.645  0.00  0.00     0.040 H 
ATOM     24  H   NAG d1177      11.786  -7.860   8.763  0.00  0.00     0.040 H 
ATOM     25  H   NAG d1177      11.876  -8.412   7.108  0.00  0.00     0.040 H 
ATOM     26  H   NAG d1177      12.227 -12.097  10.321  0.00  0.00     0.132 H 
ATOM     27  H   NAG d1177      16.401 -14.744  10.212  0.00  0.00     0.209 HD
ATOM     28  O6A BDP d1178      13.039 -15.346   3.970  0.00  0.00    -0.646 OA
ATOM     29  O4  BDP d1178      12.365 -11.872   2.067  0.00  0.00    -0.348 OA
ATOM     30  O3  BDP d1178      14.822 -10.517   2.544  0.00  0.00    -0.390 OA
ATOM     31  C1  BDP d1178      13.835 -11.860   5.826  0.00  0.00     0.160 C 
ATOM     32  C4  BDP d1178      13.284 -12.258   3.063  0.00  0.00     0.103 C 
ATOM     33  C2  BDP d1178      14.732 -11.198   4.801  0.00  0.00     0.110 C 
ATOM     34  O2  BDP d1178      15.214  -9.973   5.288  0.00  0.00    -0.388 OA
ATOM     35  O6B BDP d1178      11.104 -14.610   3.134  0.00  0.00    -0.646 OA
ATOM     36  O5  BDP d1178      13.404 -13.108   5.313  0.00  0.00    -0.340 OA
ATOM     37  C6  BDP d1178      12.205 -14.428   3.725  0.00  0.00     0.206 C 
ATOM     38  C5  BDP d1178      12.571 -13.008   4.176  0.00  0.00     0.152 C 
ATOM     39  C3  BDP d1178      13.930 -10.948   3.555  0.00  0.00     0.092 C 
ATOM     40  H   BDP d1178      14.327 -10.348   1.726  0.00  0.00     0.210 HD
ATOM     41  H   BDP d1178      12.962 -11.280   6.040  0.00  0.00     0.133 H 
ATOM     42  H   BDP d1178      14.031 -12.930   2.695  0.00  0.00     0.092 H 
ATOM     43  H   BDP d1178      15.564 -11.839   4.594  0.00  0.00     0.094 H 
ATOM     44  H   BDP d1178      14.466  -9.385   5.480  0.00  0.00     0.210 HD
ATOM     45  H   BDP d1178      11.682 -12.464   4.417  0.00  0.00     0.104 H 
ATOM     46  H   BDP d1178      13.171 -10.223   3.764  0.00  0.00     0.091 H 
ATOM     47  O1  NAG d1175       9.187  -8.085  20.389  0.00  0.00    -0.369 OA
ATOM     48  O3  NAG d1175      10.771  -9.806  16.332  0.00  0.00    -0.348 OA
ATOM     49  O6  NAG d1175       6.598  -5.375  17.062  0.00  0.00    -0.398 OA
ATOM     50  C7  NAG d1175      11.572 -10.741  19.159  0.00  0.00     0.214 C 
ATOM     51  O4  NAG d1175       9.224  -7.662  14.927  0.00  0.00    -0.390 OA
ATOM     52  N2  NAG d1175      11.122  -9.481  19.131  0.00  0.00    -0.349 N 
ATOM     53  C6  NAG d1175       7.001  -6.600  16.512  0.00  0.00     0.043 C 
ATOM     54  C2  NAG d1175       9.963  -8.999  18.362  0.00  0.00     0.087 C 
ATOM     55  C8  NAG d1175      10.651 -11.846  18.754  0.00  0.00    -0.003 C 
ATOM     56  O7  NAG d1175      12.730 -11.012  19.515  0.00  0.00    -0.274 OA
ATOM     57  C3  NAG d1175      10.295  -8.616  16.929  0.00  0.00     0.093 C 
ATOM     58  C4  NAG d1175       9.010  -8.090  16.273  0.00  0.00     0.089 C 
ATOM     59  C1  NAG d1175       9.403  -7.759  19.046  0.00  0.00     0.151 C 
ATOM     60  C5  NAG d1175       8.350  -6.983  17.102  0.00  0.00     0.089 C 
ATOM     61  O5  NAG d1175       8.171  -7.374  18.451  0.00  0.00    -0.349 OA
ATOM     62  H   NAG d1175      10.027  -8.349  20.797  0.00  0.00     0.212 HD
ATOM     63  H   NAG d1175       5.738  -5.122  16.693  0.00  0.00     0.209 HD
ATOM     64  H   NAG d1175       9.642  -8.377  14.422  0.00  0.00     0.210 HD
ATOM     65  H   NAG d1175      11.610  -8.818  19.671  0.00  0.00     0.163 HD
ATOM     66  H   NAG d1175       7.086  -6.507  15.450  0.00  0.00     0.078 H 
ATOM     67  H   NAG d1175       6.277  -7.356  16.739  0.00  0.00     0.078 H 
ATOM     68  H   NAG d1175       9.264  -9.808  18.332  0.00  0.00     0.084 H 
ATOM     69  H   NAG d1175       9.701 -11.436  18.480  0.00  0.00     0.040 H 
ATOM     70  H   NAG d1175      10.524 -12.524  19.572  0.00  0.00     0.040 H 
ATOM     71  H   NAG d1175      11.068 -12.370  17.919  0.00  0.00     0.040 H 
ATOM     72  H   NAG d1175      11.032  -7.846  16.832  0.00  0.00     0.091 H 
ATOM     73  H   NAG d1175       8.333  -8.918  16.240  0.00  0.00     0.091 H 
ATOM     74  H   NAG d1175      10.089  -6.944  18.948  0.00  0.00     0.132 H 
ATOM     75  H   NAG d1175       9.006  -6.139  17.076  0.00  0.00     0.090 H 
ATOM     76  C2  NAG d1181       4.852 -17.049  -5.906  0.00  0.00     0.087 C 
ATOM     77  C8  NAG d1181       4.685 -19.720  -4.688  0.00  0.00    -0.003 C 
ATOM     78  O5  NAG d1181       4.542 -14.637  -5.605  0.00  0.00    -0.349 OA
ATOM     79  O4  NAG d1181       2.005 -15.897  -7.952  0.00  0.00    -0.390 OA
ATOM     80  C3  NAG d1181       3.995 -16.989  -7.160  0.00  0.00     0.086 C 
ATOM     81  C1  NAG d1181       5.492 -15.693  -5.598  0.00  0.00     0.154 C 
ATOM     82  N2  NAG d1181       5.883 -18.065  -6.028  0.00  0.00    -0.349 N 
ATOM     83  C4  NAG d1181       2.952 -15.907  -6.906  0.00  0.00     0.089 C 
ATOM     84  O6  NAG d1181       2.479 -12.966  -5.418  0.00  0.00    -0.398 OA
ATOM     85  O3  NAG d1181       3.409 -18.245  -7.458  0.00  0.00    -0.391 OA
ATOM     86  C5  NAG d1181       3.716 -14.578  -6.764  0.00  0.00     0.089 C 
ATOM     87  O7  NAG d1181       7.037 -19.632  -4.890  0.00  0.00    -0.274 OA
ATOM     88  C7  NAG d1181       5.963 -19.127  -5.212  0.00  0.00     0.214 C 
ATOM     89  C6  NAG d1181       2.823 -13.329  -6.740  0.00  0.00     0.043 C 
ATOM     90  H   NAG d1181       4.205 -17.307  -5.094  0.00  0.00     0.084 H 
ATOM     91  H   NAG d1181       3.853 -19.161  -5.063  0.00  0.00     0.040 H 
ATOM     92  H   NAG d1181       4.686 -19.681  -3.618  0.00  0.00     0.040 H 
ATOM     93  H   NAG d1181       4.606 -20.737  -5.008  0.00  0.00     0.040 H 
ATOM     94  H   NAG d1181       1.559 -16.756  -7.992  0.00  0.00     0.210 HD
ATOM     95  H   NAG d1181       4.584 -16.751  -8.021  0.00  0.00     0.090 H 
ATOM     96  H   NAG d1181       6.209 -15.410  -6.339  0.00  0.00     0.132 H 
ATOM     97  H   NAG d1181       6.555 -17.970  -6.742  0.00  0.00     0.163 HD
ATOM     98  H   NAG d1181       2.393 -16.083  -6.011  0.00  0.00     0.091 H 
ATOM     99  H   NAG d1181       1.916 -12.176  -5.437  0.00  0.00     0.209 HD
ATOM    100  H   NAG d1181       2.854 -18.527  -6.715  0.00  0.00     0.210 HD
ATOM    101  H   NAG d1181       4.312 -14.470  -7.646  0.00  0.00     0.090 H 
ATOM    102  H   NAG d1181       3.349 -12.518  -7.198  0.00  0.00     0.078 H 
ATOM    103  H   NAG d1181       1.923 -13.550  -7.273  0.00  0.00     0.078 H 
ATOM    104  C4  NAG d1179      11.917 -12.528  -2.022  0.00  0.00     0.089 C 
ATOM    105  N2  NAG d1179       9.979 -12.886   1.247  0.00  0.00    -0.349 N 
ATOM    106  C6  NAG d1179      14.421 -12.168  -2.114  0.00  0.00     0.043 C 
ATOM    107  O4  NAG d1179      11.893 -13.281  -3.230  0.00  0.00    -0.390 OA
ATOM    108  O6  NAG d1179      14.347 -10.757  -2.155  0.00  0.00    -0.398 OA
ATOM    109  C1  NAG d1179      12.352 -12.601   0.837  0.00  0.00     0.154 C 
ATOM    110  C5  NAG d1179      13.256 -12.727  -1.315  0.00  0.00     0.089 C 
ATOM    111  O5  NAG d1179      13.254 -12.048  -0.073  0.00  0.00    -0.349 OA
ATOM    112  C2  NAG d1179      10.946 -12.382   0.288  0.00  0.00     0.087 C 
ATOM    113  C8  NAG d1179       8.090 -12.763   2.704  0.00  0.00    -0.003 C 
ATOM    114  C7  NAG d1179       8.902 -12.184   1.595  0.00  0.00     0.214 C 
ATOM    115  C3  NAG d1179      10.784 -12.992  -1.114  0.00  0.00     0.093 C 
ATOM    116  O3  NAG d1179       9.551 -12.579  -1.683  0.00  0.00    -0.348 OA
ATOM    117  O7  NAG d1179       8.565 -11.137   1.052  0.00  0.00    -0.274 OA
ATOM    118  H   NAG d1179      11.791 -11.490  -2.248  0.00  0.00     0.091 H 
ATOM    119  H   NAG d1179      10.124 -13.771   1.652  0.00  0.00     0.163 HD
ATOM    120  H   NAG d1179      14.386 -12.554  -3.111  0.00  0.00     0.078 H 
ATOM    121  H   NAG d1179      15.338 -12.458  -1.646  0.00  0.00     0.078 H 
ATOM    122  H   NAG d1179      12.007 -14.223  -3.028  0.00  0.00     0.210 HD
ATOM    123  H   NAG d1179      13.517 -10.490  -2.579  0.00  0.00     0.209 HD
ATOM    124  H   NAG d1179      12.612 -13.629   0.983  0.00  0.00     0.132 H 
ATOM    125  H   NAG d1179      13.375 -13.783  -1.196  0.00  0.00     0.090 H 
ATOM    126  H   NAG d1179      10.768 -11.334   0.160  0.00  0.00     0.084 H 
ATOM    127  H   NAG d1179       8.545 -13.670   3.044  0.00  0.00     0.040 H 
ATOM    128  H   NAG d1179       7.101 -12.970   2.352  0.00  0.00     0.040 H 
ATOM    129  H   NAG d1179       8.042 -12.065   3.513  0.00  0.00     0.040 H 
ATOM    130  H   NAG d1179      10.807 -14.057  -1.023  0.00  0.00     0.091 H 
ATOM    131  O5  BDP d1180       9.125 -14.291  -3.168  0.00  0.00    -0.340 OA
ATOM    132  O6A BDP d1180       9.123 -17.276  -4.686  0.00  0.00    -0.646 OA
ATOM    133  O2  BDP d1180       6.792 -12.800  -0.823  0.00  0.00    -0.388 OA
ATOM    134  O3  BDP d1180       5.143 -13.396  -3.186  0.00  0.00    -0.390 OA
ATOM    135  C5  BDP d1180       8.294 -15.349  -3.590  0.00  0.00     0.152 C 
ATOM    136  C2  BDP d1180       7.268 -13.122  -2.112  0.00  0.00     0.110 C 
ATOM    137  C3  BDP d1180       6.288 -14.105  -2.747  0.00  0.00     0.092 C 
ATOM    138  C6  BDP d1180       8.967 -16.039  -4.766  0.00  0.00     0.206 C 
ATOM    139  C1  BDP d1180       8.684 -13.683  -1.978  0.00  0.00     0.160 C 
ATOM    140  C4  BDP d1180       6.917 -14.805  -3.939  0.00  0.00     0.103 C 
ATOM    141  O6B BDP d1180       9.342 -15.323  -5.731  0.00  0.00    -0.646 OA
ATOM    142  O4  BDP d1180       6.083 -15.872  -4.300  0.00  0.00    -0.348 OA
ATOM    143  H   BDP d1180       7.401 -12.175  -0.400  0.00  0.00     0.210 HD
ATOM    144  H   BDP d1180       4.734 -12.944  -2.431  0.00  0.00     0.210 HD
ATOM    145  H   BDP d1180       8.154 -16.072  -2.813  0.00  0.00     0.104 H 
ATOM    146  H   BDP d1180       7.326 -12.266  -2.752  0.00  0.00     0.094 H 
ATOM    147  H   BDP d1180       6.021 -14.841  -2.016  0.00  0.00     0.091 H 
ATOM    148  H   BDP d1180       8.693 -14.428  -1.210  0.00  0.00     0.133 H 
ATOM    149  H   BDP d1180       7.028 -14.106  -4.743  0.00  0.00     0.092 H 
ATOM    150  C3  BDP d1176      13.364 -11.030  13.856  0.00  0.00     0.092 C 
ATOM    151  O4  BDP d1176      13.278 -10.724  11.407  0.00  0.00    -0.348 OA
ATOM    152  O3  BDP d1176      14.020 -12.292  13.835  0.00  0.00    -0.390 OA
ATOM    153  O5  BDP d1176      10.935  -9.527  14.016  0.00  0.00    -0.340 OA
ATOM    154  O2  BDP d1176      13.385 -10.951  16.262  0.00  0.00    -0.388 OA
ATOM    155  C1  BDP d1176      11.673  -9.665  15.212  0.00  0.00     0.160 C 
ATOM    156  O6B BDP d1176      10.805  -8.339  10.967  0.00  0.00    -0.646 OA
ATOM    157  C5  BDP d1176      11.708  -9.519  12.811  0.00  0.00     0.152 C 
ATOM    158  O6A BDP d1176       9.741 -10.179  11.630  0.00  0.00    -0.646 OA
ATOM    159  C6  BDP d1176      10.680  -9.344  11.717  0.00  0.00     0.206 C 
ATOM    160  C4  BDP d1176      12.509 -10.807  12.597  0.00  0.00     0.103 C 
ATOM    161  C2  BDP d1176      12.524 -10.934  15.136  0.00  0.00     0.110 C 
ATOM    162  H   BDP d1176      14.099 -10.252  13.855  0.00  0.00     0.091 H 
ATOM    163  H   BDP d1176      13.357 -13.001  13.836  0.00  0.00     0.210 HD
ATOM    164  H   BDP d1176      13.937 -11.748  16.235  0.00  0.00     0.210 HD
ATOM    165  H   BDP d1176      12.288  -8.798  15.339  0.00  0.00     0.133 H 
ATOM    166  H   BDP d1176      12.446  -8.746  12.834  0.00  0.00     0.104 H 
ATOM    167  H   BDP d1176      11.865 -11.651  12.464  0.00  0.00     0.092 H 
ATOM    168  H   BDP d1176      11.860 -11.772  15.127  0.00  0.00     0.094 H 
ENDROOT
TORSDOF 43
ENDMDL
MODEL 26
REMARK VINA RESULT:      -6.9      5.406      7.730
REMARK  0 active torsions:
REMARK  status: ('A' for Active; 'I' for Inactive)
REMARK       I    between atoms: C3_1  and  O3_90 
REMARK       I    between atoms: O1_4  and  C1_76 
REMARK       I    between atoms: C2_5  and  N2_21 
REMARK       I    between atoms: C8_6  and  C7_66 
REMARK       I    between atoms: C4_7  and  O4_24 
REMARK       I    between atoms: N2_9  and  C2_60 
REMARK       I    between atoms: N2_9  and  C7_69 
REMARK       I    between atoms: O4_12  and  C4_26 
REMARK       I    between atoms: O3_13  and  C3_65 
REMARK       I    between atoms: O3_13  and  C1_61 
REMARK       I    between atoms: C3_14  and  O3_35 
REMARK       I    between atoms: C6_15  and  C5_53 
REMARK       I    between atoms: C6_15  and  O6_46 
REMARK       I    between atoms: O6_16  and  C6_54 
REMARK       I    between atoms: C4_17  and  O4_49 
REMARK       I    between atoms: O4_18  and  C4_28 
REMARK       I    between atoms: O4_18  and  C1_47 
REMARK       I    between atoms: C3_19  and  O3_43 
REMARK       I    between atoms: C1_20  and  O4_91 
REMARK       I    between atoms: N2_21  and  C7_66 
REMARK       I    between atoms: O3_22  and  C3_82 
REMARK       I    between atoms: C7_23  and  C8_62 
REMARK       I    between atoms: C7_23  and  N2_51 
REMARK       I    between atoms: C2_25  and  N2_41 
REMARK       I    between atoms: C1_27  and  O3_90 
REMARK       I    between atoms: O6_29  and  C6_74 
REMARK       I    between atoms: O2_30  and  C2_37 
REMARK       I    between atoms: C2_31  and  O2_42 
REMARK       I    between atoms: O3_32  and  C3_45 
REMARK       I    between atoms: O4_33  and  C4_73 
REMARK       I    between atoms: O4_34  and  C4_84 
REMARK       I    between atoms: O4_34  and  C1_85 
REMARK       I    between atoms: C5_36  and  C6_48 
REMARK       I    between atoms: C6_38  and  C5_40 
REMARK       I    between atoms: C6_38  and  O6_89 
REMARK       I    between atoms: N2_41  and  C7_50 
REMARK       I    between atoms: C5_44  and  C6_74 
REMARK       I    between atoms: C7_50  and  C8_75 
REMARK       I    between atoms: N2_51  and  C2_58 
REMARK       I    between atoms: C1_52  and  O3_87 
REMARK       I    between atoms: C6_54  and  C5_86 
REMARK       I    between atoms: O2_59  and  C2_93 
REMARK       I    between atoms: C8_64  and  C7_69 
REMARK       I    between atoms: C6_70  and  C5_80 
REMARK       I    between atoms: C4_72  and  O4_91 
REMARK       I    between atoms: C5_77  and  C6_79 
REMARK       I    between atoms: C3_83  and  O3_87 
ROOT
ATOM      1  C3  NAG d1177      13.841 -14.039   5.393  0.00  0.00     0.093 C 
ATOM      2  O7  NAG d1177      14.615 -10.249   5.128  0.00  0.00    -0.274 OA
ATOM      3  C4  NAG d1177      14.640 -15.230   5.952  0.00  0.00     0.089 C 
ATOM      4  C2  NAG d1177      13.987 -12.830   6.302  0.00  0.00     0.087 C 
ATOM      5  C6  NAG d1177      15.212 -16.554   8.057  0.00  0.00     0.043 C 
ATOM      6  C5  NAG d1177      14.339 -15.457   7.425  0.00  0.00     0.089 C 
ATOM      7  N2  NAG d1177      13.054 -11.748   5.937  0.00  0.00    -0.349 N 
ATOM      8  O4  NAG d1177      14.352 -16.408   5.225  0.00  0.00    -0.390 OA
ATOM      9  C7  NAG d1177      13.415 -10.588   5.385  0.00  0.00     0.214 C 
ATOM     10  O5  NAG d1177      14.546 -14.253   8.154  0.00  0.00    -0.349 OA
ATOM     11  C8  NAG d1177      12.238  -9.677   5.151  0.00  0.00    -0.003 C 
ATOM     12  C1  NAG d1177      13.697 -13.203   7.755  0.00  0.00     0.154 C 
ATOM     13  O6  NAG d1177      16.582 -16.192   8.028  0.00  0.00    -0.398 OA
ATOM     14  O3  NAG d1177      14.358 -13.674   4.143  0.00  0.00    -0.348 OA
ATOM     15  H   NAG d1177      12.815 -14.335   5.321  0.00  0.00     0.091 H 
ATOM     16  H   NAG d1177      15.679 -14.994   5.850  0.00  0.00     0.091 H 
ATOM     17  H   NAG d1177      14.996 -12.493   6.186  0.00  0.00     0.084 H 
ATOM     18  H   NAG d1177      15.079 -17.464   7.511  0.00  0.00     0.078 H 
ATOM     19  H   NAG d1177      14.915 -16.681   9.076  0.00  0.00     0.078 H 
ATOM     20  H   NAG d1177      13.319 -15.773   7.477  0.00  0.00     0.090 H 
ATOM     21  H   NAG d1177      12.095 -11.892   6.113  0.00  0.00     0.163 HD
ATOM     22  H   NAG d1177      13.411 -16.624   5.317  0.00  0.00     0.210 HD
ATOM     23  H   NAG d1177      12.577  -8.763   4.709  0.00  0.00     0.040 H 
ATOM     24  H   NAG d1177      11.759  -9.465   6.084  0.00  0.00     0.040 H 
ATOM     25  H   NAG d1177      11.542 -10.155   4.493  0.00  0.00     0.040 H 
ATOM     26  H   NAG d1177      12.686 -13.539   7.849  0.00  0.00     0.132 H 
ATOM     27  H   NAG d1177      16.866 -16.073   7.108  0.00  0.00     0.209 HD
ATOM     28  O6A BDP d1178      12.356 -17.299   1.743  0.00  0.00    -0.646 OA
ATOM     29  O4  BDP d1178      11.166 -14.022  -0.253  0.00  0.00    -0.348 OA
ATOM     30  O3  BDP d1178      13.607 -12.566  -0.392  0.00  0.00    -0.390 OA
ATOM     31  C1  BDP d1178      13.354 -13.647   3.118  0.00  0.00     0.160 C 
ATOM     32  C4  BDP d1178      12.280 -14.296   0.563  0.00  0.00     0.103 C 
ATOM     33  C2  BDP d1178      13.999 -13.052   1.883  0.00  0.00     0.110 C 
ATOM     34  O2  BDP d1178      14.514 -11.777   2.165  0.00  0.00    -0.388 OA
ATOM     35  O6B BDP d1178      10.263 -16.691   1.260  0.00  0.00    -0.646 OA
ATOM     36  O5  BDP d1178      12.884 -14.945   2.803  0.00  0.00    -0.340 OA
ATOM     37  C6  BDP d1178      11.451 -16.429   1.599  0.00  0.00     0.206 C 
ATOM     38  C5  BDP d1178      11.837 -14.966   1.854  0.00  0.00     0.152 C 
ATOM     39  C3  BDP d1178      12.954 -12.932   0.810  0.00  0.00     0.092 C 
ATOM     40  H   BDP d1178      12.953 -12.481  -1.103  0.00  0.00     0.210 HD
ATOM     41  H   BDP d1178      12.517 -13.075   3.458  0.00  0.00     0.133 H 
ATOM     42  H   BDP d1178      12.968 -14.977   0.106  0.00  0.00     0.092 H 
ATOM     43  H   BDP d1178      14.800 -13.686   1.563  0.00  0.00     0.094 H 
ATOM     44  H   BDP d1178      13.795 -11.194   2.457  0.00  0.00     0.210 HD
ATOM     45  H   BDP d1178      10.992 -14.427   2.226  0.00  0.00     0.104 H 
ATOM     46  H   BDP d1178      12.221 -12.212   1.110  0.00  0.00     0.091 H 
ATOM     47  O1  NAG d1175      11.543  -8.758  17.976  0.00  0.00    -0.369 OA
ATOM     48  O3  NAG d1175      12.360 -10.779  13.831  0.00  0.00    -0.348 OA
ATOM     49  O6  NAG d1175       8.228  -6.414  15.038  0.00  0.00    -0.398 OA
ATOM     50  C7  NAG d1175      13.749 -11.445  16.503  0.00  0.00     0.214 C 
ATOM     51  O4  NAG d1175      10.472  -8.805  12.603  0.00  0.00    -0.390 OA
ATOM     52  N2  NAG d1175      13.248 -10.204  16.466  0.00  0.00    -0.349 N 
ATOM     53  C6  NAG d1175       8.566  -7.671  14.517  0.00  0.00     0.043 C 
ATOM     54  C2  NAG d1175      11.939  -9.821  15.913  0.00  0.00     0.087 C 
ATOM     55  C8  NAG d1175      12.814 -12.605  16.380  0.00  0.00    -0.003 C 
ATOM     56  O7  NAG d1175      14.965 -11.653  16.637  0.00  0.00    -0.274 OA
ATOM     57  C3  NAG d1175      11.961  -9.554  14.416  0.00  0.00     0.093 C 
ATOM     58  C4  NAG d1175      10.550  -9.121  13.994  0.00  0.00     0.089 C 
ATOM     59  C1  NAG d1175      11.473  -8.543  16.595  0.00  0.00     0.151 C 
ATOM     60  C5  NAG d1175      10.021  -7.965  14.850  0.00  0.00     0.089 C 
ATOM     61  O5  NAG d1175      10.132  -8.243  16.233  0.00  0.00    -0.349 OA
ATOM     62  H   NAG d1175      12.459  -8.962  18.225  0.00  0.00     0.212 HD
ATOM     63  H   NAG d1175       7.302  -6.217  14.832  0.00  0.00     0.209 HD
ATOM     64  H   NAG d1175      10.812  -9.550  12.082  0.00  0.00     0.210 HD
ATOM     65  H   NAG d1175      13.804  -9.484  16.842  0.00  0.00     0.163 HD
ATOM     66  H   NAG d1175       8.433  -7.667  13.455  0.00  0.00     0.078 H 
ATOM     67  H   NAG d1175       7.936  -8.424  14.944  0.00  0.00     0.078 H 
ATOM     68  H   NAG d1175      11.284 -10.649  16.088  0.00  0.00     0.084 H 
ATOM     69  H   NAG d1175      11.812 -12.246  16.273  0.00  0.00     0.040 H 
ATOM     70  H   NAG d1175      12.883 -13.213  17.258  0.00  0.00     0.040 H 
ATOM     71  H   NAG d1175      13.079 -13.187  15.522  0.00  0.00     0.040 H 
ATOM     72  H   NAG d1175      12.630  -8.776  14.112  0.00  0.00     0.091 H 
ATOM     73  H   NAG d1175       9.917  -9.967  14.165  0.00  0.00     0.091 H 
ATOM     74  H   NAG d1175      12.090  -7.721  16.296  0.00  0.00     0.132 H 
ATOM     75  H   NAG d1175      10.622  -7.109  14.624  0.00  0.00     0.090 H 
ATOM     76  C2  NAG d1181       2.446 -20.065  -6.106  0.00  0.00     0.087 C 
ATOM     77  C8  NAG d1181       2.641 -22.624  -4.672  0.00  0.00    -0.003 C 
ATOM     78  O5  NAG d1181       2.098 -17.645  -5.940  0.00  0.00    -0.349 OA
ATOM     79  O4  NAG d1181      -0.799 -19.170  -7.618  0.00  0.00    -0.390 OA
ATOM     80  C3  NAG d1181       1.355 -20.136  -7.161  0.00  0.00     0.086 C 
ATOM     81  C1  NAG d1181       3.075 -18.671  -6.042  0.00  0.00     0.154 C 
ATOM     82  N2  NAG d1181       3.475 -21.060  -6.354  0.00  0.00    -0.349 N 
ATOM     83  C4  NAG d1181       0.337 -19.064  -6.788  0.00  0.00     0.089 C 
ATOM     84  O6  NAG d1181       0.042 -16.020  -5.472  0.00  0.00    -0.398 OA
ATOM     85  O3  NAG d1181       0.775 -21.428  -7.235  0.00  0.00    -0.391 OA
ATOM     86  C5  NAG d1181       1.055 -17.709  -6.909  0.00  0.00     0.089 C 
ATOM     87  O7  NAG d1181       4.900 -22.491  -5.353  0.00  0.00    -0.274 OA
ATOM     88  C7  NAG d1181       3.762 -22.045  -5.489  0.00  0.00     0.214 C 
ATOM     89  C6  NAG d1181       0.132 -16.486  -6.803  0.00  0.00     0.043 C 
ATOM     90  H   NAG d1181       1.986 -20.270  -5.162  0.00  0.00     0.084 H 
ATOM     91  H   NAG d1181       1.727 -22.123  -4.915  0.00  0.00     0.040 H 
ATOM     92  H   NAG d1181       2.854 -22.494  -3.631  0.00  0.00     0.040 H 
ATOM     93  H   NAG d1181       2.544 -23.667  -4.889  0.00  0.00     0.040 H 
ATOM     94  H   NAG d1181      -1.207 -20.041  -7.499  0.00  0.00     0.210 HD
ATOM     95  H   NAG d1181       1.749 -19.958  -8.140  0.00  0.00     0.090 H 
ATOM     96  H   NAG d1181       3.617 -18.434  -6.933  0.00  0.00     0.132 H 
ATOM     97  H   NAG d1181       3.986 -21.009  -7.194  0.00  0.00     0.163 HD
ATOM     98  H   NAG d1181      -0.024 -19.178  -5.787  0.00  0.00     0.091 H 
ATOM     99  H   NAG d1181      -0.546 -15.250  -5.439  0.00  0.00     0.209 HD
ATOM    100  H   NAG d1181       0.393 -21.660  -6.374  0.00  0.00     0.210 HD
ATOM    101  H   NAG d1181       1.458 -17.661  -7.899  0.00  0.00     0.090 H 
ATOM    102  H   NAG d1181       0.520 -15.704  -7.421  0.00  0.00     0.078 H 
ATOM    103  H   NAG d1181      -0.847 -16.776  -7.125  0.00  0.00     0.078 H 
ATOM    104  C4  NAG d1179       9.940 -15.040  -4.101  0.00  0.00     0.089 C 
ATOM    105  N2  NAG d1179       8.711 -15.166  -0.490  0.00  0.00    -0.349 N 
ATOM    106  C6  NAG d1179      12.358 -14.622  -4.726  0.00  0.00     0.043 C 
ATOM    107  O4  NAG d1179       9.708 -15.894  -5.217  0.00  0.00    -0.390 OA
ATOM    108  O6  NAG d1179      12.216 -13.222  -4.863  0.00  0.00    -0.398 OA
ATOM    109  C1  NAG d1179      10.939 -14.855  -1.394  0.00  0.00     0.154 C 
ATOM    110  C5  NAG d1179      11.400 -15.141  -3.667  0.00  0.00     0.089 C 
ATOM    111  O5  NAG d1179      11.617 -14.357  -2.507  0.00  0.00    -0.349 OA
ATOM    112  C2  NAG d1179       9.444 -14.721  -1.662  0.00  0.00     0.087 C 
ATOM    113  C8  NAG d1179       7.147 -14.968   1.305  0.00  0.00    -0.003 C 
ATOM    114  C7  NAG d1179       7.695 -14.465   0.012  0.00  0.00     0.214 C 
ATOM    115  C3  NAG d1179       9.033 -15.453  -2.950  0.00  0.00     0.093 C 
ATOM    116  O3  NAG d1179       7.693 -15.124  -3.288  0.00  0.00    -0.348 OA
ATOM    117  O7  NAG d1179       7.211 -13.478  -0.532  0.00  0.00    -0.274 OA
ATOM    118  H   NAG d1179       9.726 -14.028  -4.378  0.00  0.00     0.091 H 
ATOM    119  H   NAG d1179       8.971 -16.009  -0.055  0.00  0.00     0.163 HD
ATOM    120  H   NAG d1179      12.141 -15.093  -5.662  0.00  0.00     0.078 H 
ATOM    121  H   NAG d1179      13.362 -14.846  -4.432  0.00  0.00     0.078 H 
ATOM    122  H   NAG d1179       9.901 -16.812  -4.968  0.00  0.00     0.210 HD
ATOM    123  H   NAG d1179      11.306 -13.015  -5.131  0.00  0.00     0.209 HD
ATOM    124  H   NAG d1179      11.267 -15.858  -1.222  0.00  0.00     0.132 H 
ATOM    125  H   NAG d1179      11.587 -16.179  -3.491  0.00  0.00     0.090 H 
ATOM    126  H   NAG d1179       9.199 -13.693  -1.833  0.00  0.00     0.084 H 
ATOM    127  H   NAG d1179       7.699 -15.831   1.615  0.00  0.00     0.040 H 
ATOM    128  H   NAG d1179       6.117 -15.231   1.177  0.00  0.00     0.040 H 
ATOM    129  H   NAG d1179       7.231 -14.204   2.049  0.00  0.00     0.040 H 
ATOM    130  H   NAG d1179       9.119 -16.506  -2.781  0.00  0.00     0.091 H 
ATOM    131  O5  BDP d1180       7.055 -16.968  -4.516  0.00  0.00    -0.340 OA
ATOM    132  O6A BDP d1180       6.880 -20.072  -5.761  0.00  0.00    -0.646 OA
ATOM    133  O2  BDP d1180       5.174 -15.344  -1.873  0.00  0.00    -0.388 OA
ATOM    134  O3  BDP d1180       3.115 -16.184  -3.798  0.00  0.00    -0.390 OA
ATOM    135  C5  BDP d1180       6.203 -18.081  -4.676  0.00  0.00     0.152 C 
ATOM    136  C2  BDP d1180       5.397 -15.763  -3.202  0.00  0.00     0.110 C 
ATOM    137  C3  BDP d1180       4.354 -16.823  -3.545  0.00  0.00     0.092 C 
ATOM    138  C6  BDP d1180       6.658 -18.851  -5.906  0.00  0.00     0.206 C 
ATOM    139  C1  BDP d1180       6.834 -16.272  -3.314  0.00  0.00     0.160 C 
ATOM    140  C4  BDP d1180       4.762 -17.605  -4.782  0.00  0.00     0.103 C 
ATOM    141  O6B BDP d1180       6.801 -18.211  -6.980  0.00  0.00    -0.646 OA
ATOM    142  O4  BDP d1180       3.920 -18.722  -4.881  0.00  0.00    -0.348 OA
ATOM    143  H   BDP d1180       5.828 -14.669  -1.632  0.00  0.00     0.210 HD
ATOM    144  H   BDP d1180       2.845 -15.681  -3.014  0.00  0.00     0.210 HD
ATOM    145  H   BDP d1180       6.252 -18.737  -3.833  0.00  0.00     0.104 H 
ATOM    146  H   BDP d1180       5.289 -14.964  -3.906  0.00  0.00     0.094 H 
ATOM    147  H   BDP d1180       4.270 -17.499  -2.720  0.00  0.00     0.091 H 
ATOM    148  H   BDP d1180       7.029 -16.947  -2.506  0.00  0.00     0.133 H 
ATOM    149  H   BDP d1180       4.680 -16.976  -5.643  0.00  0.00     0.092 H 
ATOM    150  C3  BDP d1176      14.458 -12.141  10.986  0.00  0.00     0.092 C 
ATOM    151  O4  BDP d1176      13.872 -12.049   8.589  0.00  0.00    -0.348 OA
ATOM    152  O3  BDP d1176      15.151 -13.383  10.932  0.00  0.00    -0.390 OA
ATOM    153  O5  BDP d1176      12.047 -10.696  11.515  0.00  0.00    -0.340 OA
ATOM    154  O2  BDP d1176      14.956 -11.855  13.324  0.00  0.00    -0.388 OA
ATOM    155  C1  BDP d1176      13.013 -10.710  12.544  0.00  0.00     0.160 C 
ATOM    156  O6B BDP d1176      11.259  -9.778   8.472  0.00  0.00    -0.646 OA
ATOM    157  C5  BDP d1176      12.563 -10.771  10.182  0.00  0.00     0.152 C 
ATOM    158  O6A BDP d1176      10.430 -11.582   9.479  0.00  0.00    -0.646 OA
ATOM    159  C6  BDP d1176      11.331 -10.718   9.308  0.00  0.00     0.206 C 
ATOM    160  C4  BDP d1176      13.360 -12.050   9.913  0.00  0.00     0.103 C 
ATOM    161  C2  BDP d1176      13.887 -11.958  12.398  0.00  0.00     0.110 C 
ATOM    162  H   BDP d1176      15.143 -11.347  10.774  0.00  0.00     0.091 H 
ATOM    163  H   BDP d1176      14.533 -14.106  11.123  0.00  0.00     0.210 HD
ATOM    164  H   BDP d1176      15.525 -12.637  13.249  0.00  0.00     0.210 HD
ATOM    165  H   BDP d1176      13.604  -9.820  12.475  0.00  0.00     0.133 H 
ATOM    166  H   BDP d1176      13.256  -9.979   9.994  0.00  0.00     0.104 H 
ATOM    167  H   BDP d1176      12.740 -12.920   9.979  0.00  0.00     0.092 H 
ATOM    168  H   BDP d1176      13.271 -12.811  12.590  0.00  0.00     0.094 H 
ENDROOT
TORSDOF 43
ENDMDL
MODEL 27
REMARK VINA RESULT:      -6.8      3.707     18.844
REMARK  0 active torsions:
REMARK  status: ('A' for Active; 'I' for Inactive)
REMARK       I    between atoms: C3_1  and  O3_90 
REMARK       I    between atoms: O1_4  and  C1_76 
REMARK       I    between atoms: C2_5  and  N2_21 
REMARK       I    between atoms: C8_6  and  C7_66 
REMARK       I    between atoms: C4_7  and  O4_24 
REMARK       I    between atoms: N2_9  and  C2_60 
REMARK       I    between atoms: N2_9  and  C7_69 
REMARK       I    between atoms: O4_12  and  C4_26 
REMARK       I    between atoms: O3_13  and  C3_65 
REMARK       I    between atoms: O3_13  and  C1_61 
REMARK       I    between atoms: C3_14  and  O3_35 
REMARK       I    between atoms: C6_15  and  C5_53 
REMARK       I    between atoms: C6_15  and  O6_46 
REMARK       I    between atoms: O6_16  and  C6_54 
REMARK       I    between atoms: C4_17  and  O4_49 
REMARK       I    between atoms: O4_18  and  C4_28 
REMARK       I    between atoms: O4_18  and  C1_47 
REMARK       I    between atoms: C3_19  and  O3_43 
REMARK       I    between atoms: C1_20  and  O4_91 
REMARK       I    between atoms: N2_21  and  C7_66 
REMARK       I    between atoms: O3_22  and  C3_82 
REMARK       I    between atoms: C7_23  and  C8_62 
REMARK       I    between atoms: C7_23  and  N2_51 
REMARK       I    between atoms: C2_25  and  N2_41 
REMARK       I    between atoms: C1_27  and  O3_90 
REMARK       I    between atoms: O6_29  and  C6_74 
REMARK       I    between atoms: O2_30  and  C2_37 
REMARK       I    between atoms: C2_31  and  O2_42 
REMARK       I    between atoms: O3_32  and  C3_45 
REMARK       I    between atoms: O4_33  and  C4_73 
REMARK       I    between atoms: O4_34  and  C4_84 
REMARK       I    between atoms: O4_34  and  C1_85 
REMARK       I    between atoms: C5_36  and  C6_48 
REMARK       I    between atoms: C6_38  and  C5_40 
REMARK       I    between atoms: C6_38  and  O6_89 
REMARK       I    between atoms: N2_41  and  C7_50 
REMARK       I    between atoms: C5_44  and  C6_74 
REMARK       I    between atoms: C7_50  and  C8_75 
REMARK       I    between atoms: N2_51  and  C2_58 
REMARK       I    between atoms: C1_52  and  O3_87 
REMARK       I    between atoms: C6_54  and  C5_86 
REMARK       I    between atoms: O2_59  and  C2_93 
REMARK       I    between atoms: C8_64  and  C7_69 
REMARK       I    between atoms: C6_70  and  C5_80 
REMARK       I    between atoms: C4_72  and  O4_91 
REMARK       I    between atoms: C5_77  and  C6_79 
REMARK       I    between atoms: C3_83  and  O3_87 
ROOT
ATOM      1  C3  NAG d1177      12.039  -9.560   5.026  0.00  0.00     0.093 C 
ATOM      2  O7  NAG d1177      15.915  -9.455   5.065  0.00  0.00    -0.274 OA
ATOM      3  C4  NAG d1177      10.988  -8.902   4.114  0.00  0.00     0.089 C 
ATOM      4  C2  NAG d1177      13.211 -10.067   4.202  0.00  0.00     0.087 C 
ATOM      5  C6  NAG d1177       9.692  -9.123   1.928  0.00  0.00     0.043 C 
ATOM      6  C5  NAG d1177      10.641  -9.795   2.934  0.00  0.00     0.089 C 
ATOM      7  N2  NAG d1177      14.122 -10.911   4.998  0.00  0.00    -0.349 N 
ATOM      8  O4  NAG d1177       9.813  -8.606   4.843  0.00  0.00    -0.390 OA
ATOM      9  C7  NAG d1177      15.354 -10.555   5.371  0.00  0.00     0.214 C 
ATOM     10  O5  NAG d1177      11.827 -10.166   2.241  0.00  0.00    -0.349 OA
ATOM     11  C8  NAG d1177      16.047 -11.639   6.155  0.00  0.00    -0.003 C 
ATOM     12  C1  NAG d1177      12.723 -10.915   3.028  0.00  0.00     0.154 C 
ATOM     13  O6  NAG d1177      10.296  -7.983   1.343  0.00  0.00    -0.398 OA
ATOM     14  O3  NAG d1177      12.550  -8.605   5.916  0.00  0.00    -0.348 OA
ATOM     15  H   NAG d1177      11.567 -10.366   5.546  0.00  0.00     0.091 H 
ATOM     16  H   NAG d1177      11.412  -7.994   3.741  0.00  0.00     0.091 H 
ATOM     17  H   NAG d1177      13.729  -9.197   3.858  0.00  0.00     0.084 H 
ATOM     18  H   NAG d1177       8.799  -8.824   2.436  0.00  0.00     0.078 H 
ATOM     19  H   NAG d1177       9.465  -9.824   1.152  0.00  0.00     0.078 H 
ATOM     20  H   NAG d1177      10.143 -10.650   3.341  0.00  0.00     0.090 H 
ATOM     21  H   NAG d1177      13.799 -11.799   5.273  0.00  0.00     0.163 HD
ATOM     22  H   NAG d1177       9.426  -9.428   5.183  0.00  0.00     0.210 HD
ATOM     23  H   NAG d1177      17.026 -11.309   6.431  0.00  0.00     0.040 H 
ATOM     24  H   NAG d1177      16.124 -12.521   5.553  0.00  0.00     0.040 H 
ATOM     25  H   NAG d1177      15.482 -11.858   7.037  0.00  0.00     0.040 H 
ATOM     26  H   NAG d1177      12.206 -11.778   3.392  0.00  0.00     0.132 H 
ATOM     27  H   NAG d1177      10.507  -7.337   2.036  0.00  0.00     0.209 HD
ATOM     28  O6A BDP d1178       8.739  -8.593   8.813  0.00  0.00    -0.646 OA
ATOM     29  O4  BDP d1178      11.838  -9.316  11.265  0.00  0.00    -0.348 OA
ATOM     30  O3  BDP d1178      13.716  -7.391  10.334  0.00  0.00    -0.390 OA
ATOM     31  C1  BDP d1178      12.443  -9.017   7.286  0.00  0.00     0.160 C 
ATOM     32  C4  BDP d1178      11.732  -8.668  10.020  0.00  0.00     0.103 C 
ATOM     33  C2  BDP d1178      13.202  -8.000   8.113  0.00  0.00     0.110 C 
ATOM     34  O2  BDP d1178      14.535  -7.912   7.681  0.00  0.00    -0.388 OA
ATOM     35  O6B BDP d1178       8.982 -10.306  10.223  0.00  0.00    -0.646 OA
ATOM     36  O5  BDP d1178      11.098  -9.046   7.727  0.00  0.00    -0.340 OA
ATOM     37  C6  BDP d1178       9.437  -9.474   9.389  0.00  0.00     0.206 C 
ATOM     38  C5  BDP d1178      10.932  -9.521   9.047  0.00  0.00     0.152 C 
ATOM     39  C3  BDP d1178      13.182  -8.442   9.549  0.00  0.00     0.092 C 
ATOM     40  H   BDP d1178      13.714  -7.652  11.268  0.00  0.00     0.210 HD
ATOM     41  H   BDP d1178      12.838 -10.005   7.390  0.00  0.00     0.133 H 
ATOM     42  H   BDP d1178      11.209  -7.736  10.083  0.00  0.00     0.092 H 
ATOM     43  H   BDP d1178      12.740  -7.041   8.005  0.00  0.00     0.094 H 
ATOM     44  H   BDP d1178      14.964  -8.777   7.774  0.00  0.00     0.210 HD
ATOM     45  H   BDP d1178      11.292 -10.525   9.125  0.00  0.00     0.104 H 
ATOM     46  H   BDP d1178      13.743  -9.348   9.648  0.00  0.00     0.091 H 
ATOM     47  O1  NAG d1175      16.221 -18.265  -4.885  0.00  0.00    -0.369 OA
ATOM     48  O3  NAG d1175      14.578 -15.294  -1.659  0.00  0.00    -0.348 OA
ATOM     49  O6  NAG d1175      18.062 -20.238  -0.663  0.00  0.00    -0.398 OA
ATOM     50  C7  NAG d1175      14.049 -15.182  -4.695  0.00  0.00     0.214 C 
ATOM     51  O4  NAG d1175      16.234 -16.737   0.376  0.00  0.00    -0.390 OA
ATOM     52  N2  NAG d1175      15.180 -15.828  -4.382  0.00  0.00    -0.349 N 
ATOM     53  C6  NAG d1175      16.913 -19.477  -0.406  0.00  0.00     0.043 C 
ATOM     54  C2  NAG d1175      15.345 -16.785  -3.277  0.00  0.00     0.087 C 
ATOM     55  C8  NAG d1175      12.746 -15.729  -4.208  0.00  0.00    -0.003 C 
ATOM     56  O7  NAG d1175      14.059 -14.147  -5.379  0.00  0.00    -0.274 OA
ATOM     57  C3  NAG d1175      15.682 -16.131  -1.946  0.00  0.00     0.093 C 
ATOM     58  C4  NAG d1175      15.872 -17.246  -0.908  0.00  0.00     0.089 C 
ATOM     59  C1  NAG d1175      16.485 -17.735  -3.617  0.00  0.00     0.151 C 
ATOM     60  C5  NAG d1175      16.872 -18.309  -1.379  0.00  0.00     0.089 C 
ATOM     61  O5  NAG d1175      16.554 -18.793  -2.670  0.00  0.00    -0.349 OA
ATOM     62  H   NAG d1175      16.174 -17.544  -5.533  0.00  0.00     0.212 HD
ATOM     63  H   NAG d1175      18.099 -20.987  -0.047  0.00  0.00     0.209 HD
ATOM     64  H   NAG d1175      15.588 -16.068   0.653  0.00  0.00     0.210 HD
ATOM     65  H   NAG d1175      15.970 -15.646  -4.941  0.00  0.00     0.163 HD
ATOM     66  H   NAG d1175      16.943 -19.109   0.598  0.00  0.00     0.078 H 
ATOM     67  H   NAG d1175      16.040 -20.084  -0.529  0.00  0.00     0.078 H 
ATOM     68  H   NAG d1175      14.405 -17.285  -3.168  0.00  0.00     0.084 H 
ATOM     69  H   NAG d1175      12.923 -16.619  -3.639  0.00  0.00     0.040 H 
ATOM     70  H   NAG d1175      12.121 -15.960  -5.045  0.00  0.00     0.040 H 
ATOM     71  H   NAG d1175      12.263 -15.001  -3.590  0.00  0.00     0.040 H 
ATOM     72  H   NAG d1175      16.581 -15.552  -1.949  0.00  0.00     0.091 H 
ATOM     73  H   NAG d1175      14.918 -17.722  -0.806  0.00  0.00     0.091 H 
ATOM     74  H   NAG d1175      17.418 -17.212  -3.599  0.00  0.00     0.132 H 
ATOM     75  H   NAG d1175      17.832 -17.838  -1.417  0.00  0.00     0.090 H 
ATOM     76  C2  NAG d1181       4.600 -13.138  20.199  0.00  0.00     0.087 C 
ATOM     77  C8  NAG d1181       2.053 -13.157  18.729  0.00  0.00    -0.003 C 
ATOM     78  O5  NAG d1181       6.906 -13.958  20.311  0.00  0.00    -0.349 OA
ATOM     79  O4  NAG d1181       4.964 -15.438  23.062  0.00  0.00    -0.390 OA
ATOM     80  C3  NAG d1181       4.382 -13.594  21.633  0.00  0.00     0.086 C 
ATOM     81  C1  NAG d1181       6.080 -12.874  19.913  0.00  0.00     0.154 C 
ATOM     82  N2  NAG d1181       3.820 -11.948  19.907  0.00  0.00    -0.349 N 
ATOM     83  C4  NAG d1181       5.233 -14.846  21.810  0.00  0.00     0.089 C 
ATOM     84  O6  NAG d1181       8.109 -16.258  20.903  0.00  0.00    -0.398 OA
ATOM     85  O3  NAG d1181       3.011 -13.830  21.908  0.00  0.00    -0.391 OA
ATOM     86  C5  NAG d1181       6.701 -14.412  21.646  0.00  0.00     0.089 C 
ATOM     87  O7  NAG d1181       2.624 -10.903  18.308  0.00  0.00    -0.274 OA
ATOM     88  C7  NAG d1181       2.863 -11.913  18.967  0.00  0.00     0.214 C 
ATOM     89  C6  NAG d1181       7.730 -15.487  22.025  0.00  0.00     0.043 C 
ATOM     90  H   NAG d1181       4.271 -13.933  19.562  0.00  0.00     0.084 H 
ATOM     91  H   NAG d1181       2.392 -13.933  19.383  0.00  0.00     0.040 H 
ATOM     92  H   NAG d1181       2.171 -13.470  17.713  0.00  0.00     0.040 H 
ATOM     93  H   NAG d1181       1.021 -12.952  18.923  0.00  0.00     0.040 H 
ATOM     94  H   NAG d1181       4.028 -15.689  23.107  0.00  0.00     0.210 HD
ATOM     95  H   NAG d1181       4.674 -12.837  22.329  0.00  0.00     0.090 H 
ATOM     96  H   NAG d1181       6.453 -12.038  20.467  0.00  0.00     0.132 H 
ATOM     97  H   NAG d1181       4.002 -11.129  20.423  0.00  0.00     0.163 HD
ATOM     98  H   NAG d1181       5.009 -15.597  21.082  0.00  0.00     0.091 H 
ATOM     99  H   NAG d1181       8.758 -16.926  21.174  0.00  0.00     0.209 HD
ATOM    100  H   NAG d1181       2.674 -14.513  21.309  0.00  0.00     0.210 HD
ATOM    101  H   NAG d1181       6.867 -13.618  22.344  0.00  0.00     0.090 H 
ATOM    102  H   NAG d1181       8.598 -15.011  22.429  0.00  0.00     0.078 H 
ATOM    103  H   NAG d1181       7.283 -16.140  22.745  0.00  0.00     0.078 H 
ATOM    104  C4  NAG d1179      10.797  -8.442  15.203  0.00  0.00     0.089 C 
ATOM    105  N2  NAG d1179      10.281 -11.138  12.551  0.00  0.00    -0.349 N 
ATOM    106  C6  NAG d1179      11.674  -6.127  14.671  0.00  0.00     0.043 C 
ATOM    107  O4  NAG d1179       9.968  -7.979  16.264  0.00  0.00    -0.390 OA
ATOM    108  O6  NAG d1179      13.030  -6.443  14.916  0.00  0.00    -0.398 OA
ATOM    109  C1  NAG d1179      11.032  -8.841  12.348  0.00  0.00     0.154 C 
ATOM    110  C5  NAG d1179      10.942  -7.350  14.146  0.00  0.00     0.089 C 
ATOM    111  O5  NAG d1179      11.696  -7.833  13.049  0.00  0.00    -0.349 OA
ATOM    112  C2  NAG d1179      10.906 -10.045  13.275  0.00  0.00     0.087 C 
ATOM    113  C8  NAG d1179      10.108 -13.355  11.679  0.00  0.00    -0.003 C 
ATOM    114  C7  NAG d1179      10.762 -12.379  12.598  0.00  0.00     0.214 C 
ATOM    115  C3  NAG d1179      10.173  -9.682  14.577  0.00  0.00     0.093 C 
ATOM    116  O3  NAG d1179      10.270 -10.754  15.503  0.00  0.00    -0.348 OA
ATOM    117  O7  NAG d1179      11.670 -12.732  13.344  0.00  0.00    -0.274 OA
ATOM    118  H   NAG d1179      11.765  -8.685  15.589  0.00  0.00     0.091 H 
ATOM    119  H   NAG d1179       9.479 -10.956  12.009  0.00  0.00     0.163 HD
ATOM    120  H   NAG d1179      11.216  -5.803  15.582  0.00  0.00     0.078 H 
ATOM    121  H   NAG d1179      11.621  -5.346  13.941  0.00  0.00     0.078 H 
ATOM    122  H   NAG d1179       9.090  -7.758  15.917  0.00  0.00     0.210 HD
ATOM    123  H   NAG d1179      13.082  -7.151  15.577  0.00  0.00     0.209 HD
ATOM    124  H   NAG d1179      10.098  -8.451  12.004  0.00  0.00     0.132 H 
ATOM    125  H   NAG d1179       9.947  -7.079  13.861  0.00  0.00     0.090 H 
ATOM    126  H   NAG d1179      11.879 -10.368  13.582  0.00  0.00     0.084 H 
ATOM    127  H   NAG d1179       9.346 -12.858  11.114  0.00  0.00     0.040 H 
ATOM    128  H   NAG d1179       9.670 -14.145  12.251  0.00  0.00     0.040 H 
ATOM    129  H   NAG d1179      10.839 -13.760  11.011  0.00  0.00     0.040 H 
ATOM    130  H   NAG d1179       9.146  -9.492  14.344  0.00  0.00     0.091 H 
ATOM    131  O5  BDP d1180       8.401 -10.414  16.809  0.00  0.00    -0.340 OA
ATOM    132  O6A BDP d1180       5.378  -9.432  17.866  0.00  0.00    -0.646 OA
ATOM    133  O2  BDP d1180       9.532 -13.554  15.388  0.00  0.00    -0.388 OA
ATOM    134  O3  BDP d1180       8.424 -14.316  18.005  0.00  0.00    -0.390 OA
ATOM    135  C5  BDP d1180       7.161 -10.880  17.294  0.00  0.00     0.152 C 
ATOM    136  C2  BDP d1180       9.223 -12.677  16.449  0.00  0.00     0.110 C 
ATOM    137  C3  BDP d1180       8.009 -13.236  17.187  0.00  0.00     0.092 C 
ATOM    138  C6  BDP d1180       6.544  -9.783  18.148  0.00  0.00     0.206 C 
ATOM    139  C1  BDP d1180       8.988 -11.282  15.871  0.00  0.00     0.160 C 
ATOM    140  C4  BDP d1180       7.372 -12.174  18.066  0.00  0.00     0.103 C 
ATOM    141  O6B BDP d1180       7.249  -9.284  19.063  0.00  0.00    -0.646 OA
ATOM    142  O4  BDP d1180       6.128 -12.659  18.493  0.00  0.00    -0.348 OA
ATOM    143  H   BDP d1180      10.302 -13.218  14.903  0.00  0.00     0.210 HD
ATOM    144  H   BDP d1180       8.833 -15.001  17.452  0.00  0.00     0.210 HD
ATOM    145  H   BDP d1180       6.485 -11.103  16.495  0.00  0.00     0.104 H 
ATOM    146  H   BDP d1180      10.021 -12.595  17.158  0.00  0.00     0.094 H 
ATOM    147  H   BDP d1180       7.291 -13.562  16.464  0.00  0.00     0.091 H 
ATOM    148  H   BDP d1180       8.322 -11.358  15.036  0.00  0.00     0.133 H 
ATOM    149  H   BDP d1180       8.016 -11.967  18.896  0.00  0.00     0.092 H 
ATOM    150  C3  BDP d1176      13.752 -11.921  -0.147  0.00  0.00     0.092 C 
ATOM    151  O4  BDP d1176      13.850 -11.353   2.255  0.00  0.00    -0.348 OA
ATOM    152  O3  BDP d1176      12.661 -11.067  -0.467  0.00  0.00    -0.390 OA
ATOM    153  O5  BDP d1176      14.712 -14.525   0.545  0.00  0.00    -0.340 OA
ATOM    154  O2  BDP d1176      14.014 -12.606  -2.440  0.00  0.00    -0.388 OA
ATOM    155  C1  BDP d1176      14.824 -14.150  -0.812  0.00  0.00     0.160 C 
ATOM    156  O6B BDP d1176      15.614 -13.989   3.647  0.00  0.00    -0.646 OA
ATOM    157  C5  BDP d1176      14.794 -13.454   1.491  0.00  0.00     0.152 C 
ATOM    158  O6A BDP d1176      13.644 -14.842   3.056  0.00  0.00    -0.646 OA
ATOM    159  C6  BDP d1176      14.664 -14.137   2.832  0.00  0.00     0.206 C 
ATOM    160  C4  BDP d1176      13.694 -12.403   1.312  0.00  0.00     0.103 C 
ATOM    161  C2  BDP d1176      13.764 -13.095  -1.133  0.00  0.00     0.110 C 
ATOM    162  H   BDP d1176      14.666 -11.371  -0.239  0.00  0.00     0.091 H 
ATOM    163  H   BDP d1176      11.829 -11.560  -0.385  0.00  0.00     0.210 HD
ATOM    164  H   BDP d1176      13.353 -11.934  -2.666  0.00  0.00     0.210 HD
ATOM    165  H   BDP d1176      15.809 -13.767  -0.983  0.00  0.00     0.133 H 
ATOM    166  H   BDP d1176      15.706 -12.908   1.374  0.00  0.00     0.104 H 
ATOM    167  H   BDP d1176      12.724 -12.815   1.501  0.00  0.00     0.092 H 
ATOM    168  H   BDP d1176      12.805 -13.564  -1.057  0.00  0.00     0.094 H 
ENDROOT
TORSDOF 43
ENDMDL
MODEL 28
REMARK VINA RESULT:      -6.8      4.382      6.203
REMARK  0 active torsions:
REMARK  status: ('A' for Active; 'I' for Inactive)
REMARK       I    between atoms: C3_1  and  O3_90 
REMARK       I    between atoms: O1_4  and  C1_76 
REMARK       I    between atoms: C2_5  and  N2_21 
REMARK       I    between atoms: C8_6  and  C7_66 
REMARK       I    between atoms: C4_7  and  O4_24 
REMARK       I    between atoms: N2_9  and  C2_60 
REMARK       I    between atoms: N2_9  and  C7_69 
REMARK       I    between atoms: O4_12  and  C4_26 
REMARK       I    between atoms: O3_13  and  C3_65 
REMARK       I    between atoms: O3_13  and  C1_61 
REMARK       I    between atoms: C3_14  and  O3_35 
REMARK       I    between atoms: C6_15  and  C5_53 
REMARK       I    between atoms: C6_15  and  O6_46 
REMARK       I    between atoms: O6_16  and  C6_54 
REMARK       I    between atoms: C4_17  and  O4_49 
REMARK       I    between atoms: O4_18  and  C4_28 
REMARK       I    between atoms: O4_18  and  C1_47 
REMARK       I    between atoms: C3_19  and  O3_43 
REMARK       I    between atoms: C1_20  and  O4_91 
REMARK       I    between atoms: N2_21  and  C7_66 
REMARK       I    between atoms: O3_22  and  C3_82 
REMARK       I    between atoms: C7_23  and  C8_62 
REMARK       I    between atoms: C7_23  and  N2_51 
REMARK       I    between atoms: C2_25  and  N2_41 
REMARK       I    between atoms: C1_27  and  O3_90 
REMARK       I    between atoms: O6_29  and  C6_74 
REMARK       I    between atoms: O2_30  and  C2_37 
REMARK       I    between atoms: C2_31  and  O2_42 
REMARK       I    between atoms: O3_32  and  C3_45 
REMARK       I    between atoms: O4_33  and  C4_73 
REMARK       I    between atoms: O4_34  and  C4_84 
REMARK       I    between atoms: O4_34  and  C1_85 
REMARK       I    between atoms: C5_36  and  C6_48 
REMARK       I    between atoms: C6_38  and  C5_40 
REMARK       I    between atoms: C6_38  and  O6_89 
REMARK       I    between atoms: N2_41  and  C7_50 
REMARK       I    between atoms: C5_44  and  C6_74 
REMARK       I    between atoms: C7_50  and  C8_75 
REMARK       I    between atoms: N2_51  and  C2_58 
REMARK       I    between atoms: C1_52  and  O3_87 
REMARK       I    between atoms: C6_54  and  C5_86 
REMARK       I    between atoms: O2_59  and  C2_93 
REMARK       I    between atoms: C8_64  and  C7_69 
REMARK       I    between atoms: C6_70  and  C5_80 
REMARK       I    between atoms: C4_72  and  O4_91 
REMARK       I    between atoms: C5_77  and  C6_79 
REMARK       I    between atoms: C3_83  and  O3_87 
ROOT
ATOM      1  C3  NAG d1177      13.676 -10.310   7.937  0.00  0.00     0.093 C 
ATOM      2  O7  NAG d1177      10.836  -8.481   9.841  0.00  0.00    -0.274 OA
ATOM      3  C4  NAG d1177      15.175 -10.012   7.765  0.00  0.00     0.089 C 
ATOM      4  C2  NAG d1177      13.242 -10.036   9.368  0.00  0.00     0.087 C 
ATOM      5  C6  NAG d1177      17.491 -10.297   8.797  0.00  0.00     0.043 C 
ATOM      6  C5  NAG d1177      16.002 -10.675   8.855  0.00  0.00     0.089 C 
ATOM      7  N2  NAG d1177      11.880 -10.532   9.638  0.00  0.00    -0.349 N 
ATOM      8  O4  NAG d1177      15.628 -10.449   6.498  0.00  0.00    -0.390 OA
ATOM      9  C7  NAG d1177      10.814  -9.754   9.833  0.00  0.00     0.214 C 
ATOM     10  O5  NAG d1177      15.503 -10.306  10.135  0.00  0.00    -0.349 OA
ATOM     11  C8  NAG d1177       9.567 -10.554  10.110  0.00  0.00    -0.003 C 
ATOM     12  C1  NAG d1177      14.177 -10.725  10.360  0.00  0.00     0.154 C 
ATOM     13  O6  NAG d1177      17.672  -8.909   9.012  0.00  0.00    -0.398 OA
ATOM     14  O3  NAG d1177      12.930  -9.455   7.114  0.00  0.00    -0.348 OA
ATOM     15  H   NAG d1177      13.512 -11.337   7.684  0.00  0.00     0.091 H 
ATOM     16  H   NAG d1177      15.301  -8.952   7.840  0.00  0.00     0.091 H 
ATOM     17  H   NAG d1177      13.272  -8.973   9.487  0.00  0.00     0.084 H 
ATOM     18  H   NAG d1177      17.880 -10.555   7.834  0.00  0.00     0.078 H 
ATOM     19  H   NAG d1177      18.009 -10.831   9.565  0.00  0.00     0.078 H 
ATOM     20  H   NAG d1177      15.920 -11.729   8.693  0.00  0.00     0.090 H 
ATOM     21  H   NAG d1177      11.748 -11.508   9.676  0.00  0.00     0.163 HD
ATOM     22  H   NAG d1177      15.515 -11.410   6.428  0.00  0.00     0.210 HD
ATOM     23  H   NAG d1177       8.742  -9.888  10.259  0.00  0.00     0.040 H 
ATOM     24  H   NAG d1177       9.711 -11.145  10.989  0.00  0.00     0.040 H 
ATOM     25  H   NAG d1177       9.362 -11.195   9.278  0.00  0.00     0.040 H 
ATOM     26  H   NAG d1177      14.135 -11.785  10.224  0.00  0.00     0.132 H 
ATOM     27  H   NAG d1177      17.207  -8.410   8.321  0.00  0.00     0.209 HD
ATOM     28  O6A BDP d1178      13.848 -11.811   3.050  0.00  0.00    -0.646 OA
ATOM     29  O4  BDP d1178       9.838 -11.588   3.175  0.00  0.00    -0.348 OA
ATOM     30  O3  BDP d1178       9.478  -8.870   3.937  0.00  0.00    -0.390 OA
ATOM     31  C1  BDP d1178      12.034 -10.165   6.248  0.00  0.00     0.160 C 
ATOM     32  C4  BDP d1178      10.861 -10.797   3.734  0.00  0.00     0.103 C 
ATOM     33  C2  BDP d1178      11.161  -9.130   5.570  0.00  0.00     0.110 C 
ATOM     34  O2  BDP d1178      10.484  -8.356   6.527  0.00  0.00    -0.388 OA
ATOM     35  O6B BDP d1178      12.391 -13.498   2.927  0.00  0.00    -0.646 OA
ATOM     36  O5  BDP d1178      12.727 -10.896   5.253  0.00  0.00    -0.340 OA
ATOM     37  C6  BDP d1178      12.775 -12.387   3.388  0.00  0.00     0.206 C 
ATOM     38  C5  BDP d1178      11.892 -11.676   4.423  0.00  0.00     0.152 C 
ATOM     39  C3  BDP d1178      10.152  -9.842   4.715  0.00  0.00     0.092 C 
ATOM     40  H   BDP d1178       8.819  -9.305   3.374  0.00  0.00     0.210 HD
ATOM     41  H   BDP d1178      11.466 -10.864   6.825  0.00  0.00     0.133 H 
ATOM     42  H   BDP d1178      11.402 -10.242   2.996  0.00  0.00     0.092 H 
ATOM     43  H   BDP d1178      11.774  -8.486   4.976  0.00  0.00     0.094 H 
ATOM     44  H   BDP d1178       9.925  -8.931   7.072  0.00  0.00     0.210 HD
ATOM     45  H   BDP d1178      11.363 -12.399   5.007  0.00  0.00     0.104 H 
ATOM     46  H   BDP d1178       9.484 -10.395   5.343  0.00  0.00     0.091 H 
ATOM     47  O1  NAG d1175      15.163 -13.727  21.264  0.00  0.00    -0.369 OA
ATOM     48  O3  NAG d1175      14.915 -12.623  16.720  0.00  0.00    -0.348 OA
ATOM     49  O6  NAG d1175      10.662 -15.548  20.027  0.00  0.00    -0.398 OA
ATOM     50  C7  NAG d1175      17.290 -12.085  18.611  0.00  0.00     0.214 C 
ATOM     51  O4  NAG d1175      12.077 -13.580  16.740  0.00  0.00    -0.390 OA
ATOM     52  N2  NAG d1175      16.122 -12.203  19.255  0.00  0.00    -0.349 N 
ATOM     53  C6  NAG d1175      11.499 -15.466  18.905  0.00  0.00     0.043 C 
ATOM     54  C2  NAG d1175      15.081 -13.203  18.970  0.00  0.00     0.087 C 
ATOM     55  C8  NAG d1175      17.811 -13.254  17.839  0.00  0.00    -0.003 C 
ATOM     56  O7  NAG d1175      17.947 -11.033  18.643  0.00  0.00    -0.274 OA
ATOM     57  C3  NAG d1175      14.113 -12.785  17.874  0.00  0.00     0.093 C 
ATOM     58  C4  NAG d1175      13.064 -13.895  17.723  0.00  0.00     0.089 C 
ATOM     59  C1  NAG d1175      14.263 -13.434  20.233  0.00  0.00     0.151 C 
ATOM     60  C5  NAG d1175      12.409 -14.257  19.061  0.00  0.00     0.089 C 
ATOM     61  O5  NAG d1175      13.374 -14.529  20.060  0.00  0.00    -0.349 OA
ATOM     62  H   NAG d1175      15.771 -12.980  21.384  0.00  0.00     0.212 HD
ATOM     63  H   NAG d1175      10.077 -16.316  19.938  0.00  0.00     0.209 HD
ATOM     64  H   NAG d1175      12.514 -13.354  15.903  0.00  0.00     0.210 HD
ATOM     65  H   NAG d1175      15.944 -11.565  19.983  0.00  0.00     0.163 HD
ATOM     66  H   NAG d1175      10.907 -15.359  18.021  0.00  0.00     0.078 H 
ATOM     67  H   NAG d1175      12.088 -16.356  18.825  0.00  0.00     0.078 H 
ATOM     68  H   NAG d1175      15.591 -14.083  18.638  0.00  0.00     0.084 H 
ATOM     69  H   NAG d1175      17.123 -14.070  17.921  0.00  0.00     0.040 H 
ATOM     70  H   NAG d1175      18.761 -13.548  18.235  0.00  0.00     0.040 H 
ATOM     71  H   NAG d1175      17.921 -12.981  16.811  0.00  0.00     0.040 H 
ATOM     72  H   NAG d1175      13.581 -11.878  18.072  0.00  0.00     0.091 H 
ATOM     73  H   NAG d1175      13.594 -14.759  17.377  0.00  0.00     0.091 H 
ATOM     74  H   NAG d1175      13.681 -12.565  20.458  0.00  0.00     0.132 H 
ATOM     75  H   NAG d1175      11.833 -13.409  19.365  0.00  0.00     0.090 H 
ATOM     76  C2  NAG d1181       8.537 -20.155  -5.294  0.00  0.00     0.087 C 
ATOM     77  C8  NAG d1181      11.348 -20.989  -5.516  0.00  0.00    -0.003 C 
ATOM     78  O5  NAG d1181       6.601 -19.848  -3.823  0.00  0.00    -0.349 OA
ATOM     79  O4  NAG d1181       5.926 -22.619  -6.147  0.00  0.00    -0.390 OA
ATOM     80  C3  NAG d1181       7.671 -20.968  -6.242  0.00  0.00     0.086 C 
ATOM     81  C1  NAG d1181       7.696 -19.195  -4.449  0.00  0.00     0.154 C 
ATOM     82  N2  NAG d1181       9.551 -19.412  -6.022  0.00  0.00    -0.349 N 
ATOM     83  C4  NAG d1181       6.665 -21.706  -5.366  0.00  0.00     0.089 C 
ATOM     84  O6  NAG d1181       4.846 -21.426  -2.592  0.00  0.00    -0.398 OA
ATOM     85  O3  NAG d1181       8.446 -21.852  -7.036  0.00  0.00    -0.391 OA
ATOM     86  C5  NAG d1181       5.791 -20.633  -4.695  0.00  0.00     0.089 C 
ATOM     87  O7  NAG d1181      11.685 -18.691  -5.943  0.00  0.00    -0.274 OA
ATOM     88  C7  NAG d1181      10.867 -19.603  -5.842  0.00  0.00     0.214 C 
ATOM     89  C6  NAG d1181       4.563 -21.183  -3.955  0.00  0.00     0.043 C 
ATOM     90  H   NAG d1181       9.020 -20.847  -4.636  0.00  0.00     0.084 H 
ATOM     91  H   NAG d1181      10.510 -21.654  -5.465  0.00  0.00     0.040 H 
ATOM     92  H   NAG d1181      11.852 -20.980  -4.572  0.00  0.00     0.040 H 
ATOM     93  H   NAG d1181      12.022 -21.321  -6.277  0.00  0.00     0.040 H 
ATOM     94  H   NAG d1181       6.528 -23.268  -6.543  0.00  0.00     0.210 HD
ATOM     95  H   NAG d1181       7.169 -20.338  -6.945  0.00  0.00     0.090 H 
ATOM     96  H   NAG d1181       7.244 -18.429  -5.043  0.00  0.00     0.132 H 
ATOM     97  H   NAG d1181       9.260 -18.738  -6.678  0.00  0.00     0.163 HD
ATOM     98  H   NAG d1181       7.140 -22.292  -4.608  0.00  0.00     0.091 H 
ATOM     99  H   NAG d1181       4.053 -21.772  -2.154  0.00  0.00     0.209 HD
ATOM    100  H   NAG d1181       8.934 -22.460  -6.461  0.00  0.00     0.210 HD
ATOM    101  H   NAG d1181       5.387 -20.028  -5.480  0.00  0.00     0.090 H 
ATOM    102  H   NAG d1181       3.768 -20.470  -4.023  0.00  0.00     0.078 H 
ATOM    103  H   NAG d1181       4.283 -22.109  -4.411  0.00  0.00     0.078 H 
ATOM    104  C4  NAG d1179       8.240 -12.184  -0.625  0.00  0.00     0.089 C 
ATOM    105  N2  NAG d1179       9.756 -14.151   2.273  0.00  0.00    -0.349 N 
ATOM    106  C6  NAG d1179       8.438  -9.669  -0.843  0.00  0.00     0.043 C 
ATOM    107  O4  NAG d1179       8.259 -12.395  -2.033  0.00  0.00    -0.390 OA
ATOM    108  O6  NAG d1179       7.219  -9.386  -0.185  0.00  0.00    -0.398 OA
ATOM    109  C1  NAG d1179       9.829 -11.783   1.758  0.00  0.00     0.154 C 
ATOM    110  C5  NAG d1179       9.052 -10.938  -0.278  0.00  0.00     0.089 C 
ATOM    111  O5  NAG d1179       9.106 -10.770   1.127  0.00  0.00    -0.349 OA
ATOM    112  C2  NAG d1179       9.064 -13.088   1.567  0.00  0.00     0.087 C 
ATOM    113  C8  NAG d1179       9.972 -15.950   3.830  0.00  0.00    -0.003 C 
ATOM    114  C7  NAG d1179       9.108 -15.018   3.050  0.00  0.00     0.214 C 
ATOM    115  C3  NAG d1179       8.836 -13.397   0.078  0.00  0.00     0.093 C 
ATOM    116  O3  NAG d1179       7.936 -14.487  -0.059  0.00  0.00    -0.348 OA
ATOM    117  O7  NAG d1179       7.885 -15.080   3.131  0.00  0.00    -0.274 OA
ATOM    118  H   NAG d1179       7.229 -12.044  -0.300  0.00  0.00     0.091 H 
ATOM    119  H   NAG d1179      10.732 -14.235   2.175  0.00  0.00     0.163 HD
ATOM    120  H   NAG d1179       8.253  -9.800  -1.889  0.00  0.00     0.078 H 
ATOM    121  H   NAG d1179       9.115  -8.855  -0.694  0.00  0.00     0.078 H 
ATOM    122  H   NAG d1179       9.174 -12.522  -2.329  0.00  0.00     0.210 HD
ATOM    123  H   NAG d1179       6.602 -10.122  -0.318  0.00  0.00     0.209 HD
ATOM    124  H   NAG d1179      10.819 -11.790   1.354  0.00  0.00     0.132 H 
ATOM    125  H   NAG d1179      10.022 -11.089  -0.702  0.00  0.00     0.090 H 
ATOM    126  H   NAG d1179       8.084 -12.997   1.987  0.00  0.00     0.084 H 
ATOM    127  H   NAG d1179      11.001 -15.738   3.626  0.00  0.00     0.040 H 
ATOM    128  H   NAG d1179       9.753 -16.959   3.549  0.00  0.00     0.040 H 
ATOM    129  H   NAG d1179       9.783 -15.822   4.875  0.00  0.00     0.040 H 
ATOM    130  H   NAG d1179       9.778 -13.643  -0.364  0.00  0.00     0.091 H 
ATOM    131  O5  BDP d1180       8.532 -15.328  -2.121  0.00  0.00    -0.340 OA
ATOM    132  O6A BDP d1180      10.270 -16.079  -4.884  0.00  0.00    -0.646 OA
ATOM    133  O2  BDP d1180       7.952 -17.213   0.923  0.00  0.00    -0.388 OA
ATOM    134  O3  BDP d1180       6.906 -18.957  -1.203  0.00  0.00    -0.390 OA
ATOM    135  C5  BDP d1180       9.025 -16.399  -2.897  0.00  0.00     0.152 C 
ATOM    136  C2  BDP d1180       7.679 -16.832  -0.408  0.00  0.00     0.110 C 
ATOM    137  C3  BDP d1180       7.970 -18.028  -1.311  0.00  0.00     0.092 C 
ATOM    138  C6  BDP d1180       9.160 -15.919  -4.334  0.00  0.00     0.206 C 
ATOM    139  C1  BDP d1180       8.524 -15.603  -0.742  0.00  0.00     0.160 C 
ATOM    140  C4  BDP d1180       8.094 -17.594  -2.762  0.00  0.00     0.103 C 
ATOM    141  O6B BDP d1180       8.158 -15.376  -4.868  0.00  0.00    -0.646 OA
ATOM    142  O4  BDP d1180       8.625 -18.669  -3.488  0.00  0.00    -0.348 OA
ATOM    143  H   BDP d1180       7.773 -16.467   1.516  0.00  0.00     0.210 HD
ATOM    144  H   BDP d1180       6.817 -19.240  -0.280  0.00  0.00     0.210 HD
ATOM    145  H   BDP d1180       9.989 -16.716  -2.558  0.00  0.00     0.104 H 
ATOM    146  H   BDP d1180       6.653 -16.560  -0.554  0.00  0.00     0.094 H 
ATOM    147  H   BDP d1180       8.893 -18.471  -1.003  0.00  0.00     0.091 H 
ATOM    148  H   BDP d1180       9.535 -15.782  -0.440  0.00  0.00     0.133 H 
ATOM    149  H   BDP d1180       7.131 -17.310  -3.132  0.00  0.00     0.092 H 
ATOM    150  C3  BDP d1176      15.263 -10.419  13.658  0.00  0.00     0.092 C 
ATOM    151  O4  BDP d1176      13.760 -10.423  11.699  0.00  0.00    -0.348 OA
ATOM    152  O3  BDP d1176      16.452 -10.102  12.945  0.00  0.00    -0.390 OA
ATOM    153  O5  BDP d1176      13.556 -12.392  14.831  0.00  0.00    -0.340 OA
ATOM    154  O2  BDP d1176      16.408 -10.380  15.776  0.00  0.00    -0.388 OA
ATOM    155  C1  BDP d1176      14.431 -11.714  15.707  0.00  0.00     0.160 C 
ATOM    156  O6B BDP d1176      11.003 -12.217  12.787  0.00  0.00    -0.646 OA
ATOM    157  C5  BDP d1176      13.113 -11.641  13.695  0.00  0.00     0.152 C 
ATOM    158  O6A BDP d1176      12.645 -13.710  12.600  0.00  0.00    -0.646 OA
ATOM    159  C6  BDP d1176      12.194 -12.591  12.963  0.00  0.00     0.206 C 
ATOM    160  C4  BDP d1176      14.258 -11.189  12.785  0.00  0.00     0.103 C 
ATOM    161  C2  BDP d1176      15.641 -11.208  14.918  0.00  0.00     0.110 C 
ATOM    162  H   BDP d1176      14.771  -9.512  13.942  0.00  0.00     0.091 H 
ATOM    163  H   BDP d1176      16.902 -10.921  12.685  0.00  0.00     0.210 HD
ATOM    164  H   BDP d1176      17.182 -10.047  15.296  0.00  0.00     0.210 HD
ATOM    165  H   BDP d1176      13.904 -10.900  16.160  0.00  0.00     0.133 H 
ATOM    166  H   BDP d1176      12.638 -10.732  13.998  0.00  0.00     0.104 H 
ATOM    167  H   BDP d1176      14.758 -12.025  12.340  0.00  0.00     0.092 H 
ATOM    168  H   BDP d1176      16.194 -12.062  14.586  0.00  0.00     0.094 H 
ENDROOT
TORSDOF 43
ENDMDL
MODEL 29
REMARK VINA RESULT:      -6.7      6.269     10.751
REMARK  0 active torsions:
REMARK  status: ('A' for Active; 'I' for Inactive)
REMARK       I    between atoms: C3_1  and  O3_90 
REMARK       I    between atoms: O1_4  and  C1_76 
REMARK       I    between atoms: C2_5  and  N2_21 
REMARK       I    between atoms: C8_6  and  C7_66 
REMARK       I    between atoms: C4_7  and  O4_24 
REMARK       I    between atoms: N2_9  and  C2_60 
REMARK       I    between atoms: N2_9  and  C7_69 
REMARK       I    between atoms: O4_12  and  C4_26 
REMARK       I    between atoms: O3_13  and  C3_65 
REMARK       I    between atoms: O3_13  and  C1_61 
REMARK       I    between atoms: C3_14  and  O3_35 
REMARK       I    between atoms: C6_15  and  C5_53 
REMARK       I    between atoms: C6_15  and  O6_46 
REMARK       I    between atoms: O6_16  and  C6_54 
REMARK       I    between atoms: C4_17  and  O4_49 
REMARK       I    between atoms: O4_18  and  C4_28 
REMARK       I    between atoms: O4_18  and  C1_47 
REMARK       I    between atoms: C3_19  and  O3_43 
REMARK       I    between atoms: C1_20  and  O4_91 
REMARK       I    between atoms: N2_21  and  C7_66 
REMARK       I    between atoms: O3_22  and  C3_82 
REMARK       I    between atoms: C7_23  and  C8_62 
REMARK       I    between atoms: C7_23  and  N2_51 
REMARK       I    between atoms: C2_25  and  N2_41 
REMARK       I    between atoms: C1_27  and  O3_90 
REMARK       I    between atoms: O6_29  and  C6_74 
REMARK       I    between atoms: O2_30  and  C2_37 
REMARK       I    between atoms: C2_31  and  O2_42 
REMARK       I    between atoms: O3_32  and  C3_45 
REMARK       I    between atoms: O4_33  and  C4_73 
REMARK       I    between atoms: O4_34  and  C4_84 
REMARK       I    between atoms: O4_34  and  C1_85 
REMARK       I    between atoms: C5_36  and  C6_48 
REMARK       I    between atoms: C6_38  and  C5_40 
REMARK       I    between atoms: C6_38  and  O6_89 
REMARK       I    between atoms: N2_41  and  C7_50 
REMARK       I    between atoms: C5_44  and  C6_74 
REMARK       I    between atoms: C7_50  and  C8_75 
REMARK       I    between atoms: N2_51  and  C2_58 
REMARK       I    between atoms: C1_52  and  O3_87 
REMARK       I    between atoms: C6_54  and  C5_86 
REMARK       I    between atoms: O2_59  and  C2_93 
REMARK       I    between atoms: C8_64  and  C7_69 
REMARK       I    between atoms: C6_70  and  C5_80 
REMARK       I    between atoms: C4_72  and  O4_91 
REMARK       I    between atoms: C5_77  and  C6_79 
REMARK       I    between atoms: C3_83  and  O3_87 
ROOT
ATOM      1  C3  NAG d1177      12.971 -16.215   1.776  0.00  0.00     0.093 C 
ATOM      2  O7  NAG d1177      15.206 -13.096   1.224  0.00  0.00    -0.274 OA
ATOM      3  C4  NAG d1177      13.247 -17.600   2.388  0.00  0.00     0.089 C 
ATOM      4  C2  NAG d1177      13.652 -15.130   2.594  0.00  0.00     0.087 C 
ATOM      5  C6  NAG d1177      13.355 -18.939   4.557  0.00  0.00     0.043 C 
ATOM      6  C5  NAG d1177      12.969 -17.612   3.883  0.00  0.00     0.089 C 
ATOM      7  N2  NAG d1177      13.221 -13.780   2.189  0.00  0.00    -0.349 N 
ATOM      8  O4  NAG d1177      12.460 -18.590   1.754  0.00  0.00    -0.390 OA
ATOM      9  C7  NAG d1177      13.991 -12.898   1.546  0.00  0.00     0.214 C 
ATOM     10  O5  NAG d1177      13.692 -16.566   4.519  0.00  0.00    -0.349 OA
ATOM     11  C8  NAG d1177      13.276 -11.597   1.291  0.00  0.00    -0.003 C 
ATOM     12  C1  NAG d1177      13.323 -15.281   4.078  0.00  0.00     0.154 C 
ATOM     13  O6  NAG d1177      14.748 -19.174   4.456  0.00  0.00    -0.398 OA
ATOM     14  O3  NAG d1177      13.515 -16.156   0.486  0.00  0.00    -0.348 OA
ATOM     15  H   NAG d1177      11.911 -16.066   1.761  0.00  0.00     0.091 H 
ATOM     16  H   NAG d1177      14.283 -17.817   2.233  0.00  0.00     0.091 H 
ATOM     17  H   NAG d1177      14.701 -15.244   2.420  0.00  0.00     0.084 H 
ATOM     18  H   NAG d1177      12.829 -19.740   4.081  0.00  0.00     0.078 H 
ATOM     19  H   NAG d1177      13.093 -18.883   5.593  0.00  0.00     0.078 H 
ATOM     20  H   NAG d1177      11.913 -17.478   3.992  0.00  0.00     0.090 H 
ATOM     21  H   NAG d1177      12.299 -13.509   2.407  0.00  0.00     0.163 HD
ATOM     22  H   NAG d1177      11.520 -18.395   1.893  0.00  0.00     0.210 HD
ATOM     23  H   NAG d1177      13.931 -10.926   0.775  0.00  0.00     0.040 H 
ATOM     24  H   NAG d1177      12.982 -11.163   2.223  0.00  0.00     0.040 H 
ATOM     25  H   NAG d1177      12.407 -11.778   0.692  0.00  0.00     0.040 H 
ATOM     26  H   NAG d1177      12.271 -15.166   4.232  0.00  0.00     0.132 H 
ATOM     27  H   NAG d1177      15.000 -19.227   3.520  0.00  0.00     0.209 HD
ATOM     28  O6A BDP d1178      10.068 -18.750  -1.587  0.00  0.00    -0.646 OA
ATOM     29  O4  BDP d1178      10.201 -15.374  -3.760  0.00  0.00    -0.348 OA
ATOM     30  O3  BDP d1178      13.011 -15.058  -4.084  0.00  0.00    -0.390 OA
ATOM     31  C1  BDP d1178      12.550 -15.769  -0.502  0.00  0.00     0.160 C 
ATOM     32  C4  BDP d1178      11.153 -16.042  -2.966  0.00  0.00     0.103 C 
ATOM     33  C2  BDP d1178      13.306 -15.552  -1.796  0.00  0.00     0.110 C 
ATOM     34  O2  BDP d1178      14.313 -14.589  -1.622  0.00  0.00    -0.388 OA
ATOM     35  O6B BDP d1178       8.381 -17.359  -2.036  0.00  0.00    -0.646 OA
ATOM     36  O5  BDP d1178      11.573 -16.772  -0.710  0.00  0.00    -0.340 OA
ATOM     37  C6  BDP d1178       9.590 -17.593  -1.758  0.00  0.00     0.206 C 
ATOM     38  C5  BDP d1178      10.554 -16.407  -1.618  0.00  0.00     0.152 C 
ATOM     39  C3  BDP d1178      12.339 -15.065  -2.838  0.00  0.00     0.092 C 
ATOM     40  H   BDP d1178      12.406 -14.747  -4.776  0.00  0.00     0.210 HD
ATOM     41  H   BDP d1178      12.042 -14.887  -0.173  0.00  0.00     0.133 H 
ATOM     42  H   BDP d1178      11.475 -16.966  -3.399  0.00  0.00     0.092 H 
ATOM     43  H   BDP d1178      13.758 -16.473  -2.100  0.00  0.00     0.094 H 
ATOM     44  H   BDP d1178      13.913 -13.749  -1.345  0.00  0.00     0.210 HD
ATOM     45  H   BDP d1178      10.026 -15.551  -1.254  0.00  0.00     0.104 H 
ATOM     46  H   BDP d1178      11.983 -14.093  -2.563  0.00  0.00     0.091 H 
ATOM     47  O1  NAG d1175      13.790  -9.854  14.038  0.00  0.00    -0.369 OA
ATOM     48  O3  NAG d1175      13.460 -12.230  10.017  0.00  0.00    -0.348 OA
ATOM     49  O6  NAG d1175      11.549  -6.500  11.065  0.00  0.00    -0.398 OA
ATOM     50  C7  NAG d1175      14.614 -13.278  12.677  0.00  0.00     0.214 C 
ATOM     51  O4  NAG d1175      12.471  -9.717   8.723  0.00  0.00    -0.390 OA
ATOM     52  N2  NAG d1175      14.662 -11.944  12.573  0.00  0.00    -0.349 N 
ATOM     53  C6  NAG d1175      11.312  -7.808  10.619  0.00  0.00     0.043 C 
ATOM     54  C2  NAG d1175      13.592 -11.084  12.041  0.00  0.00     0.087 C 
ATOM     55  C8  NAG d1175      13.282 -13.956  12.668  0.00  0.00    -0.003 C 
ATOM     56  O7  NAG d1175      15.645 -13.960  12.783  0.00  0.00    -0.274 OA
ATOM     57  C3  NAG d1175      13.631 -10.923  10.529  0.00  0.00     0.093 C 
ATOM     58  C4  NAG d1175      12.497  -9.969  10.128  0.00  0.00     0.089 C 
ATOM     59  C1  NAG d1175      13.730  -9.696  12.649  0.00  0.00     0.151 C 
ATOM     60  C5  NAG d1175      12.538  -8.657  10.921  0.00  0.00     0.089 C 
ATOM     61  O5  NAG d1175      12.609  -8.890  12.315  0.00  0.00    -0.349 OA
ATOM     62  H   NAG d1175      14.555 -10.404  14.269  0.00  0.00     0.212 HD
ATOM     63  H   NAG d1175      10.773  -5.950  10.877  0.00  0.00     0.209 HD
ATOM     64  H   NAG d1175      12.446 -10.559   8.243  0.00  0.00     0.210 HD
ATOM     65  H   NAG d1175      15.485 -11.499  12.879  0.00  0.00     0.163 HD
ATOM     66  H   NAG d1175      11.130  -7.802   9.565  0.00  0.00     0.078 H 
ATOM     67  H   NAG d1175      10.457  -8.214  11.119  0.00  0.00     0.078 H 
ATOM     68  H   NAG d1175      12.669 -11.560  12.296  0.00  0.00     0.084 H 
ATOM     69  H   NAG d1175      12.509 -13.222  12.571  0.00  0.00     0.040 H 
ATOM     70  H   NAG d1175      13.150 -14.495  13.583  0.00  0.00     0.040 H 
ATOM     71  H   NAG d1175      13.234 -14.636  11.843  0.00  0.00     0.040 H 
ATOM     72  H   NAG d1175      14.540 -10.504  10.149  0.00  0.00     0.091 H 
ATOM     73  H   NAG d1175      11.585 -10.471  10.379  0.00  0.00     0.091 H 
ATOM     74  H   NAG d1175      14.609  -9.215  12.273  0.00  0.00     0.132 H 
ATOM     75  H   NAG d1175      13.421  -8.136  10.616  0.00  0.00     0.090 H 
ATOM     76  C2  NAG d1181      -0.561 -17.576  -8.874  0.00  0.00     0.087 C 
ATOM     77  C8  NAG d1181      -1.341 -19.917  -7.275  0.00  0.00    -0.003 C 
ATOM     78  O5  NAG d1181       0.120 -15.222  -8.863  0.00  0.00    -0.349 OA
ATOM     79  O4  NAG d1181      -3.243 -15.501 -10.329  0.00  0.00    -0.390 OA
ATOM     80  C3  NAG d1181      -1.648 -17.243  -9.883  0.00  0.00     0.086 C 
ATOM     81  C1  NAG d1181       0.584 -16.562  -8.928  0.00  0.00     0.154 C 
ATOM     82  N2  NAG d1181      -0.044 -18.917  -9.088  0.00  0.00    -0.349 N 
ATOM     83  C4  NAG d1181      -2.115 -15.832  -9.549  0.00  0.00     0.089 C 
ATOM     84  O6  NAG d1181      -1.063 -12.875  -8.436  0.00  0.00    -0.398 OA
ATOM     85  O3  NAG d1181      -2.707 -18.185  -9.847  0.00  0.00    -0.391 OA
ATOM     86  C5  NAG d1181      -0.915 -14.898  -9.788  0.00  0.00     0.089 C 
ATOM     87  O7  NAG d1181       0.730 -20.757  -8.042  0.00  0.00    -0.274 OA
ATOM     88  C7  NAG d1181      -0.132 -19.890  -8.169  0.00  0.00     0.214 C 
ATOM     89  C6  NAG d1181      -1.251 -13.401  -9.734  0.00  0.00     0.043 C 
ATOM     90  H   NAG d1181      -1.007 -17.528  -7.903  0.00  0.00     0.084 H 
ATOM     91  H   NAG d1181      -1.983 -19.096  -7.519  0.00  0.00     0.040 H 
ATOM     92  H   NAG d1181      -1.031 -19.835  -6.253  0.00  0.00     0.040 H 
ATOM     93  H   NAG d1181      -1.867 -20.837  -7.415  0.00  0.00     0.040 H 
ATOM     94  H   NAG d1181      -3.963 -16.121 -10.136  0.00  0.00     0.210 HD
ATOM     95  H   NAG d1181      -1.274 -17.291 -10.884  0.00  0.00     0.090 H 
ATOM     96  H   NAG d1181       1.122 -16.612  -9.852  0.00  0.00     0.132 H 
ATOM     97  H   NAG d1181       0.392 -19.121  -9.948  0.00  0.00     0.163 HD
ATOM     98  H   NAG d1181      -2.430 -15.738  -8.531  0.00  0.00     0.091 H 
ATOM     99  H   NAG d1181      -1.282 -11.930  -8.435  0.00  0.00     0.209 HD
ATOM    100  H   NAG d1181      -3.098 -18.198  -8.960  0.00  0.00     0.210 HD
ATOM    101  H   NAG d1181      -0.588 -15.068 -10.793  0.00  0.00     0.090 H 
ATOM    102  H   NAG d1181      -0.616 -12.878 -10.417  0.00  0.00     0.078 H 
ATOM    103  H   NAG d1181      -2.280 -13.278 -10.000  0.00  0.00     0.078 H 
ATOM    104  C4  NAG d1179       8.437 -15.983  -7.484  0.00  0.00     0.089 C 
ATOM    105  N2  NAG d1179       7.483 -15.418  -3.832  0.00  0.00    -0.349 N 
ATOM    106  C6  NAG d1179      10.773 -16.626  -8.221  0.00  0.00     0.043 C 
ATOM    107  O4  NAG d1179       7.810 -16.720  -8.529  0.00  0.00    -0.390 OA
ATOM    108  O6  NAG d1179      11.206 -15.301  -8.449  0.00  0.00    -0.398 OA
ATOM    109  C1  NAG d1179       9.586 -16.094  -4.832  0.00  0.00     0.154 C 
ATOM    110  C5  NAG d1179       9.752 -16.654  -7.095  0.00  0.00     0.089 C 
ATOM    111  O5  NAG d1179      10.339 -15.974  -6.001  0.00  0.00    -0.349 OA
ATOM    112  C2  NAG d1179       8.262 -15.371  -5.056  0.00  0.00     0.087 C 
ATOM    113  C8  NAG d1179       6.247 -14.509  -2.001  0.00  0.00    -0.003 C 
ATOM    114  C7  NAG d1179       6.874 -14.339  -3.344  0.00  0.00     0.214 C 
ATOM    115  C3  NAG d1179       7.511 -15.931  -6.275  0.00  0.00     0.093 C 
ATOM    116  O3  NAG d1179       6.405 -15.097  -6.588  0.00  0.00    -0.348 OA
ATOM    117  O7  NAG d1179       6.803 -13.268  -3.937  0.00  0.00    -0.274 OA
ATOM    118  H   NAG d1179       8.639 -14.988  -7.822  0.00  0.00     0.091 H 
ATOM    119  H   NAG d1179       7.403 -16.272  -3.349  0.00  0.00     0.163 HD
ATOM    120  H   NAG d1179      10.326 -17.012  -9.113  0.00  0.00     0.078 H 
ATOM    121  H   NAG d1179      11.613 -17.229  -7.947  0.00  0.00     0.078 H 
ATOM    122  H   NAG d1179       7.627 -17.622  -8.224  0.00  0.00     0.210 HD
ATOM    123  H   NAG d1179      10.446 -14.751  -8.697  0.00  0.00     0.209 HD
ATOM    124  H   NAG d1179       9.486 -17.134  -4.603  0.00  0.00     0.132 H 
ATOM    125  H   NAG d1179       9.509 -17.668  -6.855  0.00  0.00     0.090 H 
ATOM    126  H   NAG d1179       8.448 -14.343  -5.289  0.00  0.00     0.084 H 
ATOM    127  H   NAG d1179       6.417 -15.506  -1.651  0.00  0.00     0.040 H 
ATOM    128  H   NAG d1179       5.194 -14.331  -2.074  0.00  0.00     0.040 H 
ATOM    129  H   NAG d1179       6.680 -13.812  -1.314  0.00  0.00     0.040 H 
ATOM    130  H   NAG d1179       7.170 -16.916  -6.038  0.00  0.00     0.091 H 
ATOM    131  O5  BDP d1180       4.997 -16.573  -7.663  0.00  0.00    -0.340 OA
ATOM    132  O6A BDP d1180       3.497 -19.388  -8.685  0.00  0.00    -0.646 OA
ATOM    133  O2  BDP d1180       4.105 -14.194  -5.074  0.00  0.00    -0.388 OA
ATOM    134  O3  BDP d1180       1.770 -14.206  -6.864  0.00  0.00    -0.390 OA
ATOM    135  C5  BDP d1180       3.757 -17.244  -7.716  0.00  0.00     0.152 C 
ATOM    136  C2  BDP d1180       4.057 -14.732  -6.378  0.00  0.00     0.110 C 
ATOM    137  C3  BDP d1180       2.654 -15.284  -6.611  0.00  0.00     0.092 C 
ATOM    138  C6  BDP d1180       3.783 -18.192  -8.906  0.00  0.00     0.206 C 
ATOM    139  C1  BDP d1180       5.152 -15.791  -6.505  0.00  0.00     0.160 C 
ATOM    140  C4  BDP d1180       2.632 -16.224  -7.804  0.00  0.00     0.103 C 
ATOM    141  O6B BDP d1180       4.110 -17.720 -10.026  0.00  0.00    -0.646 OA
ATOM    142  O4  BDP d1180       1.404 -16.899  -7.796  0.00  0.00    -0.348 OA
ATOM    143  H   BDP d1180       4.991 -13.836  -4.904  0.00  0.00     0.210 HD
ATOM    144  H   BDP d1180       1.777 -13.599  -6.107  0.00  0.00     0.210 HD
ATOM    145  H   BDP d1180       3.585 -17.821  -6.832  0.00  0.00     0.104 H 
ATOM    146  H   BDP d1180       4.243 -13.994  -7.132  0.00  0.00     0.094 H 
ATOM    147  H   BDP d1180       2.351 -15.826  -5.739  0.00  0.00     0.091 H 
ATOM    148  H   BDP d1180       5.103 -16.446  -5.660  0.00  0.00     0.133 H 
ATOM    149  H   BDP d1180       2.762 -15.659  -8.703  0.00  0.00     0.092 H 
ATOM    150  C3  BDP d1176      14.644 -14.470   7.201  0.00  0.00     0.092 C 
ATOM    151  O4  BDP d1176      14.003 -14.262   4.825  0.00  0.00    -0.348 OA
ATOM    152  O3  BDP d1176      14.765 -15.887   7.208  0.00  0.00    -0.390 OA
ATOM    153  O5  BDP d1176      13.069 -12.138   7.713  0.00  0.00    -0.340 OA
ATOM    154  O2  BDP d1176      15.355 -14.301   9.495  0.00  0.00    -0.388 OA
ATOM    155  C1  BDP d1176      14.006 -12.498   8.706  0.00  0.00     0.160 C 
ATOM    156  O6B BDP d1176      12.543 -11.126   4.643  0.00  0.00    -0.646 OA
ATOM    157  C5  BDP d1176      13.428 -12.483   6.371  0.00  0.00     0.152 C 
ATOM    158  O6A BDP d1176      11.112 -12.379   5.801  0.00  0.00    -0.646 OA
ATOM    159  C6  BDP d1176      12.275 -11.970   5.539  0.00  0.00     0.206 C 
ATOM    160  C4  BDP d1176      13.616 -13.988   6.163  0.00  0.00     0.103 C 
ATOM    161  C2  BDP d1176      14.284 -14.000   8.616  0.00  0.00     0.110 C 
ATOM    162  H   BDP d1176      15.579 -14.039   6.911  0.00  0.00     0.091 H 
ATOM    163  H   BDP d1176      13.919 -16.283   7.470  0.00  0.00     0.210 HD
ATOM    164  H   BDP d1176      15.550 -15.250   9.454  0.00  0.00     0.210 HD
ATOM    165  H   BDP d1176      14.902 -11.934   8.555  0.00  0.00     0.133 H 
ATOM    166  H   BDP d1176      14.372 -12.056   6.104  0.00  0.00     0.104 H 
ATOM    167  H   BDP d1176      12.701 -14.522   6.310  0.00  0.00     0.092 H 
ATOM    168  H   BDP d1176      13.386 -14.515   8.887  0.00  0.00     0.094 H 
ENDROOT
TORSDOF 43
ENDMDL
MODEL 30
REMARK VINA RESULT:      -6.6      2.876      3.296
REMARK  0 active torsions:
REMARK  status: ('A' for Active; 'I' for Inactive)
REMARK       I    between atoms: C3_1  and  O3_90 
REMARK       I    between atoms: O1_4  and  C1_76 
REMARK       I    between atoms: C2_5  and  N2_21 
REMARK       I    between atoms: C8_6  and  C7_66 
REMARK       I    between atoms: C4_7  and  O4_24 
REMARK       I    between atoms: N2_9  and  C2_60 
REMARK       I    between atoms: N2_9  and  C7_69 
REMARK       I    between atoms: O4_12  and  C4_26 
REMARK       I    between atoms: O3_13  and  C3_65 
REMARK       I    between atoms: O3_13  and  C1_61 
REMARK       I    between atoms: C3_14  and  O3_35 
REMARK       I    between atoms: C6_15  and  C5_53 
REMARK       I    between atoms: C6_15  and  O6_46 
REMARK       I    between atoms: O6_16  and  C6_54 
REMARK       I    between atoms: C4_17  and  O4_49 
REMARK       I    between atoms: O4_18  and  C4_28 
REMARK       I    between atoms: O4_18  and  C1_47 
REMARK       I    between atoms: C3_19  and  O3_43 
REMARK       I    between atoms: C1_20  and  O4_91 
REMARK       I    between atoms: N2_21  and  C7_66 
REMARK       I    between atoms: O3_22  and  C3_82 
REMARK       I    between atoms: C7_23  and  C8_62 
REMARK       I    between atoms: C7_23  and  N2_51 
REMARK       I    between atoms: C2_25  and  N2_41 
REMARK       I    between atoms: C1_27  and  O3_90 
REMARK       I    between atoms: O6_29  and  C6_74 
REMARK       I    between atoms: O2_30  and  C2_37 
REMARK       I    between atoms: C2_31  and  O2_42 
REMARK       I    between atoms: O3_32  and  C3_45 
REMARK       I    between atoms: O4_33  and  C4_73 
REMARK       I    between atoms: O4_34  and  C4_84 
REMARK       I    between atoms: O4_34  and  C1_85 
REMARK       I    between atoms: C5_36  and  C6_48 
REMARK       I    between atoms: C6_38  and  C5_40 
REMARK       I    between atoms: C6_38  and  O6_89 
REMARK       I    between atoms: N2_41  and  C7_50 
REMARK       I    between atoms: C5_44  and  C6_74 
REMARK       I    between atoms: C7_50  and  C8_75 
REMARK       I    between atoms: N2_51  and  C2_58 
REMARK       I    between atoms: C1_52  and  O3_87 
REMARK       I    between atoms: C6_54  and  C5_86 
REMARK       I    between atoms: O2_59  and  C2_93 
REMARK       I    between atoms: C8_64  and  C7_69 
REMARK       I    between atoms: C6_70  and  C5_80 
REMARK       I    between atoms: C4_72  and  O4_91 
REMARK       I    between atoms: C5_77  and  C6_79 
REMARK       I    between atoms: C3_83  and  O3_87 
ROOT
ATOM      1  C3  NAG d1177      12.399 -11.474  10.688  0.00  0.00     0.093 C 
ATOM      2  O7  NAG d1177      10.188  -8.294  10.498  0.00  0.00    -0.274 OA
ATOM      3  C4  NAG d1177      13.583 -11.867  11.589  0.00  0.00     0.089 C 
ATOM      4  C2  NAG d1177      11.325 -10.770  11.502  0.00  0.00     0.087 C 
ATOM      5  C6  NAG d1177      14.250 -12.883  13.832  0.00  0.00     0.043 C 
ATOM      6  C5  NAG d1177      13.111 -12.587  12.843  0.00  0.00     0.089 C 
ATOM      7  N2  NAG d1177      10.079 -10.590  10.736  0.00  0.00    -0.349 N 
ATOM      8  O4  NAG d1177      14.491 -12.692  10.885  0.00  0.00    -0.390 OA
ATOM      9  C7  NAG d1177       9.623  -9.416  10.292  0.00  0.00     0.214 C 
ATOM     10  O5  NAG d1177      12.135 -11.801  13.515  0.00  0.00    -0.349 OA
ATOM     11  C8  NAG d1177       8.312  -9.553   9.563  0.00  0.00    -0.003 C 
ATOM     12  C1  NAG d1177      10.974 -11.577  12.751  0.00  0.00     0.154 C 
ATOM     13  O6  NAG d1177      14.831 -11.684  14.311  0.00  0.00    -0.398 OA
ATOM     14  O3  NAG d1177      12.833 -10.565   9.714  0.00  0.00    -0.348 OA
ATOM     15  H   NAG d1177      12.010 -12.367  10.245  0.00  0.00     0.091 H 
ATOM     16  H   NAG d1177      14.076 -10.964  11.881  0.00  0.00     0.091 H 
ATOM     17  H   NAG d1177      11.732  -9.815  11.764  0.00  0.00     0.084 H 
ATOM     18  H   NAG d1177      15.001 -13.463  13.338  0.00  0.00     0.078 H 
ATOM     19  H   NAG d1177      13.848 -13.423  14.663  0.00  0.00     0.078 H 
ATOM     20  H   NAG d1177      12.703 -13.520  12.516  0.00  0.00     0.090 H 
ATOM     21  H   NAG d1177       9.545 -11.393  10.536  0.00  0.00     0.163 HD
ATOM     22  H   NAG d1177      14.045 -13.512  10.620  0.00  0.00     0.210 HD
ATOM     23  H   NAG d1177       7.988  -8.590   9.228  0.00  0.00     0.040 H 
ATOM     24  H   NAG d1177       7.578  -9.966  10.223  0.00  0.00     0.040 H 
ATOM     25  H   NAG d1177       8.438 -10.200   8.720  0.00  0.00     0.040 H 
ATOM     26  H   NAG d1177      10.572 -12.527  12.469  0.00  0.00     0.132 H 
ATOM     27  H   NAG d1177      15.202 -11.183  13.567  0.00  0.00     0.209 HD
ATOM     28  O6A BDP d1178      14.995 -13.835   6.967  0.00  0.00    -0.646 OA
ATOM     29  O4  BDP d1178      12.491 -11.942   4.459  0.00  0.00    -0.348 OA
ATOM     30  O3  BDP d1178      12.962  -9.230   5.181  0.00  0.00    -0.390 OA
ATOM     31  C1  BDP d1178      12.516 -10.992   8.381  0.00  0.00     0.160 C 
ATOM     32  C4  BDP d1178      13.120 -11.557   5.659  0.00  0.00     0.103 C 
ATOM     33  C2  BDP d1178      12.856  -9.842   7.456  0.00  0.00     0.110 C 
ATOM     34  O2  BDP d1178      12.153  -8.686   7.832  0.00  0.00    -0.388 OA
ATOM     35  O6B BDP d1178      13.421 -14.750   5.675  0.00  0.00    -0.646 OA
ATOM     36  O5  BDP d1178      13.273 -12.124   7.995  0.00  0.00    -0.340 OA
ATOM     37  C6  BDP d1178      13.851 -13.833   6.429  0.00  0.00     0.206 C 
ATOM     38  C5  BDP d1178      12.941 -12.632   6.718  0.00  0.00     0.152 C 
ATOM     39  C3  BDP d1178      12.460 -10.222   6.057  0.00  0.00     0.092 C 
ATOM     40  H   BDP d1178      12.720  -9.453   4.268  0.00  0.00     0.210 HD
ATOM     41  H   BDP d1178      11.482 -11.263   8.334  0.00  0.00     0.133 H 
ATOM     42  H   BDP d1178      14.178 -11.434   5.548  0.00  0.00     0.092 H 
ATOM     43  H   BDP d1178      13.905  -9.642   7.513  0.00  0.00     0.094 H 
ATOM     44  H   BDP d1178      11.199  -8.857   7.785  0.00  0.00     0.210 HD
ATOM     45  H   BDP d1178      11.917 -12.939   6.699  0.00  0.00     0.104 H 
ATOM     46  H   BDP d1178      11.395 -10.311   6.003  0.00  0.00     0.091 H 
ATOM     47  O1  NAG d1175       3.267 -12.516  21.034  0.00  0.00    -0.369 OA
ATOM     48  O3  NAG d1175       6.517 -12.323  17.667  0.00  0.00    -0.348 OA
ATOM     49  O6  NAG d1175       0.438 -12.500  16.898  0.00  0.00    -0.398 OA
ATOM     50  C7  NAG d1175       7.028 -12.464  20.705  0.00  0.00     0.214 C 
ATOM     51  O4  NAG d1175       4.302 -11.986  15.680  0.00  0.00    -0.390 OA
ATOM     52  N2  NAG d1175       5.828 -11.957  20.397  0.00  0.00    -0.349 N 
ATOM     53  C6  NAG d1175       1.721 -12.996  16.630  0.00  0.00     0.043 C 
ATOM     54  C2  NAG d1175       4.920 -12.466  19.357  0.00  0.00     0.087 C 
ATOM     55  C8  NAG d1175       7.341 -13.870  20.306  0.00  0.00    -0.003 C 
ATOM     56  O7  NAG d1175       7.881 -11.798  21.312  0.00  0.00    -0.274 OA
ATOM     57  C3  NAG d1175       5.200 -11.906  17.971  0.00  0.00     0.093 C 
ATOM     58  C4  NAG d1175       4.152 -12.485  17.010  0.00  0.00     0.089 C 
ATOM     59  C1  NAG d1175       3.492 -12.084  19.722  0.00  0.00     0.151 C 
ATOM     60  C5  NAG d1175       2.721 -12.271  17.518  0.00  0.00     0.089 C 
ATOM     61  O5  NAG d1175       2.566 -12.719  18.852  0.00  0.00    -0.349 OA
ATOM     62  H   NAG d1175       3.898 -12.083  21.630  0.00  0.00     0.212 HD
ATOM     63  H   NAG d1175      -0.209 -12.956  16.337  0.00  0.00     0.209 HD
ATOM     64  H   NAG d1175       5.213 -12.132  15.380  0.00  0.00     0.210 HD
ATOM     65  H   NAG d1175       5.527 -11.173  20.912  0.00  0.00     0.163 HD
ATOM     66  H   NAG d1175       1.964 -12.827  15.602  0.00  0.00     0.078 H 
ATOM     67  H   NAG d1175       1.754 -14.047  16.828  0.00  0.00     0.078 H 
ATOM     68  H   NAG d1175       5.070 -13.525  19.319  0.00  0.00     0.084 H 
ATOM     69  H   NAG d1175       6.500 -14.292  19.797  0.00  0.00     0.040 H 
ATOM     70  H   NAG d1175       7.556 -14.449  21.180  0.00  0.00     0.040 H 
ATOM     71  H   NAG d1175       8.192 -13.875  19.657  0.00  0.00     0.040 H 
ATOM     72  H   NAG d1175       5.134 -10.841  17.900  0.00  0.00     0.091 H 
ATOM     73  H   NAG d1175       4.330 -13.540  16.977  0.00  0.00     0.091 H 
ATOM     74  H   NAG d1175       3.361 -11.026  19.632  0.00  0.00     0.132 H 
ATOM     75  H   NAG d1175       2.534 -11.219  17.487  0.00  0.00     0.090 H 
ATOM     76  C2  NAG d1181      13.379 -20.665  -3.904  0.00  0.00     0.087 C 
ATOM     77  C8  NAG d1181      14.924 -22.620  -2.344  0.00  0.00    -0.003 C 
ATOM     78  O5  NAG d1181      11.349 -19.298  -4.043  0.00  0.00    -0.349 OA
ATOM     79  O4  NAG d1181      11.210 -21.932  -6.608  0.00  0.00    -0.390 OA
ATOM     80  C3  NAG d1181      13.089 -21.212  -5.292  0.00  0.00     0.086 C 
ATOM     81  C1  NAG d1181      12.726 -19.297  -3.693  0.00  0.00     0.154 C 
ATOM     82  N2  NAG d1181      14.809 -20.571  -3.670  0.00  0.00    -0.349 N 
ATOM     83  C4  NAG d1181      11.571 -21.276  -5.412  0.00  0.00     0.089 C 
ATOM     84  O6  NAG d1181       8.765 -19.726  -4.513  0.00  0.00    -0.398 OA
ATOM     85  O3  NAG d1181      13.701 -22.474  -5.500  0.00  0.00    -0.391 OA
ATOM     86  C5  NAG d1181      11.058 -19.827  -5.334  0.00  0.00     0.089 C 
ATOM     87  O7  NAG d1181      16.415 -20.803  -2.105  0.00  0.00    -0.274 OA
ATOM     88  C7  NAG d1181      15.437 -21.253  -2.699  0.00  0.00     0.214 C 
ATOM     89  C6  NAG d1181       9.570 -19.659  -5.672  0.00  0.00     0.043 C 
ATOM     90  H   NAG d1181      12.957 -21.351  -3.201  0.00  0.00     0.084 H 
ATOM     91  H   NAG d1181      14.074 -22.851  -2.952  0.00  0.00     0.040 H 
ATOM     92  H   NAG d1181      14.638 -22.637  -1.312  0.00  0.00     0.040 H 
ATOM     93  H   NAG d1181      15.692 -23.344  -2.512  0.00  0.00     0.040 H 
ATOM     94  H   NAG d1181      11.560 -22.836  -6.599  0.00  0.00     0.210 HD
ATOM     95  H   NAG d1181      13.501 -20.581  -6.051  0.00  0.00     0.090 H 
ATOM     96  H   NAG d1181      13.158 -18.545  -4.318  0.00  0.00     0.132 H 
ATOM     97  H   NAG d1181      15.343 -19.979  -4.249  0.00  0.00     0.163 HD
ATOM     98  H   NAG d1181      11.125 -21.846  -4.623  0.00  0.00     0.091 H 
ATOM     99  H   NAG d1181       7.833 -19.617  -4.760  0.00  0.00     0.209 HD
ATOM    100  H   NAG d1181      13.372 -23.105  -4.841  0.00  0.00     0.210 HD
ATOM    101  H   NAG d1181      11.574 -19.277  -6.092  0.00  0.00     0.090 H 
ATOM    102  H   NAG d1181       9.425 -18.709  -6.141  0.00  0.00     0.078 H 
ATOM    103  H   NAG d1181       9.282 -20.455  -6.327  0.00  0.00     0.078 H 
ATOM    104  C4  NAG d1179      13.671 -12.550   0.511  0.00  0.00     0.089 C 
ATOM    105  N2  NAG d1179      11.900 -14.361   3.366  0.00  0.00    -0.349 N 
ATOM    106  C6  NAG d1179      15.035 -10.443   0.843  0.00  0.00     0.043 C 
ATOM    107  O4  NAG d1179      14.496 -13.021  -0.550  0.00  0.00    -0.390 OA
ATOM    108  O6  NAG d1179      13.969  -9.555   0.571  0.00  0.00    -0.398 OA
ATOM    109  C1  NAG d1179      13.312 -12.390   3.376  0.00  0.00     0.154 C 
ATOM    110  C5  NAG d1179      14.502 -11.715   1.481  0.00  0.00     0.089 C 
ATOM    111  O5  NAG d1179      13.706 -11.312   2.581  0.00  0.00    -0.349 OA
ATOM    112  C2  NAG d1179      12.384 -13.267   2.543  0.00  0.00     0.087 C 
ATOM    113  C8  NAG d1179      10.248 -15.742   4.400  0.00  0.00    -0.003 C 
ATOM    114  C7  NAG d1179      10.614 -14.708   3.390  0.00  0.00     0.214 C 
ATOM    115  C3  NAG d1179      13.063 -13.738   1.246  0.00  0.00     0.093 C 
ATOM    116  O3  NAG d1179      12.110 -14.357   0.396  0.00  0.00    -0.348 OA
ATOM    117  O7  NAG d1179       9.766 -14.238   2.638  0.00  0.00    -0.274 OA
ATOM    118  H   NAG d1179      12.888 -11.942   0.107  0.00  0.00     0.091 H 
ATOM    119  H   NAG d1179      12.540 -14.860   3.922  0.00  0.00     0.163 HD
ATOM    120  H   NAG d1179      15.534 -10.687  -0.071  0.00  0.00     0.078 H 
ATOM    121  H   NAG d1179      15.720  -9.973   1.516  0.00  0.00     0.078 H 
ATOM    122  H   NAG d1179      15.206 -13.573  -0.186  0.00  0.00     0.210 HD
ATOM    123  H   NAG d1179      13.344  -9.977  -0.040  0.00  0.00     0.209 HD
ATOM    124  H   NAG d1179      14.191 -12.887   3.726  0.00  0.00     0.132 H 
ATOM    125  H   NAG d1179      15.320 -12.335   1.783  0.00  0.00     0.090 H 
ATOM    126  H   NAG d1179      11.537 -12.695   2.223  0.00  0.00     0.084 H 
ATOM    127  H   NAG d1179      11.119 -16.023   4.955  0.00  0.00     0.040 H 
ATOM    128  H   NAG d1179       9.851 -16.602   3.902  0.00  0.00     0.040 H 
ATOM    129  H   NAG d1179       9.513 -15.345   5.067  0.00  0.00     0.040 H 
ATOM    130  H   NAG d1179      13.832 -14.436   1.503  0.00  0.00     0.091 H 
ATOM    131  O5  BDP d1180      13.443 -15.756  -0.861  0.00  0.00    -0.340 OA
ATOM    132  O6A BDP d1180      15.986 -17.688  -1.873  0.00  0.00    -0.646 OA
ATOM    133  O2  BDP d1180      10.296 -16.592   0.738  0.00  0.00    -0.388 OA
ATOM    134  O3  BDP d1180      10.245 -18.120  -1.775  0.00  0.00    -0.390 OA
ATOM    135  C5  BDP d1180      13.785 -17.064  -1.265  0.00  0.00     0.152 C 
ATOM    136  C2  BDP d1180      11.148 -16.401  -0.371  0.00  0.00     0.110 C 
ATOM    137  C3  BDP d1180      11.389 -17.760  -1.021  0.00  0.00     0.092 C 
ATOM    138  C6  BDP d1180      15.003 -16.976  -2.171  0.00  0.00     0.206 C 
ATOM    139  C1  BDP d1180      12.431 -15.727   0.115  0.00  0.00     0.160 C 
ATOM    140  C4  BDP d1180      12.591 -17.711  -1.950  0.00  0.00     0.103 C 
ATOM    141  O6B BDP d1180      14.955 -16.181  -3.145  0.00  0.00    -0.646 OA
ATOM    142  O4  BDP d1180      12.921 -19.029  -2.294  0.00  0.00    -0.348 OA
ATOM    143  H   BDP d1180      10.129 -15.739   1.169  0.00  0.00     0.210 HD
ATOM    144  H   BDP d1180       9.471 -18.154  -1.190  0.00  0.00     0.210 HD
ATOM    145  H   BDP d1180      14.034 -17.681  -0.428  0.00  0.00     0.104 H 
ATOM    146  H   BDP d1180      10.716 -15.760  -1.112  0.00  0.00     0.094 H 
ATOM    147  H   BDP d1180      11.578 -18.478  -0.251  0.00  0.00     0.091 H 
ATOM    148  H   BDP d1180      12.794 -16.247   0.976  0.00  0.00     0.133 H 
ATOM    149  H   BDP d1180      12.347 -17.130  -2.815  0.00  0.00     0.092 H 
ATOM    150  C3  BDP d1176       9.668 -11.111  15.949  0.00  0.00     0.092 C 
ATOM    151  O4  BDP d1176       9.981 -10.872  13.512  0.00  0.00    -0.348 OA
ATOM    152  O3  BDP d1176      11.013 -11.464  16.248  0.00  0.00    -0.390 OA
ATOM    153  O5  BDP d1176       6.979 -11.921  15.410  0.00  0.00    -0.340 OA
ATOM    154  O2  BDP d1176       9.043 -11.139  18.274  0.00  0.00    -0.388 OA
ATOM    155  C1  BDP d1176       7.262 -11.513  16.732  0.00  0.00     0.160 C 
ATOM    156  O6B BDP d1176       6.765 -11.104  12.246  0.00  0.00    -0.646 OA
ATOM    157  C5  BDP d1176       7.759 -11.293  14.388  0.00  0.00     0.152 C 
ATOM    158  O6A BDP d1176       7.265 -13.149  12.970  0.00  0.00    -0.646 OA
ATOM    159  C6  BDP d1176       7.237 -11.897  13.105  0.00  0.00     0.206 C 
ATOM    160  C4  BDP d1176       9.262 -11.547  14.531  0.00  0.00     0.103 C 
ATOM    161  C2  BDP d1176       8.751 -11.722  17.016  0.00  0.00     0.110 C 
ATOM    162  H   BDP d1176       9.572 -10.045  15.968  0.00  0.00     0.091 H 
ATOM    163  H   BDP d1176      11.105 -12.430  16.232  0.00  0.00     0.210 HD
ATOM    164  H   BDP d1176       9.984 -11.259  18.476  0.00  0.00     0.210 HD
ATOM    165  H   BDP d1176       6.994 -10.482  16.839  0.00  0.00     0.133 H 
ATOM    166  H   BDP d1176       7.662 -10.229  14.431  0.00  0.00     0.104 H 
ATOM    167  H   BDP d1176       9.497 -12.584  14.409  0.00  0.00     0.092 H 
ATOM    168  H   BDP d1176       8.938 -12.776  17.009  0.00  0.00     0.094 H 
ENDROOT
TORSDOF 43
ENDMDL
MODEL 31
REMARK VINA RESULT:      -6.6      5.171      8.118
REMARK  0 active torsions:
REMARK  status: ('A' for Active; 'I' for Inactive)
REMARK       I    between atoms: C3_1  and  O3_90 
REMARK       I    between atoms: O1_4  and  C1_76 
REMARK       I    between atoms: C2_5  and  N2_21 
REMARK       I    between atoms: C8_6  and  C7_66 
REMARK       I    between atoms: C4_7  and  O4_24 
REMARK       I    between atoms: N2_9  and  C2_60 
REMARK       I    between atoms: N2_9  and  C7_69 
REMARK       I    between atoms: O4_12  and  C4_26 
REMARK       I    between atoms: O3_13  and  C3_65 
REMARK       I    between atoms: O3_13  and  C1_61 
REMARK       I    between atoms: C3_14  and  O3_35 
REMARK       I    between atoms: C6_15  and  C5_53 
REMARK       I    between atoms: C6_15  and  O6_46 
REMARK       I    between atoms: O6_16  and  C6_54 
REMARK       I    between atoms: C4_17  and  O4_49 
REMARK       I    between atoms: O4_18  and  C4_28 
REMARK       I    between atoms: O4_18  and  C1_47 
REMARK       I    between atoms: C3_19  and  O3_43 
REMARK       I    between atoms: C1_20  and  O4_91 
REMARK       I    between atoms: N2_21  and  C7_66 
REMARK       I    between atoms: O3_22  and  C3_82 
REMARK       I    between atoms: C7_23  and  C8_62 
REMARK       I    between atoms: C7_23  and  N2_51 
REMARK       I    between atoms: C2_25  and  N2_41 
REMARK       I    between atoms: C1_27  and  O3_90 
REMARK       I    between atoms: O6_29  and  C6_74 
REMARK       I    between atoms: O2_30  and  C2_37 
REMARK       I    between atoms: C2_31  and  O2_42 
REMARK       I    between atoms: O3_32  and  C3_45 
REMARK       I    between atoms: O4_33  and  C4_73 
REMARK       I    between atoms: O4_34  and  C4_84 
REMARK       I    between atoms: O4_34  and  C1_85 
REMARK       I    between atoms: C5_36  and  C6_48 
REMARK       I    between atoms: C6_38  and  C5_40 
REMARK       I    between atoms: C6_38  and  O6_89 
REMARK       I    between atoms: N2_41  and  C7_50 
REMARK       I    between atoms: C5_44  and  C6_74 
REMARK       I    between atoms: C7_50  and  C8_75 
REMARK       I    between atoms: N2_51  and  C2_58 
REMARK       I    between atoms: C1_52  and  O3_87 
REMARK       I    between atoms: C6_54  and  C5_86 
REMARK       I    between atoms: O2_59  and  C2_93 
REMARK       I    between atoms: C8_64  and  C7_69 
REMARK       I    between atoms: C6_70  and  C5_80 
REMARK       I    between atoms: C4_72  and  O4_91 
REMARK       I    between atoms: C5_77  and  C6_79 
REMARK       I    between atoms: C3_83  and  O3_87 
ROOT
ATOM      1  C3  NAG d1177      12.111 -15.020  15.818  0.00  0.00     0.093 C 
ATOM      2  O7  NAG d1177      11.024 -12.547  18.600  0.00  0.00    -0.274 OA
ATOM      3  C4  NAG d1177      13.011 -16.268  15.827  0.00  0.00     0.089 C 
ATOM      4  C2  NAG d1177      11.226 -14.997  17.054  0.00  0.00     0.087 C 
ATOM      5  C6  NAG d1177      13.086 -18.784  16.247  0.00  0.00     0.043 C 
ATOM      6  C5  NAG d1177      12.208 -17.530  16.101  0.00  0.00     0.089 C 
ATOM      7  N2  NAG d1177      10.186 -13.955  16.971  0.00  0.00    -0.349 N 
ATOM      8  O4  NAG d1177      13.690 -16.400  14.593  0.00  0.00    -0.390 OA
ATOM      9  C7  NAG d1177      10.166 -12.842  17.708  0.00  0.00     0.214 C 
ATOM     10  O5  NAG d1177      11.456 -17.375  17.298  0.00  0.00    -0.349 OA
ATOM     11  C8  NAG d1177       8.963 -11.984  17.411  0.00  0.00    -0.003 C 
ATOM     12  C1  NAG d1177      10.510 -16.334  17.235  0.00  0.00     0.154 C 
ATOM     13  O6  NAG d1177      13.954 -18.669  17.360  0.00  0.00    -0.398 OA
ATOM     14  O3  NAG d1177      12.907 -13.868  15.865  0.00  0.00    -0.348 OA
ATOM     15  H   NAG d1177      11.515 -15.048  14.930  0.00  0.00     0.091 H 
ATOM     16  H   NAG d1177      13.725 -16.142  16.614  0.00  0.00     0.091 H 
ATOM     17  H   NAG d1177      11.877 -14.795  17.879  0.00  0.00     0.084 H 
ATOM     18  H   NAG d1177      13.670 -18.907  15.359  0.00  0.00     0.078 H 
ATOM     19  H   NAG d1177      12.449 -19.630  16.397  0.00  0.00     0.078 H 
ATOM     20  H   NAG d1177      11.569 -17.668  15.254  0.00  0.00     0.090 H 
ATOM     21  H   NAG d1177       9.455 -14.090  16.325  0.00  0.00     0.163 HD
ATOM     22  H   NAG d1177      13.045 -16.515  13.879  0.00  0.00     0.210 HD
ATOM     23  H   NAG d1177       8.991 -11.107  18.024  0.00  0.00     0.040 H 
ATOM     24  H   NAG d1177       8.071 -12.537  17.620  0.00  0.00     0.040 H 
ATOM     25  H   NAG d1177       8.973 -11.699  16.380  0.00  0.00     0.040 H 
ATOM     26  H   NAG d1177       9.867 -16.519  16.400  0.00  0.00     0.132 H 
ATOM     27  H   NAG d1177      14.539 -17.904  17.237  0.00  0.00     0.209 HD
ATOM     28  O6A BDP d1178      14.235 -14.040  11.270  0.00  0.00    -0.646 OA
ATOM     29  O4  BDP d1178      12.725 -10.345  11.720  0.00  0.00    -0.348 OA
ATOM     30  O3  BDP d1178      13.930  -9.571  14.179  0.00  0.00    -0.390 OA
ATOM     31  C1  BDP d1178      12.619 -12.955  14.796  0.00  0.00     0.160 C 
ATOM     32  C4  BDP d1178      13.309 -11.258  12.619  0.00  0.00     0.103 C 
ATOM     33  C2  BDP d1178      13.395 -11.685  15.079  0.00  0.00     0.110 C 
ATOM     34  O2  BDP d1178      13.048 -11.167  16.337  0.00  0.00    -0.388 OA
ATOM     35  O6B BDP d1178      12.605 -13.087  10.080  0.00  0.00    -0.646 OA
ATOM     36  O5  BDP d1178      13.026 -13.466  13.540  0.00  0.00    -0.340 OA
ATOM     37  C6  BDP d1178      13.214 -13.305  11.165  0.00  0.00     0.206 C 
ATOM     38  C5  BDP d1178      12.693 -12.637  12.445  0.00  0.00     0.152 C 
ATOM     39  C3  BDP d1178      13.055 -10.673  14.022  0.00  0.00     0.092 C 
ATOM     40  H   BDP d1178      13.731  -8.901  13.506  0.00  0.00     0.210 HD
ATOM     41  H   BDP d1178      11.564 -12.787  14.750  0.00  0.00     0.133 H 
ATOM     42  H   BDP d1178      14.358 -11.387  12.450  0.00  0.00     0.092 H 
ATOM     43  H   BDP d1178      14.443 -11.903  15.072  0.00  0.00     0.094 H 
ATOM     44  H   BDP d1178      12.099 -10.967  16.353  0.00  0.00     0.210 HD
ATOM     45  H   BDP d1178      11.633 -12.514  12.385  0.00  0.00     0.104 H 
ATOM     46  H   BDP d1178      12.026 -10.392  14.119  0.00  0.00     0.091 H 
ATOM     47  O1  NAG d1175       2.045 -21.364  22.884  0.00  0.00    -0.369 OA
ATOM     48  O3  NAG d1175       5.538 -19.454  20.419  0.00  0.00    -0.348 OA
ATOM     49  O6  NAG d1175      -0.178 -17.307  20.959  0.00  0.00    -0.398 OA
ATOM     50  C7  NAG d1175       5.650 -22.084  22.025  0.00  0.00     0.214 C 
ATOM     51  O4  NAG d1175       3.763 -17.096  19.911  0.00  0.00    -0.390 OA
ATOM     52  N2  NAG d1175       4.706 -21.241  22.462  0.00  0.00    -0.349 N 
ATOM     53  C6  NAG d1175       0.910 -17.708  20.172  0.00  0.00     0.043 C 
ATOM     54  C2  NAG d1175       3.802 -20.448  21.614  0.00  0.00     0.087 C 
ATOM     55  C8  NAG d1175       5.555 -22.615  20.631  0.00  0.00    -0.003 C 
ATOM     56  O7  NAG d1175       6.597 -22.434  22.748  0.00  0.00    -0.274 OA
ATOM     57  C3  NAG d1175       4.389 -19.116  21.172  0.00  0.00     0.093 C 
ATOM     58  C4  NAG d1175       3.324 -18.385  20.343  0.00  0.00     0.089 C 
ATOM     59  C1  NAG d1175       2.533 -20.147  22.397  0.00  0.00     0.151 C 
ATOM     60  C5  NAG d1175       1.984 -18.288  21.080  0.00  0.00     0.089 C 
ATOM     61  O5  NAG d1175       1.555 -19.551  21.556  0.00  0.00    -0.349 OA
ATOM     62  H   NAG d1175       2.711 -21.773  23.460  0.00  0.00     0.212 HD
ATOM     63  H   NAG d1175      -0.869 -16.935  20.390  0.00  0.00     0.209 HD
ATOM     64  H   NAG d1175       4.612 -17.182  19.448  0.00  0.00     0.210 HD
ATOM     65  H   NAG d1175       4.608 -21.144  23.436  0.00  0.00     0.163 HD
ATOM     66  H   NAG d1175       1.303 -16.864  19.645  0.00  0.00     0.078 H 
ATOM     67  H   NAG d1175       0.595 -18.445  19.464  0.00  0.00     0.078 H 
ATOM     68  H   NAG d1175       3.621 -21.033  20.737  0.00  0.00     0.084 H 
ATOM     69  H   NAG d1175       4.684 -22.214  20.155  0.00  0.00     0.040 H 
ATOM     70  H   NAG d1175       5.485 -23.683  20.660  0.00  0.00     0.040 H 
ATOM     71  H   NAG d1175       6.427 -22.330  20.080  0.00  0.00     0.040 H 
ATOM     72  H   NAG d1175       4.664 -18.462  21.973  0.00  0.00     0.091 H 
ATOM     73  H   NAG d1175       3.170 -18.980  19.467  0.00  0.00     0.091 H 
ATOM     74  H   NAG d1175       2.745 -19.465  23.194  0.00  0.00     0.132 H 
ATOM     75  H   NAG d1175       2.135 -17.642  21.919  0.00  0.00     0.090 H 
ATOM     76  C2  NAG d1181      11.770  -8.671  -0.242  0.00  0.00     0.087 C 
ATOM     77  C8  NAG d1181      12.458 -11.390  -1.127  0.00  0.00    -0.003 C 
ATOM     78  O5  NAG d1181      10.289  -7.274   1.121  0.00  0.00    -0.349 OA
ATOM     79  O4  NAG d1181       9.621  -6.627  -2.438  0.00  0.00    -0.390 OA
ATOM     80  C3  NAG d1181      11.477  -7.787  -1.443  0.00  0.00     0.086 C 
ATOM     81  C1  NAG d1181      11.553  -7.921   1.073  0.00  0.00     0.154 C 
ATOM     82  N2  NAG d1181      13.126  -9.190  -0.297  0.00  0.00    -0.349 N 
ATOM     83  C4  NAG d1181      10.036  -7.319  -1.281  0.00  0.00     0.089 C 
ATOM     84  O6  NAG d1181       7.765  -6.439   0.990  0.00  0.00    -0.398 OA
ATOM     85  O3  NAG d1181      11.688  -8.472  -2.667  0.00  0.00    -0.391 OA
ATOM     86  C5  NAG d1181       9.990  -6.456  -0.007  0.00  0.00     0.089 C 
ATOM     87  O7  NAG d1181      14.403 -10.992   0.154  0.00  0.00    -0.274 OA
ATOM     88  C7  NAG d1181      13.404 -10.501  -0.368  0.00  0.00     0.214 C 
ATOM     89  C6  NAG d1181       8.672  -5.696   0.201  0.00  0.00     0.043 C 
ATOM     90  H   NAG d1181      11.083  -9.491  -0.280  0.00  0.00     0.084 H 
ATOM     91  H   NAG d1181      11.649 -10.803  -1.512  0.00  0.00     0.040 H 
ATOM     92  H   NAG d1181      12.071 -12.142  -0.471  0.00  0.00     0.040 H 
ATOM     93  H   NAG d1181      12.978 -11.855  -1.937  0.00  0.00     0.040 H 
ATOM     94  H   NAG d1181       9.671  -7.220  -3.204  0.00  0.00     0.210 HD
ATOM     95  H   NAG d1181      12.143  -6.951  -1.481  0.00  0.00     0.090 H 
ATOM     96  H   NAG d1181      12.261  -7.131   1.206  0.00  0.00     0.132 H 
ATOM     97  H   NAG d1181      13.875  -8.551  -0.281  0.00  0.00     0.163 HD
ATOM     98  H   NAG d1181       9.353  -8.136  -1.172  0.00  0.00     0.091 H 
ATOM     99  H   NAG d1181       6.945  -5.933   1.103  0.00  0.00     0.209 HD
ATOM    100  H   NAG d1181      11.111  -9.250  -2.705  0.00  0.00     0.210 HD
ATOM    101  H   NAG d1181      10.729  -5.692  -0.126  0.00  0.00     0.090 H 
ATOM    102  H   NAG d1181       8.880  -4.768   0.690  0.00  0.00     0.078 H 
ATOM    103  H   NAG d1181       8.225  -5.531  -0.757  0.00  0.00     0.078 H 
ATOM    104  C4  NAG d1179      14.077  -7.851   8.670  0.00  0.00     0.089 C 
ATOM    105  N2  NAG d1179      11.537 -10.631   9.291  0.00  0.00    -0.349 N 
ATOM    106  C6  NAG d1179      15.981  -7.336  10.258  0.00  0.00     0.043 C 
ATOM    107  O4  NAG d1179      14.826  -7.485   7.515  0.00  0.00    -0.390 OA
ATOM    108  O6  NAG d1179      15.278  -6.352  10.988  0.00  0.00    -0.398 OA
ATOM    109  C1  NAG d1179      13.478  -9.947  10.571  0.00  0.00     0.154 C 
ATOM    110  C5  NAG d1179      15.016  -8.392   9.745  0.00  0.00     0.089 C 
ATOM    111  O5  NAG d1179      14.270  -8.835  10.864  0.00  0.00    -0.349 OA
ATOM    112  C2  NAG d1179      12.420  -9.511   9.563  0.00  0.00     0.087 C 
ATOM    113  C8  NAG d1179       9.437 -11.761   9.138  0.00  0.00    -0.003 C 
ATOM    114  C7  NAG d1179      10.212 -10.493   9.275  0.00  0.00     0.214 C 
ATOM    115  C3  NAG d1179      13.057  -8.919   8.295  0.00  0.00     0.093 C 
ATOM    116  O3  NAG d1179      12.056  -8.323   7.483  0.00  0.00    -0.348 OA
ATOM    117  O7  NAG d1179       9.637  -9.413   9.352  0.00  0.00    -0.274 OA
ATOM    118  H   NAG d1179      13.568  -6.990   9.051  0.00  0.00     0.091 H 
ATOM    119  H   NAG d1179      11.928 -11.517   9.113  0.00  0.00     0.163 HD
ATOM    120  H   NAG d1179      16.476  -6.876   9.428  0.00  0.00     0.078 H 
ATOM    121  H   NAG d1179      16.702  -7.800  10.898  0.00  0.00     0.078 H 
ATOM    122  H   NAG d1179      15.287  -8.265   7.168  0.00  0.00     0.210 HD
ATOM    123  H   NAG d1179      14.623  -5.928  10.411  0.00  0.00     0.209 HD
ATOM    124  H   NAG d1179      14.118 -10.732  10.227  0.00  0.00     0.132 H 
ATOM    125  H   NAG d1179      15.564  -9.189   9.287  0.00  0.00     0.090 H 
ATOM    126  H   NAG d1179      11.831  -8.720   9.977  0.00  0.00     0.084 H 
ATOM    127  H   NAG d1179      10.114 -12.589   9.087  0.00  0.00     0.040 H 
ATOM    128  H   NAG d1179       8.850 -11.725   8.245  0.00  0.00     0.040 H 
ATOM    129  H   NAG d1179       8.793 -11.878   9.984  0.00  0.00     0.040 H 
ATOM    130  H   NAG d1179      13.540  -9.708   7.760  0.00  0.00     0.091 H 
ATOM    131  O5  BDP d1180      13.020  -8.442   5.392  0.00  0.00    -0.340 OA
ATOM    132  O6A BDP d1180      14.934  -9.369   2.804  0.00  0.00    -0.646 OA
ATOM    133  O2  BDP d1180       9.615  -9.323   6.283  0.00  0.00    -0.388 OA
ATOM    134  O3  BDP d1180       9.365  -8.141   3.600  0.00  0.00    -0.390 OA
ATOM    135  C5  BDP d1180      12.982  -8.922   4.066  0.00  0.00     0.152 C 
ATOM    136  C2  BDP d1180      10.598  -8.565   5.611  0.00  0.00     0.110 C 
ATOM    137  C3  BDP d1180      10.477  -8.852   4.116  0.00  0.00     0.092 C 
ATOM    138  C6  BDP d1180      14.258  -8.481   3.366  0.00  0.00     0.206 C 
ATOM    139  C1  BDP d1180      11.967  -8.930   6.186  0.00  0.00     0.160 C 
ATOM    140  C4  BDP d1180      11.727  -8.408   3.376  0.00  0.00     0.103 C 
ATOM    141  O6B BDP d1180      14.563  -7.261   3.415  0.00  0.00    -0.646 OA
ATOM    142  O4  BDP d1180      11.670  -8.940   2.080  0.00  0.00    -0.348 OA
ATOM    143  H   BDP d1180       9.674  -9.157   7.236  0.00  0.00     0.210 HD
ATOM    144  H   BDP d1180       8.561  -8.417   4.067  0.00  0.00     0.210 HD
ATOM    145  H   BDP d1180      12.936  -9.991   4.037  0.00  0.00     0.104 H 
ATOM    146  H   BDP d1180      10.468  -7.512   5.749  0.00  0.00     0.094 H 
ATOM    147  H   BDP d1180      10.350  -9.905   3.980  0.00  0.00     0.091 H 
ATOM    148  H   BDP d1180      12.056  -9.996   6.226  0.00  0.00     0.133 H 
ATOM    149  H   BDP d1180      11.769  -7.339   3.359  0.00  0.00     0.092 H 
ATOM    150  C3  BDP d1176       9.075 -18.275  19.750  0.00  0.00     0.092 C 
ATOM    151  O4  BDP d1176       9.708 -16.290  18.424  0.00  0.00    -0.348 OA
ATOM    152  O3  BDP d1176      10.205 -19.065  19.401  0.00  0.00    -0.390 OA
ATOM    153  O5  BDP d1176       6.342 -17.564  19.299  0.00  0.00    -0.340 OA
ATOM    154  O2  BDP d1176       8.225 -19.971  21.232  0.00  0.00    -0.388 OA
ATOM    155  C1  BDP d1176       6.593 -18.469  20.354  0.00  0.00     0.160 C 
ATOM    156  O6B BDP d1176       6.734 -14.546  18.091  0.00  0.00    -0.646 OA
ATOM    157  C5  BDP d1176       7.383 -16.619  19.034  0.00  0.00     0.152 C 
ATOM    158  O6A BDP d1176       6.496 -16.368  16.832  0.00  0.00    -0.646 OA
ATOM    159  C6  BDP d1176       6.842 -15.786  17.896  0.00  0.00     0.206 C 
ATOM    160  C4  BDP d1176       8.709 -17.275  18.640  0.00  0.00     0.103 C 
ATOM    161  C2  BDP d1176       7.905 -19.209  20.081  0.00  0.00     0.110 C 
ATOM    162  H   BDP d1176       9.312 -17.685  20.611  0.00  0.00     0.091 H 
ATOM    163  H   BDP d1176       9.996 -19.602  18.621  0.00  0.00     0.210 HD
ATOM    164  H   BDP d1176       9.055 -20.449  21.082  0.00  0.00     0.210 HD
ATOM    165  H   BDP d1176       6.647 -17.922  21.272  0.00  0.00     0.133 H 
ATOM    166  H   BDP d1176       7.616 -16.049  19.909  0.00  0.00     0.104 H 
ATOM    167  H   BDP d1176       8.625 -17.805  17.714  0.00  0.00     0.092 H 
ATOM    168  H   BDP d1176       7.757 -19.827  19.220  0.00  0.00     0.094 H 
ENDROOT
TORSDOF 43
ENDMDL
MODEL 32
REMARK VINA RESULT:      -6.5      5.494      8.127
REMARK  0 active torsions:
REMARK  status: ('A' for Active; 'I' for Inactive)
REMARK       I    between atoms: C3_1  and  O3_90 
REMARK       I    between atoms: O1_4  and  C1_76 
REMARK       I    between atoms: C2_5  and  N2_21 
REMARK       I    between atoms: C8_6  and  C7_66 
REMARK       I    between atoms: C4_7  and  O4_24 
REMARK       I    between atoms: N2_9  and  C2_60 
REMARK       I    between atoms: N2_9  and  C7_69 
REMARK       I    between atoms: O4_12  and  C4_26 
REMARK       I    between atoms: O3_13  and  C3_65 
REMARK       I    between atoms: O3_13  and  C1_61 
REMARK       I    between atoms: C3_14  and  O3_35 
REMARK       I    between atoms: C6_15  and  C5_53 
REMARK       I    between atoms: C6_15  and  O6_46 
REMARK       I    between atoms: O6_16  and  C6_54 
REMARK       I    between atoms: C4_17  and  O4_49 
REMARK       I    between atoms: O4_18  and  C4_28 
REMARK       I    between atoms: O4_18  and  C1_47 
REMARK       I    between atoms: C3_19  and  O3_43 
REMARK       I    between atoms: C1_20  and  O4_91 
REMARK       I    between atoms: N2_21  and  C7_66 
REMARK       I    between atoms: O3_22  and  C3_82 
REMARK       I    between atoms: C7_23  and  C8_62 
REMARK       I    between atoms: C7_23  and  N2_51 
REMARK       I    between atoms: C2_25  and  N2_41 
REMARK       I    between atoms: C1_27  and  O3_90 
REMARK       I    between atoms: O6_29  and  C6_74 
REMARK       I    between atoms: O2_30  and  C2_37 
REMARK       I    between atoms: C2_31  and  O2_42 
REMARK       I    between atoms: O3_32  and  C3_45 
REMARK       I    between atoms: O4_33  and  C4_73 
REMARK       I    between atoms: O4_34  and  C4_84 
REMARK       I    between atoms: O4_34  and  C1_85 
REMARK       I    between atoms: C5_36  and  C6_48 
REMARK       I    between atoms: C6_38  and  C5_40 
REMARK       I    between atoms: C6_38  and  O6_89 
REMARK       I    between atoms: N2_41  and  C7_50 
REMARK       I    between atoms: C5_44  and  C6_74 
REMARK       I    between atoms: C7_50  and  C8_75 
REMARK       I    between atoms: N2_51  and  C2_58 
REMARK       I    between atoms: C1_52  and  O3_87 
REMARK       I    between atoms: C6_54  and  C5_86 
REMARK       I    between atoms: O2_59  and  C2_93 
REMARK       I    between atoms: C8_64  and  C7_69 
REMARK       I    between atoms: C6_70  and  C5_80 
REMARK       I    between atoms: C4_72  and  O4_91 
REMARK       I    between atoms: C5_77  and  C6_79 
REMARK       I    between atoms: C3_83  and  O3_87 
ROOT
ATOM      1  C3  NAG d1177      10.302 -14.910  15.562  0.00  0.00     0.093 C 
ATOM      2  O7  NAG d1177       9.092 -12.260  18.120  0.00  0.00    -0.274 OA
ATOM      3  C4  NAG d1177      10.977 -16.284  15.724  0.00  0.00     0.089 C 
ATOM      4  C2  NAG d1177       9.207 -14.732  16.601  0.00  0.00     0.087 C 
ATOM      5  C6  NAG d1177      10.574 -18.774  16.107  0.00  0.00     0.043 C 
ATOM      6  C5  NAG d1177       9.948 -17.400  15.814  0.00  0.00     0.089 C 
ATOM      7  N2  NAG d1177       8.380 -13.541  16.334  0.00  0.00    -0.349 N 
ATOM      8  O4  NAG d1177      11.856 -16.537  14.645  0.00  0.00    -0.390 OA
ATOM      9  C7  NAG d1177       8.390 -12.429  17.072  0.00  0.00     0.214 C 
ATOM     10  O5  NAG d1177       9.010 -17.113  16.844  0.00  0.00    -0.349 OA
ATOM     11  C8  NAG d1177       7.418 -11.397  16.561  0.00  0.00    -0.003 C 
ATOM     12  C1  NAG d1177       8.269 -15.938  16.615  0.00  0.00     0.154 C 
ATOM     13  O6  NAG d1177      11.214 -18.781  17.371  0.00  0.00    -0.398 OA
ATOM     14  O3  NAG d1177      11.243 -13.896  15.784  0.00  0.00    -0.348 OA
ATOM     15  H   NAG d1177       9.896 -14.857  14.573  0.00  0.00     0.091 H 
ATOM     16  H   NAG d1177      11.534 -16.260  16.638  0.00  0.00     0.091 H 
ATOM     17  H   NAG d1177       9.707 -14.623  17.541  0.00  0.00     0.084 H 
ATOM     18  H   NAG d1177      11.294 -18.999  15.348  0.00  0.00     0.078 H 
ATOM     19  H   NAG d1177       9.796 -19.508  16.115  0.00  0.00     0.078 H 
ATOM     20  H   NAG d1177       9.474 -17.448  14.856  0.00  0.00     0.090 H 
ATOM     21  H   NAG d1177       7.777 -13.568  15.555  0.00  0.00     0.163 HD
ATOM     22  H   NAG d1177      11.352 -16.559  13.817  0.00  0.00     0.210 HD
ATOM     23  H   NAG d1177       7.462 -10.527  17.182  0.00  0.00     0.040 H 
ATOM     24  H   NAG d1177       6.427 -11.800  16.581  0.00  0.00     0.040 H 
ATOM     25  H   NAG d1177       7.674 -11.131  15.556  0.00  0.00     0.040 H 
ATOM     26  H   NAG d1177       7.782 -16.031  15.667  0.00  0.00     0.132 H 
ATOM     27  H   NAG d1177      11.924 -18.119  17.378  0.00  0.00     0.209 HD
ATOM     28  O6A BDP d1178      13.403 -14.338  11.535  0.00  0.00    -0.646 OA
ATOM     29  O4  BDP d1178      12.431 -10.446  11.745  0.00  0.00    -0.348 OA
ATOM     30  O3  BDP d1178      13.237  -9.837  14.405  0.00  0.00    -0.390 OA
ATOM     31  C1  BDP d1178      11.317 -12.964  14.695  0.00  0.00     0.160 C 
ATOM     32  C4  BDP d1178      12.677 -11.427  12.724  0.00  0.00     0.103 C 
ATOM     33  C2  BDP d1178      12.212 -11.829  15.146  0.00  0.00     0.110 C 
ATOM     34  O2  BDP d1178      11.710 -11.245  16.321  0.00  0.00    -0.388 OA
ATOM     35  O6B BDP d1178      12.208 -13.158  10.066  0.00  0.00    -0.646 OA
ATOM     36  O5  BDP d1178      11.878 -13.550  13.534  0.00  0.00    -0.340 OA
ATOM     37  C6  BDP d1178      12.550 -13.453  11.245  0.00  0.00     0.206 C 
ATOM     38  C5  BDP d1178      11.900 -12.695  12.410  0.00  0.00     0.152 C 
ATOM     39  C3  BDP d1178      12.248 -10.790  14.061  0.00  0.00     0.092 C 
ATOM     40  H   BDP d1178      13.280  -9.153  13.718  0.00  0.00     0.210 HD
ATOM     41  H   BDP d1178      10.331 -12.634  14.446  0.00  0.00     0.133 H 
ATOM     42  H   BDP d1178      13.706 -11.721  12.762  0.00  0.00     0.092 H 
ATOM     43  H   BDP d1178      13.193 -12.208  15.340  0.00  0.00     0.094 H 
ATOM     44  H   BDP d1178      10.819 -10.898  16.155  0.00  0.00     0.210 HD
ATOM     45  H   BDP d1178      10.904 -12.408  12.145  0.00  0.00     0.104 H 
ATOM     46  H   BDP d1178      11.277 -10.350  13.960  0.00  0.00     0.091 H 
ATOM     47  O1  NAG d1175      -1.819 -19.501  20.410  0.00  0.00    -0.369 OA
ATOM     48  O3  NAG d1175       2.344 -18.196  18.709  0.00  0.00    -0.348 OA
ATOM     49  O6  NAG d1175      -2.960 -15.172  18.158  0.00  0.00    -0.398 OA
ATOM     50  C7  NAG d1175       1.727 -20.789  20.260  0.00  0.00     0.214 C 
ATOM     51  O4  NAG d1175       1.095 -15.596  17.905  0.00  0.00    -0.390 OA
ATOM     52  N2  NAG d1175       0.859 -19.803  20.519  0.00  0.00    -0.349 N 
ATOM     53  C6  NAG d1175      -1.814 -15.749  17.592  0.00  0.00     0.043 C 
ATOM     54  C2  NAG d1175       0.275 -18.889  19.524  0.00  0.00     0.087 C 
ATOM     55  C8  NAG d1175       1.825 -21.318  18.865  0.00  0.00    -0.003 C 
ATOM     56  O7  NAG d1175       2.447 -21.272  21.148  0.00  0.00    -0.274 OA
ATOM     57  C3  NAG d1175       1.138 -17.672  19.229  0.00  0.00     0.093 C 
ATOM     58  C4  NAG d1175       0.384 -16.794  18.220  0.00  0.00     0.089 C 
ATOM     59  C1  NAG d1175      -1.061 -18.382  20.049  0.00  0.00     0.151 C 
ATOM     60  C5  NAG d1175      -1.044 -16.479  18.683  0.00  0.00     0.089 C 
ATOM     61  O5  NAG d1175      -1.749 -17.652  19.043  0.00  0.00    -0.349 OA
ATOM     62  H   NAG d1175      -1.351 -20.001  21.097  0.00  0.00     0.212 HD
ATOM     63  H   NAG d1175      -3.459 -14.704  17.471  0.00  0.00     0.209 HD
ATOM     64  H   NAG d1175       1.993 -15.820  17.615  0.00  0.00     0.210 HD
ATOM     65  H   NAG d1175       0.588 -19.678  21.457  0.00  0.00     0.163 HD
ATOM     66  H   NAG d1175      -1.199 -14.985  17.167  0.00  0.00     0.078 H 
ATOM     67  H   NAG d1175      -2.095 -16.438  16.823  0.00  0.00     0.078 H 
ATOM     68  H   NAG d1175       0.180 -19.451  18.618  0.00  0.00     0.084 H 
ATOM     69  H   NAG d1175       1.138 -20.791  18.235  0.00  0.00     0.040 H 
ATOM     70  H   NAG d1175       1.585 -22.360  18.862  0.00  0.00     0.040 H 
ATOM     71  H   NAG d1175       2.822 -21.180  18.501  0.00  0.00     0.040 H 
ATOM     72  H   NAG d1175       1.349 -17.058  20.080  0.00  0.00     0.091 H 
ATOM     73  H   NAG d1175       0.313 -17.370  17.321  0.00  0.00     0.091 H 
ATOM     74  H   NAG d1175      -0.905 -17.731  20.884  0.00  0.00     0.132 H 
ATOM     75  H   NAG d1175      -0.961 -15.852  19.546  0.00  0.00     0.090 H 
ATOM     76  C2  NAG d1181      14.112  -8.807  -0.142  0.00  0.00     0.087 C 
ATOM     77  C8  NAG d1181      14.526 -11.612  -0.922  0.00  0.00    -0.003 C 
ATOM     78  O5  NAG d1181      12.630  -7.176   0.930  0.00  0.00    -0.349 OA
ATOM     79  O4  NAG d1181      12.781  -6.482  -2.680  0.00  0.00    -0.390 OA
ATOM     80  C3  NAG d1181      14.202  -7.904  -1.362  0.00  0.00     0.086 C 
ATOM     81  C1  NAG d1181      13.761  -8.014   1.119  0.00  0.00     0.154 C 
ATOM     82  N2  NAG d1181      15.354  -9.533   0.061  0.00  0.00    -0.349 N 
ATOM     83  C4  NAG d1181      12.848  -7.215  -1.476  0.00  0.00     0.089 C 
ATOM     84  O6  NAG d1181      10.343  -5.958   0.322  0.00  0.00    -0.398 OA
ATOM     85  O3  NAG d1181      14.539  -8.631  -2.532  0.00  0.00    -0.391 OA
ATOM     86  C5  NAG d1181      12.689  -6.338  -0.221  0.00  0.00     0.089 C 
ATOM     87  O7  NAG d1181      16.220 -11.507   0.721  0.00  0.00    -0.274 OA
ATOM     88  C7  NAG d1181      15.432 -10.872   0.022  0.00  0.00     0.214 C 
ATOM     89  C6  NAG d1181      11.491  -5.378  -0.262  0.00  0.00     0.043 C 
ATOM     90  H   NAG d1181      13.327  -9.509  -0.327  0.00  0.00     0.084 H 
ATOM     91  H   NAG d1181      13.911 -10.911  -1.448  0.00  0.00     0.040 H 
ATOM     92  H   NAG d1181      13.906 -12.286  -0.368  0.00  0.00     0.040 H 
ATOM     93  H   NAG d1181      15.116 -12.164  -1.623  0.00  0.00     0.040 H 
ATOM     94  H   NAG d1181      12.888  -7.085  -3.432  0.00  0.00     0.210 HD
ATOM     95  H   NAG d1181      14.985  -7.184  -1.253  0.00  0.00     0.090 H 
ATOM     96  H   NAG d1181      14.545  -7.343   1.402  0.00  0.00     0.132 H 
ATOM     97  H   NAG d1181      16.176  -9.019   0.234  0.00  0.00     0.163 HD
ATOM     98  H   NAG d1181      12.038  -7.913  -1.517  0.00  0.00     0.091 H 
ATOM     99  H   NAG d1181       9.606  -5.329   0.281  0.00  0.00     0.209 HD
ATOM    100  H   NAG d1181      13.866  -9.310  -2.695  0.00  0.00     0.210 HD
ATOM    101  H   NAG d1181      13.547  -5.701  -0.180  0.00  0.00     0.090 H 
ATOM    102  H   NAG d1181      11.742  -4.487   0.274  0.00  0.00     0.078 H 
ATOM    103  H   NAG d1181      11.272  -5.157  -1.286  0.00  0.00     0.078 H 
ATOM    104  C4  NAG d1179      14.727  -8.237   9.062  0.00  0.00     0.089 C 
ATOM    105  N2  NAG d1179      11.712 -10.575   9.126  0.00  0.00    -0.349 N 
ATOM    106  C6  NAG d1179      16.340  -8.005  11.001  0.00  0.00     0.043 C 
ATOM    107  O4  NAG d1179      15.736  -8.009   8.083  0.00  0.00    -0.390 OA
ATOM    108  O6  NAG d1179      15.670  -6.912  11.596  0.00  0.00    -0.398 OA
ATOM    109  C1  NAG d1179      13.448 -10.186  10.773  0.00  0.00     0.154 C 
ATOM    110  C5  NAG d1179      15.341  -8.903  10.291  0.00  0.00     0.089 C 
ATOM    111  O5  NAG d1179      14.330  -9.208  11.234  0.00  0.00    -0.349 OA
ATOM    112  C2  NAG d1179      12.689  -9.605   9.585  0.00  0.00     0.087 C 
ATOM    113  C8  NAG d1179       9.533 -11.364   8.546  0.00  0.00    -0.003 C 
ATOM    114  C7  NAG d1179      10.454 -10.232   8.853  0.00  0.00     0.214 C 
ATOM    115  C3  NAG d1179      13.646  -9.136   8.477  0.00  0.00     0.093 C 
ATOM    116  O3  NAG d1179      12.929  -8.403   7.495  0.00  0.00    -0.348 OA
ATOM    117  O7  NAG d1179      10.051  -9.074   8.835  0.00  0.00    -0.274 OA
ATOM    118  H   NAG d1179      14.295  -7.301   9.351  0.00  0.00     0.091 H 
ATOM    119  H   NAG d1179      11.987 -11.514   9.012  0.00  0.00     0.163 HD
ATOM    120  H   NAG d1179      17.053  -7.639  10.293  0.00  0.00     0.078 H 
ATOM    121  H   NAG d1179      16.839  -8.567  11.761  0.00  0.00     0.078 H 
ATOM    122  H   NAG d1179      16.128  -8.856   7.819  0.00  0.00     0.210 HD
ATOM    123  H   NAG d1179      15.215  -6.399  10.910  0.00  0.00     0.209 HD
ATOM    124  H   NAG d1179      14.012 -11.067  10.547  0.00  0.00     0.132 H 
ATOM    125  H   NAG d1179      15.837  -9.782   9.936  0.00  0.00     0.090 H 
ATOM    126  H   NAG d1179      12.161  -8.725   9.890  0.00  0.00     0.084 H 
ATOM    127  H   NAG d1179      10.068 -12.289   8.614  0.00  0.00     0.040 H 
ATOM    128  H   NAG d1179       9.145 -11.249   7.555  0.00  0.00     0.040 H 
ATOM    129  H   NAG d1179       8.725 -11.368   9.247  0.00  0.00     0.040 H 
ATOM    130  H   NAG d1179      14.096  -9.999   8.032  0.00  0.00     0.091 H 
ATOM    131  O5  BDP d1180      14.254  -8.699   5.631  0.00  0.00    -0.340 OA
ATOM    132  O6A BDP d1180      16.469  -9.951   3.452  0.00  0.00    -0.646 OA
ATOM    133  O2  BDP d1180      10.646  -9.024   5.823  0.00  0.00    -0.388 OA
ATOM    134  O3  BDP d1180      11.114  -7.855   3.164  0.00  0.00    -0.390 OA
ATOM    135  C5  BDP d1180      14.402  -9.186   4.315  0.00  0.00     0.152 C 
ATOM    136  C2  BDP d1180      11.847  -8.439   5.370  0.00  0.00     0.110 C 
ATOM    137  C3  BDP d1180      11.978  -8.723   3.876  0.00  0.00     0.092 C 
ATOM    138  C6  BDP d1180      15.843  -8.960   3.886  0.00  0.00     0.206 C 
ATOM    139  C1  BDP d1180      13.002  -9.006   6.195  0.00  0.00     0.160 C 
ATOM    140  C4  BDP d1180      13.403  -8.492   3.402  0.00  0.00     0.103 C 
ATOM    141  O6B BDP d1180      16.319  -7.802   4.015  0.00  0.00    -0.646 OA
ATOM    142  O4  BDP d1180      13.518  -9.025   2.111  0.00  0.00    -0.348 OA
ATOM    143  H   BDP d1180      10.542  -8.856   6.772  0.00  0.00     0.210 HD
ATOM    144  H   BDP d1180      10.201  -7.994   3.460  0.00  0.00     0.210 HD
ATOM    145  H   BDP d1180      14.196 -10.234   4.259  0.00  0.00     0.104 H 
ATOM    146  H   BDP d1180      11.859  -7.376   5.498  0.00  0.00     0.094 H 
ATOM    147  H   BDP d1180      11.717  -9.746   3.699  0.00  0.00     0.091 H 
ATOM    148  H   BDP d1180      12.914 -10.071   6.233  0.00  0.00     0.133 H 
ATOM    149  H   BDP d1180      13.614  -7.443   3.412  0.00  0.00     0.092 H 
ATOM    150  C3  BDP d1176       6.084 -17.595  18.766  0.00  0.00     0.092 C 
ATOM    151  O4  BDP d1176       7.267 -15.752  17.625  0.00  0.00    -0.348 OA
ATOM    152  O3  BDP d1176       7.123 -18.557  18.631  0.00  0.00    -0.390 OA
ATOM    153  O5  BDP d1176       3.637 -16.471  17.802  0.00  0.00    -0.340 OA
ATOM    154  O2  BDP d1176       4.706 -19.116  20.024  0.00  0.00    -0.388 OA
ATOM    155  C1  BDP d1176       3.533 -17.390  18.869  0.00  0.00     0.160 C 
ATOM    156  O6B BDP d1176       4.726 -13.569  16.746  0.00  0.00    -0.646 OA
ATOM    157  C5  BDP d1176       4.845 -15.705  17.762  0.00  0.00     0.152 C 
ATOM    158  O6A BDP d1176       4.457 -15.347  15.434  0.00  0.00    -0.646 OA
ATOM    159  C6  BDP d1176       4.674 -14.813  16.554  0.00  0.00     0.206 C 
ATOM    160  C4  BDP d1176       6.104 -16.565  17.624  0.00  0.00     0.103 C 
ATOM    161  C2  BDP d1176       4.740 -18.329  18.845  0.00  0.00     0.110 C 
ATOM    162  H   BDP d1176       6.237 -17.037  19.667  0.00  0.00     0.091 H 
ATOM    163  H   BDP d1176       6.989 -19.065  17.816  0.00  0.00     0.210 HD
ATOM    164  H   BDP d1176       5.464 -19.721  20.031  0.00  0.00     0.210 HD
ATOM    165  H   BDP d1176       3.490 -16.845  19.790  0.00  0.00     0.133 H 
ATOM    166  H   BDP d1176       4.988 -15.166  18.675  0.00  0.00     0.104 H 
ATOM    167  H   BDP d1176       6.121 -17.088  16.690  0.00  0.00     0.092 H 
ATOM    168  H   BDP d1176       4.670 -18.928  17.961  0.00  0.00     0.094 H 
ENDROOT
TORSDOF 43
ENDMDL
MODEL 33
REMARK VINA RESULT:      -6.5      4.073     19.104
REMARK  0 active torsions:
REMARK  status: ('A' for Active; 'I' for Inactive)
REMARK       I    between atoms: C3_1  and  O3_90 
REMARK       I    between atoms: O1_4  and  C1_76 
REMARK       I    between atoms: C2_5  and  N2_21 
REMARK       I    between atoms: C8_6  and  C7_66 
REMARK       I    between atoms: C4_7  and  O4_24 
REMARK       I    between atoms: N2_9  and  C2_60 
REMARK       I    between atoms: N2_9  and  C7_69 
REMARK       I    between atoms: O4_12  and  C4_26 
REMARK       I    between atoms: O3_13  and  C3_65 
REMARK       I    between atoms: O3_13  and  C1_61 
REMARK       I    between atoms: C3_14  and  O3_35 
REMARK       I    between atoms: C6_15  and  C5_53 
REMARK       I    between atoms: C6_15  and  O6_46 
REMARK       I    between atoms: O6_16  and  C6_54 
REMARK       I    between atoms: C4_17  and  O4_49 
REMARK       I    between atoms: O4_18  and  C4_28 
REMARK       I    between atoms: O4_18  and  C1_47 
REMARK       I    between atoms: C3_19  and  O3_43 
REMARK       I    between atoms: C1_20  and  O4_91 
REMARK       I    between atoms: N2_21  and  C7_66 
REMARK       I    between atoms: O3_22  and  C3_82 
REMARK       I    between atoms: C7_23  and  C8_62 
REMARK       I    between atoms: C7_23  and  N2_51 
REMARK       I    between atoms: C2_25  and  N2_41 
REMARK       I    between atoms: C1_27  and  O3_90 
REMARK       I    between atoms: O6_29  and  C6_74 
REMARK       I    between atoms: O2_30  and  C2_37 
REMARK       I    between atoms: C2_31  and  O2_42 
REMARK       I    between atoms: O3_32  and  C3_45 
REMARK       I    between atoms: O4_33  and  C4_73 
REMARK       I    between atoms: O4_34  and  C4_84 
REMARK       I    between atoms: O4_34  and  C1_85 
REMARK       I    between atoms: C5_36  and  C6_48 
REMARK       I    between atoms: C6_38  and  C5_40 
REMARK       I    between atoms: C6_38  and  O6_89 
REMARK       I    between atoms: N2_41  and  C7_50 
REMARK       I    between atoms: C5_44  and  C6_74 
REMARK       I    between atoms: C7_50  and  C8_75 
REMARK       I    between atoms: N2_51  and  C2_58 
REMARK       I    between atoms: C1_52  and  O3_87 
REMARK       I    between atoms: C6_54  and  C5_86 
REMARK       I    between atoms: O2_59  and  C2_93 
REMARK       I    between atoms: C8_64  and  C7_69 
REMARK       I    between atoms: C6_70  and  C5_80 
REMARK       I    between atoms: C4_72  and  O4_91 
REMARK       I    between atoms: C5_77  and  C6_79 
REMARK       I    between atoms: C3_83  and  O3_87 
ROOT
ATOM      1  C3  NAG d1177      13.517  -8.155   1.065  0.00  0.00     0.093 C 
ATOM      2  O7  NAG d1177      17.153  -9.295   0.346  0.00  0.00    -0.274 OA
ATOM      3  C4  NAG d1177      12.647  -7.024   0.490  0.00  0.00     0.089 C 
ATOM      4  C2  NAG d1177      14.314  -8.825  -0.043  0.00  0.00     0.087 C 
ATOM      5  C6  NAG d1177      11.069  -6.361  -1.402  0.00  0.00     0.043 C 
ATOM      6  C5  NAG d1177      11.853  -7.494  -0.718  0.00  0.00     0.089 C 
ATOM      7  N2  NAG d1177      14.974 -10.060   0.419  0.00  0.00    -0.349 N 
ATOM      8  O4  NAG d1177      11.760  -6.529   1.474  0.00  0.00    -0.390 OA
ATOM      9  C7  NAG d1177      16.291 -10.199   0.589  0.00  0.00     0.214 C 
ATOM     10  O5  NAG d1177      12.728  -8.069  -1.681  0.00  0.00    -0.349 OA
ATOM     11  C8  NAG d1177      16.663 -11.585   1.047  0.00  0.00    -0.003 C 
ATOM     12  C1  NAG d1177      13.406  -9.210  -1.210  0.00  0.00     0.154 C 
ATOM     13  O6  NAG d1177      11.946  -5.376  -1.918  0.00  0.00    -0.398 OA
ATOM     14  O3  NAG d1177      14.446  -7.620   1.968  0.00  0.00    -0.348 OA
ATOM     15  H   NAG d1177      12.869  -8.861   1.542  0.00  0.00     0.091 H 
ATOM     16  H   NAG d1177      13.306  -6.240   0.180  0.00  0.00     0.091 H 
ATOM     17  H   NAG d1177      15.051  -8.112  -0.349  0.00  0.00     0.084 H 
ATOM     18  H   NAG d1177      10.414  -5.908  -0.688  0.00  0.00     0.078 H 
ATOM     19  H   NAG d1177      10.508  -6.776  -2.213  0.00  0.00     0.078 H 
ATOM     20  H   NAG d1177      11.149  -8.212  -0.353  0.00  0.00     0.090 H 
ATOM     21  H   NAG d1177      14.402 -10.837   0.617  0.00  0.00     0.163 HD
ATOM     22  H   NAG d1177      11.162  -7.238   1.757  0.00  0.00     0.210 HD
ATOM     23  H   NAG d1177      17.724 -11.648   1.169  0.00  0.00     0.040 H 
ATOM     24  H   NAG d1177      16.345 -12.300   0.317  0.00  0.00     0.040 H 
ATOM     25  H   NAG d1177      16.184 -11.793   1.981  0.00  0.00     0.040 H 
ATOM     26  H   NAG d1177      12.676  -9.920  -0.884  0.00  0.00     0.132 H 
ATOM     27  H   NAG d1177      12.462  -4.990  -1.193  0.00  0.00     0.209 HD
ATOM     28  O6A BDP d1178      11.313  -7.005   5.534  0.00  0.00    -0.646 OA
ATOM     29  O4  BDP d1178      14.270  -9.167   7.184  0.00  0.00    -0.348 OA
ATOM     30  O3  BDP d1178      16.555  -7.788   6.196  0.00  0.00    -0.390 OA
ATOM     31  C1  BDP d1178      14.391  -8.253   3.255  0.00  0.00     0.160 C 
ATOM     32  C4  BDP d1178      14.227  -8.274   6.095  0.00  0.00     0.103 C 
ATOM     33  C2  BDP d1178      15.562  -7.725   4.056  0.00  0.00     0.110 C 
ATOM     34  O2  BDP d1178      16.770  -7.976   3.385  0.00  0.00    -0.388 OA
ATOM     35  O6B BDP d1178      11.134  -8.961   6.594  0.00  0.00    -0.646 OA
ATOM     36  O5  BDP d1178      13.193  -7.945   3.944  0.00  0.00    -0.340 OA
ATOM     37  C6  BDP d1178      11.732  -8.162   5.821  0.00  0.00     0.206 C 
ATOM     38  C5  BDP d1178      13.055  -8.607   5.185  0.00  0.00     0.152 C 
ATOM     39  C3  BDP d1178      15.586  -8.427   5.385  0.00  0.00     0.092 C 
ATOM     40  H   BDP d1178      16.590  -8.224   7.062  0.00  0.00     0.210 HD
ATOM     41  H   BDP d1178      14.427  -9.314   3.128  0.00  0.00     0.133 H 
ATOM     42  H   BDP d1178      14.075  -7.260   6.401  0.00  0.00     0.092 H 
ATOM     43  H   BDP d1178      15.453  -6.669   4.188  0.00  0.00     0.094 H 
ATOM     44  H   BDP d1178      16.878  -8.932   3.260  0.00  0.00     0.210 HD
ATOM     45  H   BDP d1178      13.049  -9.667   5.039  0.00  0.00     0.104 H 
ATOM     46  H   BDP d1178      15.804  -9.464   5.232  0.00  0.00     0.091 H 
ATOM     47  O1  NAG d1175      13.004 -15.469 -10.672  0.00  0.00    -0.369 OA
ATOM     48  O3  NAG d1175      12.958 -12.872  -6.776  0.00  0.00    -0.348 OA
ATOM     49  O6  NAG d1175      14.602 -18.759  -7.246  0.00  0.00    -0.398 OA
ATOM     50  C7  NAG d1175      12.091 -11.968  -9.593  0.00  0.00     0.214 C 
ATOM     51  O4  NAG d1175      14.269 -15.156  -5.351  0.00  0.00    -0.390 OA
ATOM     52  N2  NAG d1175      12.957 -12.989  -9.612  0.00  0.00    -0.349 N 
ATOM     53  C6  NAG d1175      13.837 -17.744  -6.654  0.00  0.00     0.043 C 
ATOM     54  C2  NAG d1175      12.928 -14.157  -8.718  0.00  0.00     0.087 C 
ATOM     55  C8  NAG d1175      10.759 -12.163  -8.943  0.00  0.00    -0.003 C 
ATOM     56  O7  NAG d1175      12.367 -10.870 -10.102  0.00  0.00    -0.274 OA
ATOM     57  C3  NAG d1175      13.650 -13.936  -7.398  0.00  0.00     0.093 C 
ATOM     58  C4  NAG d1175      13.579 -15.245  -6.598  0.00  0.00     0.089 C 
ATOM     59  C1  NAG d1175      13.607 -15.327  -9.417  0.00  0.00     0.151 C 
ATOM     60  C5  NAG d1175      14.072 -16.447  -7.413  0.00  0.00     0.089 C 
ATOM     61  O5  NAG d1175      13.432 -16.524  -8.673  0.00  0.00    -0.349 OA
ATOM     62  H   NAG d1175      13.123 -14.652 -11.182  0.00  0.00     0.212 HD
ATOM     63  H   NAG d1175      14.459 -19.591  -6.770  0.00  0.00     0.209 HD
ATOM     64  H   NAG d1175      13.941 -14.390  -4.854  0.00  0.00     0.210 HD
ATOM     65  H   NAG d1175      13.676 -12.955 -10.283  0.00  0.00     0.163 HD
ATOM     66  H   NAG d1175      14.130 -17.622  -5.633  0.00  0.00     0.078 H 
ATOM     67  H   NAG d1175      12.798 -18.003  -6.690  0.00  0.00     0.078 H 
ATOM     68  H   NAG d1175      11.897 -14.344  -8.500  0.00  0.00     0.084 H 
ATOM     69  H   NAG d1175      10.691 -13.160  -8.562  0.00  0.00     0.040 H 
ATOM     70  H   NAG d1175       9.984 -12.003  -9.664  0.00  0.00     0.040 H 
ATOM     71  H   NAG d1175      10.649 -11.464  -8.140  0.00  0.00     0.040 H 
ATOM     72  H   NAG d1175      14.686 -13.685  -7.494  0.00  0.00     0.091 H 
ATOM     73  H   NAG d1175      12.544 -15.404  -6.381  0.00  0.00     0.091 H 
ATOM     74  H   NAG d1175      14.657 -15.142  -9.507  0.00  0.00     0.132 H 
ATOM     75  H   NAG d1175      15.121 -16.308  -7.571  0.00  0.00     0.090 H 
ATOM     76  C2  NAG d1181       7.449 -12.273  16.704  0.00  0.00     0.087 C 
ATOM     77  C8  NAG d1181       4.880 -11.176  15.786  0.00  0.00    -0.003 C 
ATOM     78  O5  NAG d1181       9.317 -13.785  16.230  0.00  0.00    -0.349 OA
ATOM     79  O4  NAG d1181       7.377 -15.112  19.060  0.00  0.00    -0.390 OA
ATOM     80  C3  NAG d1181       7.284 -12.924  18.067  0.00  0.00     0.086 C 
ATOM     81  C1  NAG d1181       8.874 -12.437  16.172  0.00  0.00     0.154 C 
ATOM     82  N2  NAG d1181       7.101 -10.863  16.756  0.00  0.00    -0.349 N 
ATOM     83  C4  NAG d1181       7.662 -14.389  17.882  0.00  0.00     0.089 C 
ATOM     84  O6  NAG d1181       9.712 -16.418  16.218  0.00  0.00    -0.398 OA
ATOM     85  O3  NAG d1181       5.969 -12.765  18.573  0.00  0.00    -0.391 OA
ATOM     86  C5  NAG d1181       9.151 -14.419  17.496  0.00  0.00     0.089 C 
ATOM     87  O7  NAG d1181       6.137  -9.184  15.602  0.00  0.00    -0.274 OA
ATOM     88  C7  NAG d1181       6.097 -10.331  16.041  0.00  0.00     0.214 C 
ATOM     89  C6  NAG d1181       9.782 -15.819  17.496  0.00  0.00     0.043 C 
ATOM     90  H   NAG d1181       6.780 -12.770  16.034  0.00  0.00     0.084 H 
ATOM     91  H   NAG d1181       5.013 -12.138  16.235  0.00  0.00     0.040 H 
ATOM     92  H   NAG d1181       4.741 -11.291  14.731  0.00  0.00     0.040 H 
ATOM     93  H   NAG d1181       4.021 -10.700  16.209  0.00  0.00     0.040 H 
ATOM     94  H   NAG d1181       6.428 -15.057  19.252  0.00  0.00     0.210 HD
ATOM     95  H   NAG d1181       7.915 -12.461  18.797  0.00  0.00     0.090 H 
ATOM     96  H   NAG d1181       9.587 -11.898  16.759  0.00  0.00     0.132 H 
ATOM     97  H   NAG d1181       7.626 -10.270  17.342  0.00  0.00     0.163 HD
ATOM     98  H   NAG d1181       7.093 -14.861  17.108  0.00  0.00     0.091 H 
ATOM     99  H   NAG d1181      10.118 -17.298  16.252  0.00  0.00     0.209 HD
ATOM    100  H   NAG d1181       5.336 -13.166  17.957  0.00  0.00     0.210 HD
ATOM    101  H   NAG d1181       9.678 -13.883  18.258  0.00  0.00     0.090 H 
ATOM    102  H   NAG d1181      10.809 -15.737  17.786  0.00  0.00     0.078 H 
ATOM    103  H   NAG d1181       9.239 -16.431  18.185  0.00  0.00     0.078 H 
ATOM    104  C4  NAG d1179      14.148  -8.850  11.335  0.00  0.00     0.089 C 
ATOM    105  N2  NAG d1179      12.368 -10.627   8.465  0.00  0.00    -0.349 N 
ATOM    106  C6  NAG d1179      15.696  -6.875  10.992  0.00  0.00     0.043 C 
ATOM    107  O4  NAG d1179      13.686  -8.380  12.598  0.00  0.00    -0.390 OA
ATOM    108  O6  NAG d1179      16.876  -7.648  10.912  0.00  0.00    -0.398 OA
ATOM    109  C1  NAG d1179      13.837  -8.698   8.464  0.00  0.00     0.154 C 
ATOM    110  C5  NAG d1179      14.518  -7.665  10.446  0.00  0.00     0.089 C 
ATOM    111  O5  NAG d1179      14.899  -8.122   9.161  0.00  0.00    -0.349 OA
ATOM    112  C2  NAG d1179      13.427  -9.966   9.206  0.00  0.00     0.087 C 
ATOM    113  C8  NAG d1179      11.315 -12.442   7.323  0.00  0.00    -0.003 C 
ATOM    114  C7  NAG d1179      12.387 -11.938   8.229  0.00  0.00     0.214 C 
ATOM    115  C3  NAG d1179      13.052  -9.669  10.667  0.00  0.00     0.093 C 
ATOM    116  O3  NAG d1179      12.895 -10.885  11.384  0.00  0.00    -0.348 OA
ATOM    117  O7  NAG d1179      13.208 -12.708   8.717  0.00  0.00    -0.274 OA
ATOM    118  H   NAG d1179      15.014  -9.463  11.479  0.00  0.00     0.091 H 
ATOM    119  H   NAG d1179      11.613 -10.092   8.128  0.00  0.00     0.163 HD
ATOM    120  H   NAG d1179      15.508  -6.620  12.014  0.00  0.00     0.078 H 
ATOM    121  H   NAG d1179      15.819  -5.984  10.413  0.00  0.00     0.078 H 
ATOM    122  H   NAG d1179      12.902  -7.824  12.469  0.00  0.00     0.210 HD
ATOM    123  H   NAG d1179      16.768  -8.458  11.436  0.00  0.00     0.209 HD
ATOM    124  H   NAG d1179      13.059  -7.969   8.375  0.00  0.00     0.132 H 
ATOM    125  H   NAG d1179      13.651  -7.039  10.409  0.00  0.00     0.090 H 
ATOM    126  H   NAG d1179      14.259 -10.637   9.261  0.00  0.00     0.084 H 
ATOM    127  H   NAG d1179      10.704 -11.623   7.002  0.00  0.00     0.040 H 
ATOM    128  H   NAG d1179      10.712 -13.154   7.846  0.00  0.00     0.040 H 
ATOM    129  H   NAG d1179      11.760 -12.910   6.469  0.00  0.00     0.040 H 
ATOM    130  H   NAG d1179      12.134  -9.119  10.675  0.00  0.00     0.091 H 
ATOM    131  O5  BDP d1180      11.459 -10.250  13.072  0.00  0.00    -0.340 OA
ATOM    132  O6A BDP d1180       9.143  -8.604  14.846  0.00  0.00    -0.646 OA
ATOM    133  O2  BDP d1180      11.219 -13.217  10.999  0.00  0.00    -0.388 OA
ATOM    134  O3  BDP d1180      10.284 -14.117  13.640  0.00  0.00    -0.390 OA
ATOM    135  C5  BDP d1180      10.213 -10.389  13.720  0.00  0.00     0.152 C 
ATOM    136  C2  BDP d1180      11.383 -12.529  12.221  0.00  0.00     0.110 C 
ATOM    137  C3  BDP d1180      10.164 -12.816  13.093  0.00  0.00     0.092 C 
ATOM    138  C6  BDP d1180      10.141  -9.356  14.833  0.00  0.00     0.206 C 
ATOM    139  C1  BDP d1180      11.572 -11.043  11.916  0.00  0.00     0.160 C 
ATOM    140  C4  BDP d1180      10.064 -11.814  14.231  0.00  0.00     0.103 C 
ATOM    141  O6B BDP d1180      11.094  -9.309  15.654  0.00  0.00    -0.646 OA
ATOM    142  O4  BDP d1180       8.800 -11.957  14.819  0.00  0.00    -0.348 OA
ATOM    143  H   BDP d1180      11.984 -13.049  10.427  0.00  0.00     0.210 HD
ATOM    144  H   BDP d1180      10.349 -14.765  12.921  0.00  0.00     0.210 HD
ATOM    145  H   BDP d1180       9.400 -10.214  13.047  0.00  0.00     0.104 H 
ATOM    146  H   BDP d1180      12.249 -12.854  12.760  0.00  0.00     0.094 H 
ATOM    147  H   BDP d1180       9.285 -12.739  12.488  0.00  0.00     0.091 H 
ATOM    148  H   BDP d1180      10.814 -10.728  11.230  0.00  0.00     0.133 H 
ATOM    149  H   BDP d1180      10.847 -11.999  14.937  0.00  0.00     0.092 H 
ATOM    150  C3  BDP d1176      13.575  -9.804  -4.640  0.00  0.00     0.092 C 
ATOM    151  O4  BDP d1176      14.192  -9.811  -2.249  0.00  0.00    -0.348 OA
ATOM    152  O3  BDP d1176      12.817  -8.601  -4.605  0.00  0.00    -0.390 OA
ATOM    153  O5  BDP d1176      13.652 -12.662  -4.552  0.00  0.00    -0.340 OA
ATOM    154  O2  BDP d1176      13.265 -10.043  -7.016  0.00  0.00    -0.388 OA
ATOM    155  C1  BDP d1176      13.701 -12.068  -5.832  0.00  0.00     0.160 C 
ATOM    156  O6B BDP d1176      15.099 -13.099  -1.647  0.00  0.00    -0.646 OA
ATOM    157  C5  BDP d1176      14.230 -11.894  -3.492  0.00  0.00     0.152 C 
ATOM    158  O6A BDP d1176      12.895 -13.141  -1.956  0.00  0.00    -0.646 OA
ATOM    159  C6  BDP d1176      14.056 -12.766  -2.270  0.00  0.00     0.206 C 
ATOM    160  C4  BDP d1176      13.553 -10.537  -3.288  0.00  0.00     0.103 C 
ATOM    161  C2  BDP d1176      13.041 -10.689  -5.774  0.00  0.00     0.110 C 
ATOM    162  H   BDP d1176      14.601  -9.567  -4.829  0.00  0.00     0.091 H 
ATOM    163  H   BDP d1176      11.885  -8.811  -4.433  0.00  0.00     0.210 HD
ATOM    164  H   BDP d1176      12.855  -9.165  -7.002  0.00  0.00     0.210 HD
ATOM    165  H   BDP d1176      14.724 -11.990  -6.137  0.00  0.00     0.133 H 
ATOM    166  H   BDP d1176      15.251 -11.654  -3.705  0.00  0.00     0.104 H 
ATOM    167  H   BDP d1176      12.535 -10.650  -2.974  0.00  0.00     0.092 H 
ATOM    168  H   BDP d1176      11.999 -10.834  -5.579  0.00  0.00     0.094 H 
ENDROOT
TORSDOF 43
ENDMDL
MODEL 34
REMARK VINA RESULT:      -6.4      2.581      3.444
REMARK  0 active torsions:
REMARK  status: ('A' for Active; 'I' for Inactive)
REMARK       I    between atoms: C3_1  and  O3_90 
REMARK       I    between atoms: O1_4  and  C1_76 
REMARK       I    between atoms: C2_5  and  N2_21 
REMARK       I    between atoms: C8_6  and  C7_66 
REMARK       I    between atoms: C4_7  and  O4_24 
REMARK       I    between atoms: N2_9  and  C2_60 
REMARK       I    between atoms: N2_9  and  C7_69 
REMARK       I    between atoms: O4_12  and  C4_26 
REMARK       I    between atoms: O3_13  and  C3_65 
REMARK       I    between atoms: O3_13  and  C1_61 
REMARK       I    between atoms: C3_14  and  O3_35 
REMARK       I    between atoms: C6_15  and  C5_53 
REMARK       I    between atoms: C6_15  and  O6_46 
REMARK       I    between atoms: O6_16  and  C6_54 
REMARK       I    between atoms: C4_17  and  O4_49 
REMARK       I    between atoms: O4_18  and  C4_28 
REMARK       I    between atoms: O4_18  and  C1_47 
REMARK       I    between atoms: C3_19  and  O3_43 
REMARK       I    between atoms: C1_20  and  O4_91 
REMARK       I    between atoms: N2_21  and  C7_66 
REMARK       I    between atoms: O3_22  and  C3_82 
REMARK       I    between atoms: C7_23  and  C8_62 
REMARK       I    between atoms: C7_23  and  N2_51 
REMARK       I    between atoms: C2_25  and  N2_41 
REMARK       I    between atoms: C1_27  and  O3_90 
REMARK       I    between atoms: O6_29  and  C6_74 
REMARK       I    between atoms: O2_30  and  C2_37 
REMARK       I    between atoms: C2_31  and  O2_42 
REMARK       I    between atoms: O3_32  and  C3_45 
REMARK       I    between atoms: O4_33  and  C4_73 
REMARK       I    between atoms: O4_34  and  C4_84 
REMARK       I    between atoms: O4_34  and  C1_85 
REMARK       I    between atoms: C5_36  and  C6_48 
REMARK       I    between atoms: C6_38  and  C5_40 
REMARK       I    between atoms: C6_38  and  O6_89 
REMARK       I    between atoms: N2_41  and  C7_50 
REMARK       I    between atoms: C5_44  and  C6_74 
REMARK       I    between atoms: C7_50  and  C8_75 
REMARK       I    between atoms: N2_51  and  C2_58 
REMARK       I    between atoms: C1_52  and  O3_87 
REMARK       I    between atoms: C6_54  and  C5_86 
REMARK       I    between atoms: O2_59  and  C2_93 
REMARK       I    between atoms: C8_64  and  C7_69 
REMARK       I    between atoms: C6_70  and  C5_80 
REMARK       I    between atoms: C4_72  and  O4_91 
REMARK       I    between atoms: C5_77  and  C6_79 
REMARK       I    between atoms: C3_83  and  O3_87 
ROOT
ATOM      1  C3  NAG d1177      13.273 -11.100  11.156  0.00  0.00     0.093 C 
ATOM      2  O7  NAG d1177      10.499  -8.606  12.215  0.00  0.00    -0.274 OA
ATOM      3  C4  NAG d1177      14.638 -11.461  11.767  0.00  0.00     0.089 C 
ATOM      4  C2  NAG d1177      12.230 -10.938  12.249  0.00  0.00     0.087 C 
ATOM      5  C6  NAG d1177      15.835 -12.919  13.486  0.00  0.00     0.043 C 
ATOM      6  C5  NAG d1177      14.517 -12.611  12.755  0.00  0.00     0.089 C 
ATOM      7  N2  NAG d1177      10.866 -10.829  11.700  0.00  0.00    -0.349 N 
ATOM      8  O4  NAG d1177      15.562 -11.806  10.753  0.00  0.00    -0.390 OA
ATOM      9  C7  NAG d1177      10.131  -9.714  11.708  0.00  0.00     0.214 C 
ATOM     10  O5  NAG d1177      13.530 -12.308  13.733  0.00  0.00    -0.349 OA
ATOM     11  C8  NAG d1177       8.770  -9.925  11.096  0.00  0.00    -0.003 C 
ATOM     12  C1  NAG d1177      12.241 -12.139  13.193  0.00  0.00     0.154 C 
ATOM     13  O6  NAG d1177      16.248 -11.817  14.275  0.00  0.00    -0.398 OA
ATOM     14  O3  NAG d1177      13.366  -9.867  10.496  0.00  0.00    -0.348 OA
ATOM     15  H   NAG d1177      12.994 -11.884  10.483  0.00  0.00     0.091 H 
ATOM     16  H   NAG d1177      14.992 -10.598  12.291  0.00  0.00     0.091 H 
ATOM     17  H   NAG d1177      12.485 -10.038  12.769  0.00  0.00     0.084 H 
ATOM     18  H   NAG d1177      16.593 -13.136  12.762  0.00  0.00     0.078 H 
ATOM     19  H   NAG d1177      15.680 -13.759  14.128  0.00  0.00     0.078 H 
ATOM     20  H   NAG d1177      14.246 -13.471  12.180  0.00  0.00     0.090 H 
ATOM     21  H   NAG d1177      10.468 -11.636  11.300  0.00  0.00     0.163 HD
ATOM     22  H   NAG d1177      15.243 -12.588  10.276  0.00  0.00     0.210 HD
ATOM     23  H   NAG d1177       8.221  -9.007  11.125  0.00  0.00     0.040 H 
ATOM     24  H   NAG d1177       8.242 -10.673  11.649  0.00  0.00     0.040 H 
ATOM     25  H   NAG d1177       8.880 -10.243  10.081  0.00  0.00     0.040 H 
ATOM     26  H   NAG d1177      11.986 -13.027  12.655  0.00  0.00     0.132 H 
ATOM     27  H   NAG d1177      16.393 -11.046  13.703  0.00  0.00     0.209 HD
ATOM     28  O6A BDP d1178      15.641 -11.579   6.648  0.00  0.00    -0.646 OA
ATOM     29  O4  BDP d1178      12.458  -9.652   5.133  0.00  0.00    -0.348 OA
ATOM     30  O3  BDP d1178      12.516  -7.247   6.654  0.00  0.00    -0.390 OA
ATOM     31  C1  BDP d1178      12.927  -9.938   9.132  0.00  0.00     0.160 C 
ATOM     32  C4  BDP d1178      13.186  -9.508   6.330  0.00  0.00     0.103 C 
ATOM     33  C2  BDP d1178      12.892  -8.518   8.605  0.00  0.00     0.110 C 
ATOM     34  O2  BDP d1178      12.052  -7.721   9.400  0.00  0.00    -0.388 OA
ATOM     35  O6B BDP d1178      14.084 -12.402   5.277  0.00  0.00    -0.646 OA
ATOM     36  O5  BDP d1178      13.813 -10.697   8.329  0.00  0.00    -0.340 OA
ATOM     37  C6  BDP d1178      14.447 -11.679   6.247  0.00  0.00     0.206 C 
ATOM     38  C5  BDP d1178      13.384 -10.862   6.993  0.00  0.00     0.152 C 
ATOM     39  C3  BDP d1178      12.357  -8.543   7.201  0.00  0.00     0.092 C 
ATOM     40  H   BDP d1178      12.178  -7.236   5.744  0.00  0.00     0.210 HD
ATOM     41  H   BDP d1178      11.970 -10.412   9.093  0.00  0.00     0.133 H 
ATOM     42  H   BDP d1178      14.169  -9.119   6.170  0.00  0.00     0.092 H 
ATOM     43  H   BDP d1178      13.880  -8.108   8.628  0.00  0.00     0.094 H 
ATOM     44  H   BDP d1178      11.153  -8.085   9.387  0.00  0.00     0.210 HD
ATOM     45  H   BDP d1178      12.447 -11.377   6.968  0.00  0.00     0.104 H 
ATOM     46  H   BDP d1178      11.333  -8.854   7.218  0.00  0.00     0.091 H 
ATOM     47  O1  NAG d1175       6.273 -17.255  21.384  0.00  0.00    -0.369 OA
ATOM     48  O3  NAG d1175       8.848 -15.324  17.983  0.00  0.00    -0.348 OA
ATOM     49  O6  NAG d1175       2.868 -16.656  17.756  0.00  0.00    -0.398 OA
ATOM     50  C7  NAG d1175       9.855 -16.244  20.748  0.00  0.00     0.214 C 
ATOM     51  O4  NAG d1175       6.321 -14.928  16.424  0.00  0.00    -0.390 OA
ATOM     52  N2  NAG d1175       8.547 -15.958  20.734  0.00  0.00    -0.349 N 
ATOM     53  C6  NAG d1175       4.163 -16.740  17.225  0.00  0.00     0.043 C 
ATOM     54  C2  NAG d1175       7.597 -16.329  19.672  0.00  0.00     0.087 C 
ATOM     55  C8  NAG d1175      10.361 -17.355  19.886  0.00  0.00    -0.003 C 
ATOM     56  O7  NAG d1175      10.652 -15.612  21.459  0.00  0.00    -0.274 OA
ATOM     57  C3  NAG d1175       7.542 -15.332  18.525  0.00  0.00     0.093 C 
ATOM     58  C4  NAG d1175       6.483 -15.821  17.527  0.00  0.00     0.089 C 
ATOM     59  C1  NAG d1175       6.200 -16.411  20.270  0.00  0.00     0.151 C 
ATOM     60  C5  NAG d1175       5.137 -16.104  18.205  0.00  0.00     0.089 C 
ATOM     61  O5  NAG d1175       5.284 -16.953  19.328  0.00  0.00    -0.349 OA
ATOM     62  H   NAG d1175       6.898 -16.887  22.028  0.00  0.00     0.212 HD
ATOM     63  H   NAG d1175       2.239 -17.059  17.138  0.00  0.00     0.209 HD
ATOM     64  H   NAG d1175       7.184 -14.764  16.012  0.00  0.00     0.210 HD
ATOM     65  H   NAG d1175       8.189 -15.456  21.500  0.00  0.00     0.163 HD
ATOM     66  H   NAG d1175       4.203 -16.221  16.290  0.00  0.00     0.078 H 
ATOM     67  H   NAG d1175       4.426 -17.765  17.065  0.00  0.00     0.078 H 
ATOM     68  H   NAG d1175       7.937 -17.263  19.277  0.00  0.00     0.084 H 
ATOM     69  H   NAG d1175       9.544 -17.788  19.346  0.00  0.00     0.040 H 
ATOM     70  H   NAG d1175      10.818 -18.103  20.500  0.00  0.00     0.040 H 
ATOM     71  H   NAG d1175      11.082 -16.971  19.196  0.00  0.00     0.040 H 
ATOM     72  H   NAG d1175       7.265 -14.339  18.811  0.00  0.00     0.091 H 
ATOM     73  H   NAG d1175       6.850 -16.748  17.136  0.00  0.00     0.091 H 
ATOM     74  H   NAG d1175       5.859 -15.435  20.543  0.00  0.00     0.132 H 
ATOM     75  H   NAG d1175       4.751 -15.163  18.537  0.00  0.00     0.090 H 
ATOM     76  C2  NAG d1181      13.633 -15.029  -5.661  0.00  0.00     0.087 C 
ATOM     77  C8  NAG d1181      15.749 -16.951  -4.971  0.00  0.00    -0.003 C 
ATOM     78  O5  NAG d1181      11.386 -14.189  -5.161  0.00  0.00    -0.349 OA
ATOM     79  O4  NAG d1181      11.340 -15.894  -8.420  0.00  0.00    -0.390 OA
ATOM     80  C3  NAG d1181      13.234 -15.188  -7.119  0.00  0.00     0.086 C 
ATOM     81  C1  NAG d1181      12.775 -13.976  -4.957  0.00  0.00     0.154 C 
ATOM     82  N2  NAG d1181      15.039 -14.683  -5.540  0.00  0.00    -0.349 N 
ATOM     83  C4  NAG d1181      11.757 -15.561  -7.114  0.00  0.00     0.089 C 
ATOM     84  O6  NAG d1181       8.888 -15.039  -5.507  0.00  0.00    -0.398 OA
ATOM     85  O3  NAG d1181      14.033 -16.155  -7.782  0.00  0.00    -0.391 OA
ATOM     86  C5  NAG d1181      10.998 -14.360  -6.521  0.00  0.00     0.089 C 
ATOM     87  O7  NAG d1181      16.888 -14.996  -4.291  0.00  0.00    -0.274 OA
ATOM     88  C7  NAG d1181      15.931 -15.460  -4.907  0.00  0.00     0.214 C 
ATOM     89  C6  NAG d1181       9.470 -14.446  -6.649  0.00  0.00     0.043 C 
ATOM     90  H   NAG d1181      13.466 -15.972  -5.184  0.00  0.00     0.084 H 
ATOM     91  H   NAG d1181      14.872 -17.179  -5.542  0.00  0.00     0.040 H 
ATOM     92  H   NAG d1181      15.639 -17.340  -3.980  0.00  0.00     0.040 H 
ATOM     93  H   NAG d1181      16.603 -17.395  -5.436  0.00  0.00     0.040 H 
ATOM     94  H   NAG d1181      11.851 -16.654  -8.739  0.00  0.00     0.210 HD
ATOM     95  H   NAG d1181      13.393 -14.282  -7.665  0.00  0.00     0.090 H 
ATOM     96  H   NAG d1181      12.952 -12.992  -5.339  0.00  0.00     0.132 H 
ATOM     97  H   NAG d1181      15.351 -13.839  -5.941  0.00  0.00     0.163 HD
ATOM     98  H   NAG d1181      11.558 -16.426  -6.517  0.00  0.00     0.091 H 
ATOM     99  H   NAG d1181       7.925 -15.079  -5.618  0.00  0.00     0.209 HD
ATOM    100  H   NAG d1181      13.938 -17.011  -7.338  0.00  0.00     0.210 HD
ATOM    101  H   NAG d1181      11.272 -13.505  -7.102  0.00  0.00     0.090 H 
ATOM    102  H   NAG d1181       9.075 -13.458  -6.767  0.00  0.00     0.078 H 
ATOM    103  H   NAG d1181       9.238 -15.053  -7.499  0.00  0.00     0.078 H 
ATOM    104  C4  NAG d1179      13.085  -8.764   1.113  0.00  0.00     0.089 C 
ATOM    105  N2  NAG d1179      12.167 -11.702   3.370  0.00  0.00    -0.349 N 
ATOM    106  C6  NAG d1179      14.061  -6.598   1.988  0.00  0.00     0.043 C 
ATOM    107  O4  NAG d1179      13.805  -8.694  -0.114  0.00  0.00    -0.390 OA
ATOM    108  O6  NAG d1179      12.818  -5.940   2.119  0.00  0.00    -0.398 OA
ATOM    109  C1  NAG d1179      13.164  -9.554   3.893  0.00  0.00     0.154 C 
ATOM    110  C5  NAG d1179      13.888  -8.089   2.222  0.00  0.00     0.089 C 
ATOM    111  O5  NAG d1179      13.216  -8.228   3.461  0.00  0.00    -0.349 OA
ATOM    112  C2  NAG d1179      12.298 -10.331   2.908  0.00  0.00     0.087 C 
ATOM    113  C8  NAG d1179      10.993 -13.670   4.043  0.00  0.00    -0.003 C 
ATOM    114  C7  NAG d1179      10.991 -12.326   3.397  0.00  0.00     0.214 C 
ATOM    115  C3  NAG d1179      12.839 -10.224   1.473  0.00  0.00     0.093 C 
ATOM    116  O3  NAG d1179      11.896 -10.763   0.558  0.00  0.00    -0.348 OA
ATOM    117  O7  NAG d1179       9.961 -11.861   2.920  0.00  0.00    -0.274 OA
ATOM    118  H   NAG d1179      12.147  -8.261   1.003  0.00  0.00     0.091 H 
ATOM    119  H   NAG d1179      12.971 -12.183   3.672  0.00  0.00     0.163 HD
ATOM    120  H   NAG d1179      14.446  -6.436   1.003  0.00  0.00     0.078 H 
ATOM    121  H   NAG d1179      14.744  -6.206   2.712  0.00  0.00     0.078 H 
ATOM    122  H   NAG d1179      14.656  -9.151  -0.017  0.00  0.00     0.210 HD
ATOM    123  H   NAG d1179      12.195  -6.292   1.463  0.00  0.00     0.209 HD
ATOM    124  H   NAG d1179      14.167  -9.918   3.980  0.00  0.00     0.132 H 
ATOM    125  H   NAG d1179      14.845  -8.566   2.229  0.00  0.00     0.090 H 
ATOM    126  H   NAG d1179      11.319  -9.901   2.871  0.00  0.00     0.084 H 
ATOM    127  H   NAG d1179      11.979 -13.896   4.395  0.00  0.00     0.040 H 
ATOM    128  H   NAG d1179      10.691 -14.409   3.330  0.00  0.00     0.040 H 
ATOM    129  H   NAG d1179      10.312 -13.670   4.868  0.00  0.00     0.040 H 
ATOM    130  H   NAG d1179      13.757 -10.770   1.416  0.00  0.00     0.091 H 
ATOM    131  O5  BDP d1180      13.253 -11.377  -1.203  0.00  0.00    -0.340 OA
ATOM    132  O6A BDP d1180      15.920 -12.280  -3.017  0.00  0.00    -0.646 OA
ATOM    133  O2  BDP d1180      10.617 -13.352   0.317  0.00  0.00    -0.388 OA
ATOM    134  O3  BDP d1180      10.455 -14.029  -2.541  0.00  0.00    -0.390 OA
ATOM    135  C5  BDP d1180      13.766 -12.389  -2.041  0.00  0.00     0.152 C 
ATOM    136  C2  BDP d1180      11.228 -12.648  -0.743  0.00  0.00     0.110 C 
ATOM    137  C3  BDP d1180      11.616 -13.657  -1.820  0.00  0.00     0.092 C 
ATOM    138  C6  BDP d1180      14.786 -11.756  -2.976  0.00  0.00     0.206 C 
ATOM    139  C1  BDP d1180      12.422 -11.874  -0.183  0.00  0.00     0.160 C 
ATOM    140  C4  BDP d1180      12.622 -13.058  -2.787  0.00  0.00     0.103 C 
ATOM    141  O6B BDP d1180      14.433 -10.740  -3.629  0.00  0.00    -0.646 OA
ATOM    142  O4  BDP d1180      13.137 -14.100  -3.571  0.00  0.00    -0.348 OA
ATOM    143  H   BDP d1180      10.362 -12.729   1.015  0.00  0.00     0.210 HD
ATOM    144  H   BDP d1180       9.805 -14.413  -1.932  0.00  0.00     0.210 HD
ATOM    145  H   BDP d1180      14.258 -13.153  -1.477  0.00  0.00     0.104 H 
ATOM    146  H   BDP d1180      10.570 -11.933  -1.192  0.00  0.00     0.094 H 
ATOM    147  H   BDP d1180      12.057 -14.509  -1.346  0.00  0.00     0.091 H 
ATOM    148  H   BDP d1180      13.009 -12.530   0.425  0.00  0.00     0.133 H 
ATOM    149  H   BDP d1180      12.138 -12.318  -3.390  0.00  0.00     0.092 H 
ATOM    150  C3  BDP d1176      11.398 -12.963  16.473  0.00  0.00     0.092 C 
ATOM    151  O4  BDP d1176      11.267 -11.942  14.229  0.00  0.00    -0.348 OA
ATOM    152  O3  BDP d1176      12.816 -13.070  16.517  0.00  0.00    -0.390 OA
ATOM    153  O5  BDP d1176       8.859 -14.171  15.947  0.00  0.00    -0.340 OA
ATOM    154  O2  BDP d1176      11.168 -13.827  18.709  0.00  0.00    -0.388 OA
ATOM    155  C1  BDP d1176       9.267 -14.122  17.298  0.00  0.00     0.160 C 
ATOM    156  O6B BDP d1176       7.993 -12.518  13.257  0.00  0.00    -0.646 OA
ATOM    157  C5  BDP d1176       9.333 -13.105  15.119  0.00  0.00     0.152 C 
ATOM    158  O6A BDP d1176       8.980 -14.514  13.225  0.00  0.00    -0.646 OA
ATOM    159  C6  BDP d1176       8.737 -13.400  13.763  0.00  0.00     0.206 C 
ATOM    160  C4  BDP d1176      10.860 -13.038  15.034  0.00  0.00     0.103 C 
ATOM    161  C2  BDP d1176      10.795 -14.059  17.362  0.00  0.00     0.110 C 
ATOM    162  H   BDP d1176      11.107 -12.004  16.847  0.00  0.00     0.091 H 
ATOM    163  H   BDP d1176      13.085 -13.939  16.178  0.00  0.00     0.210 HD
ATOM    164  H   BDP d1176      12.135 -13.783  18.774  0.00  0.00     0.210 HD
ATOM    165  H   BDP d1176       8.830 -13.261  17.759  0.00  0.00     0.133 H 
ATOM    166  H   BDP d1176       9.045 -12.154  15.516  0.00  0.00     0.104 H 
ATOM    167  H   BDP d1176      11.265 -13.907  14.560  0.00  0.00     0.092 H 
ATOM    168  H   BDP d1176      11.175 -14.990  16.995  0.00  0.00     0.094 H 
ENDROOT
TORSDOF 43
ENDMDL
MODEL 35
REMARK VINA RESULT:      -6.4      4.225     18.868
REMARK  0 active torsions:
REMARK  status: ('A' for Active; 'I' for Inactive)
REMARK       I    between atoms: C3_1  and  O3_90 
REMARK       I    between atoms: O1_4  and  C1_76 
REMARK       I    between atoms: C2_5  and  N2_21 
REMARK       I    between atoms: C8_6  and  C7_66 
REMARK       I    between atoms: C4_7  and  O4_24 
REMARK       I    between atoms: N2_9  and  C2_60 
REMARK       I    between atoms: N2_9  and  C7_69 
REMARK       I    between atoms: O4_12  and  C4_26 
REMARK       I    between atoms: O3_13  and  C3_65 
REMARK       I    between atoms: O3_13  and  C1_61 
REMARK       I    between atoms: C3_14  and  O3_35 
REMARK       I    between atoms: C6_15  and  C5_53 
REMARK       I    between atoms: C6_15  and  O6_46 
REMARK       I    between atoms: O6_16  and  C6_54 
REMARK       I    between atoms: C4_17  and  O4_49 
REMARK       I    between atoms: O4_18  and  C4_28 
REMARK       I    between atoms: O4_18  and  C1_47 
REMARK       I    between atoms: C3_19  and  O3_43 
REMARK       I    between atoms: C1_20  and  O4_91 
REMARK       I    between atoms: N2_21  and  C7_66 
REMARK       I    between atoms: O3_22  and  C3_82 
REMARK       I    between atoms: C7_23  and  C8_62 
REMARK       I    between atoms: C7_23  and  N2_51 
REMARK       I    between atoms: C2_25  and  N2_41 
REMARK       I    between atoms: C1_27  and  O3_90 
REMARK       I    between atoms: O6_29  and  C6_74 
REMARK       I    between atoms: O2_30  and  C2_37 
REMARK       I    between atoms: C2_31  and  O2_42 
REMARK       I    between atoms: O3_32  and  C3_45 
REMARK       I    between atoms: O4_33  and  C4_73 
REMARK       I    between atoms: O4_34  and  C4_84 
REMARK       I    between atoms: O4_34  and  C1_85 
REMARK       I    between atoms: C5_36  and  C6_48 
REMARK       I    between atoms: C6_38  and  C5_40 
REMARK       I    between atoms: C6_38  and  O6_89 
REMARK       I    between atoms: N2_41  and  C7_50 
REMARK       I    between atoms: C5_44  and  C6_74 
REMARK       I    between atoms: C7_50  and  C8_75 
REMARK       I    between atoms: N2_51  and  C2_58 
REMARK       I    between atoms: C1_52  and  O3_87 
REMARK       I    between atoms: C6_54  and  C5_86 
REMARK       I    between atoms: O2_59  and  C2_93 
REMARK       I    between atoms: C8_64  and  C7_69 
REMARK       I    between atoms: C6_70  and  C5_80 
REMARK       I    between atoms: C4_72  and  O4_91 
REMARK       I    between atoms: C5_77  and  C6_79 
REMARK       I    between atoms: C3_83  and  O3_87 
ROOT
ATOM      1  C3  NAG d1177      13.262  -9.461  10.411  0.00  0.00     0.093 C 
ATOM      2  O7  NAG d1177      15.754 -12.161   9.172  0.00  0.00    -0.274 OA
ATOM      3  C4  NAG d1177      13.387  -7.940  10.609  0.00  0.00     0.089 C 
ATOM      4  C2  NAG d1177      13.951  -9.885   9.124  0.00  0.00     0.087 C 
ATOM      5  C6  NAG d1177      13.222  -5.666   9.464  0.00  0.00     0.043 C 
ATOM      6  C5  NAG d1177      12.989  -7.182   9.353  0.00  0.00     0.089 C 
ATOM      7  N2  NAG d1177      13.653 -11.286   8.773  0.00  0.00    -0.349 N 
ATOM      8  O4  NAG d1177      12.585  -7.512  11.693  0.00  0.00    -0.390 OA
ATOM      9  C7  NAG d1177      14.534 -12.288   8.833  0.00  0.00     0.214 C 
ATOM     10  O5  NAG d1177      13.732  -7.663   8.240  0.00  0.00    -0.349 OA
ATOM     11  C8  NAG d1177      13.937 -13.598   8.389  0.00  0.00    -0.003 C 
ATOM     12  C1  NAG d1177      13.493  -9.020   7.951  0.00  0.00     0.154 C 
ATOM     13  O6  NAG d1177      14.599  -5.375   9.630  0.00  0.00    -0.398 OA
ATOM     14  O3  NAG d1177      13.912 -10.126  11.459  0.00  0.00    -0.348 OA
ATOM     15  H   NAG d1177      12.221  -9.705  10.379  0.00  0.00     0.091 H 
ATOM     16  H   NAG d1177      14.414  -7.729  10.822  0.00  0.00     0.091 H 
ATOM     17  H   NAG d1177      15.001  -9.770   9.299  0.00  0.00     0.084 H 
ATOM     18  H   NAG d1177      12.680  -5.290  10.306  0.00  0.00     0.078 H 
ATOM     19  H   NAG d1177      12.882  -5.202   8.562  0.00  0.00     0.078 H 
ATOM     20  H   NAG d1177      11.940  -7.348   9.223  0.00  0.00     0.090 H 
ATOM     21  H   NAG d1177      12.739 -11.498   8.474  0.00  0.00     0.163 HD
ATOM     22  H   NAG d1177      11.654  -7.702  11.501  0.00  0.00     0.210 HD
ATOM     23  H   NAG d1177      14.679 -14.367   8.454  0.00  0.00     0.040 H 
ATOM     24  H   NAG d1177      13.601 -13.512   7.377  0.00  0.00     0.040 H 
ATOM     25  H   NAG d1177      13.109 -13.846   9.020  0.00  0.00     0.040 H 
ATOM     26  H   NAG d1177      12.443  -9.147   7.794  0.00  0.00     0.132 H 
ATOM     27  H   NAG d1177      14.921  -5.790  10.446  0.00  0.00     0.209 HD
ATOM     28  O6A BDP d1178      10.466  -9.361  14.693  0.00  0.00    -0.646 OA
ATOM     29  O4  BDP d1178      11.018 -13.340  14.764  0.00  0.00    -0.348 OA
ATOM     30  O3  BDP d1178      13.860 -13.484  14.786  0.00  0.00    -0.390 OA
ATOM     31  C1  BDP d1178      13.061 -11.068  12.127  0.00  0.00     0.160 C 
ATOM     32  C4  BDP d1178      11.853 -12.262  14.410  0.00  0.00     0.103 C 
ATOM     33  C2  BDP d1178      13.933 -11.846  13.090  0.00  0.00     0.110 C 
ATOM     34  O2  BDP d1178      14.989 -12.467  12.404  0.00  0.00    -0.388 OA
ATOM     35  O6B BDP d1178       8.926 -10.949  14.398  0.00  0.00    -0.646 OA
ATOM     36  O5  BDP d1178      12.034 -10.426  12.861  0.00  0.00    -0.340 OA
ATOM     37  C6  BDP d1178      10.089 -10.481  14.245  0.00  0.00     0.206 C 
ATOM     38  C5  BDP d1178      11.121 -11.313  13.474  0.00  0.00     0.152 C 
ATOM     39  C3  BDP d1178      13.091 -12.901  13.750  0.00  0.00     0.092 C 
ATOM     40  H   BDP d1178      13.338 -14.171  15.230  0.00  0.00     0.210 HD
ATOM     41  H   BDP d1178      12.592 -11.697  11.400  0.00  0.00     0.133 H 
ATOM     42  H   BDP d1178      12.140 -11.670  15.254  0.00  0.00     0.092 H 
ATOM     43  H   BDP d1178      14.340 -11.176  13.818  0.00  0.00     0.094 H 
ATOM     44  H   BDP d1178      14.630 -13.077  11.741  0.00  0.00     0.210 HD
ATOM     45  H   BDP d1178      10.629 -11.905  12.732  0.00  0.00     0.104 H 
ATOM     46  H   BDP d1178      12.785 -13.618  13.018  0.00  0.00     0.091 H 
ATOM     47  O1  NAG d1175      13.541  -8.397  -3.384  0.00  0.00    -0.369 OA
ATOM     48  O3  NAG d1175      13.367  -8.507   1.294  0.00  0.00    -0.348 OA
ATOM     49  O6  NAG d1175      11.796 -13.020  -2.546  0.00  0.00    -0.398 OA
ATOM     50  C7  NAG d1175      14.223  -6.116  -0.454  0.00  0.00     0.214 C 
ATOM     51  O4  NAG d1175      12.671 -11.413   1.106  0.00  0.00    -0.390 OA
ATOM     52  N2  NAG d1175      14.375  -7.296  -1.067  0.00  0.00    -0.349 N 
ATOM     53  C6  NAG d1175      11.502 -12.166  -1.472  0.00  0.00     0.043 C 
ATOM     54  C2  NAG d1175      13.418  -8.413  -1.033  0.00  0.00     0.087 C 
ATOM     55  C8  NAG d1175      12.851  -5.684  -0.048  0.00  0.00    -0.003 C 
ATOM     56  O7  NAG d1175      15.191  -5.375  -0.218  0.00  0.00    -0.274 OA
ATOM     57  C3  NAG d1175      13.591  -9.331   0.167  0.00  0.00     0.093 C 
ATOM     58  C4  NAG d1175      12.564 -10.466   0.043  0.00  0.00     0.089 C 
ATOM     59  C1  NAG d1175      13.605  -9.259  -2.284  0.00  0.00     0.151 C 
ATOM     60  C5  NAG d1175      12.635 -11.162  -1.321  0.00  0.00     0.089 C 
ATOM     61  O5  NAG d1175      12.576 -10.233  -2.388  0.00  0.00    -0.349 OA
ATOM     62  H   NAG d1175      14.243  -7.731  -3.315  0.00  0.00     0.212 HD
ATOM     63  H   NAG d1175      11.079 -13.664  -2.651  0.00  0.00     0.209 HD
ATOM     64  H   NAG d1175      12.623 -10.951   1.958  0.00  0.00     0.210 HD
ATOM     65  H   NAG d1175      15.201  -7.429  -1.587  0.00  0.00     0.163 HD
ATOM     66  H   NAG d1175      11.407 -12.739  -0.574  0.00  0.00     0.078 H 
ATOM     67  H   NAG d1175      10.582 -11.651  -1.658  0.00  0.00     0.078 H 
ATOM     68  H   NAG d1175      12.444  -7.973  -0.970  0.00  0.00     0.084 H 
ATOM     69  H   NAG d1175      12.144  -6.437  -0.327  0.00  0.00     0.040 H 
ATOM     70  H   NAG d1175      12.606  -4.765  -0.540  0.00  0.00     0.040 H 
ATOM     71  H   NAG d1175      12.821  -5.541   1.012  0.00  0.00     0.040 H 
ATOM     72  H   NAG d1175      14.554  -9.790   0.242  0.00  0.00     0.091 H 
ATOM     73  H   NAG d1175      11.601 -10.005   0.122  0.00  0.00     0.091 H 
ATOM     74  H   NAG d1175      14.544  -9.771  -2.244  0.00  0.00     0.132 H 
ATOM     75  H   NAG d1175      13.575 -11.671  -1.363  0.00  0.00     0.090 H 
ATOM     76  C2  NAG d1181       0.576 -15.248  20.606  0.00  0.00     0.087 C 
ATOM     77  C8  NAG d1181      -0.497 -12.513  20.500  0.00  0.00    -0.003 C 
ATOM     78  O5  NAG d1181       1.421 -17.168  19.339  0.00  0.00    -0.349 OA
ATOM     79  O4  NAG d1181      -1.822 -18.043  20.839  0.00  0.00    -0.390 OA
ATOM     80  C3  NAG d1181      -0.398 -16.168  21.324  0.00  0.00     0.086 C 
ATOM     81  C1  NAG d1181       1.792 -16.017  20.084  0.00  0.00     0.154 C 
ATOM     82  N2  NAG d1181       1.011 -14.169  21.477  0.00  0.00    -0.349 N 
ATOM     83  C4  NAG d1181      -0.788 -17.240  20.313  0.00  0.00     0.089 C 
ATOM     84  O6  NAG d1181       0.381 -19.059  17.782  0.00  0.00    -0.398 OA
ATOM     85  O3  NAG d1181      -1.522 -15.460  21.821  0.00  0.00    -0.391 OA
ATOM     86  C5  NAG d1181       0.491 -18.031  19.989  0.00  0.00     0.089 C 
ATOM     87  O7  NAG d1181       1.563 -11.984  21.529  0.00  0.00    -0.274 OA
ATOM     88  C7  NAG d1181       0.778 -12.875  21.208  0.00  0.00     0.214 C 
ATOM     89  C6  NAG d1181       0.261 -19.307  19.168  0.00  0.00     0.043 C 
ATOM     90  H   NAG d1181       0.058 -14.831  19.769  0.00  0.00     0.084 H 
ATOM     91  H   NAG d1181      -1.057 -13.402  20.297  0.00  0.00     0.040 H 
ATOM     92  H   NAG d1181      -0.267 -12.019  19.579  0.00  0.00     0.040 H 
ATOM     93  H   NAG d1181      -1.076 -11.861  21.119  0.00  0.00     0.040 H 
ATOM     94  H   NAG d1181      -2.599 -17.491  21.022  0.00  0.00     0.210 HD
ATOM     95  H   NAG d1181       0.050 -16.609  22.189  0.00  0.00     0.090 H 
ATOM     96  H   NAG d1181       2.397 -16.399  20.879  0.00  0.00     0.132 H 
ATOM     97  H   NAG d1181       1.499 -14.398  22.301  0.00  0.00     0.163 HD
ATOM     98  H   NAG d1181      -1.178 -16.822  19.408  0.00  0.00     0.091 H 
ATOM     99  H   NAG d1181       0.230 -19.883  17.292  0.00  0.00     0.209 HD
ATOM    100  H   NAG d1181      -1.984 -15.029  21.085  0.00  0.00     0.210 HD
ATOM    101  H   NAG d1181       0.885 -18.375  20.922  0.00  0.00     0.090 H 
ATOM    102  H   NAG d1181       0.985 -20.040  19.454  0.00  0.00     0.078 H 
ATOM    103  H   NAG d1181      -0.732 -19.657  19.362  0.00  0.00     0.078 H 
ATOM    104  C4  NAG d1179       9.523 -14.942  18.306  0.00  0.00     0.089 C 
ATOM    105  N2  NAG d1179       8.319 -13.622  14.933  0.00  0.00    -0.349 N 
ATOM    106  C6  NAG d1179      11.858 -14.537  19.197  0.00  0.00     0.043 C 
ATOM    107  O4  NAG d1179       8.932 -14.925  19.602  0.00  0.00    -0.390 OA
ATOM    108  O6  NAG d1179      12.403 -15.735  18.682  0.00  0.00    -0.398 OA
ATOM    109  C1  NAG d1179      10.442 -13.350  16.073  0.00  0.00     0.154 C 
ATOM    110  C5  NAG d1179      10.750 -14.035  18.287  0.00  0.00     0.089 C 
ATOM    111  O5  NAG d1179      11.294 -13.981  16.980  0.00  0.00    -0.349 OA
ATOM    112  C2  NAG d1179       9.196 -14.218  15.925  0.00  0.00     0.087 C 
ATOM    113  C8  NAG d1179       7.008 -13.570  12.938  0.00  0.00    -0.003 C 
ATOM    114  C7  NAG d1179       7.752 -14.347  13.971  0.00  0.00     0.214 C 
ATOM    115  C3  NAG d1179       8.508 -14.454  17.280  0.00  0.00     0.093 C 
ATOM    116  O3  NAG d1179       7.494 -15.439  17.143  0.00  0.00    -0.348 OA
ATOM    117  O7  NAG d1179       7.807 -15.571  13.915  0.00  0.00    -0.274 OA
ATOM    118  H   NAG d1179       9.822 -15.941  18.065  0.00  0.00     0.091 H 
ATOM    119  H   NAG d1179       8.139 -12.655  14.973  0.00  0.00     0.163 HD
ATOM    120  H   NAG d1179      11.459 -14.720  20.173  0.00  0.00     0.078 H 
ATOM    121  H   NAG d1179      12.628 -13.797  19.255  0.00  0.00     0.078 H 
ATOM    122  H   NAG d1179       8.659 -14.021  19.822  0.00  0.00     0.210 HD
ATOM    123  H   NAG d1179      11.707 -16.409  18.628  0.00  0.00     0.209 HD
ATOM    124  H   NAG d1179      10.249 -12.360  16.428  0.00  0.00     0.132 H 
ATOM    125  H   NAG d1179      10.416 -13.075  18.622  0.00  0.00     0.090 H 
ATOM    126  H   NAG d1179       9.474 -15.191  15.578  0.00  0.00     0.084 H 
ATOM    127  H   NAG d1179       7.076 -12.525  13.158  0.00  0.00     0.040 H 
ATOM    128  H   NAG d1179       5.980 -13.868  12.939  0.00  0.00     0.040 H 
ATOM    129  H   NAG d1179       7.432 -13.759  11.974  0.00  0.00     0.040 H 
ATOM    130  H   NAG d1179       8.079 -13.531  17.606  0.00  0.00     0.091 H 
ATOM    131  O5  BDP d1180       6.075 -14.892  18.876  0.00  0.00    -0.340 OA
ATOM    132  O6A BDP d1180       4.464 -13.192  21.270  0.00  0.00    -0.646 OA
ATOM    133  O2  BDP d1180       5.150 -15.656  15.453  0.00  0.00    -0.388 OA
ATOM    134  O3  BDP d1180       2.973 -16.819  17.054  0.00  0.00    -0.390 OA
ATOM    135  C5  BDP d1180       4.799 -14.480  19.313  0.00  0.00     0.152 C 
ATOM    136  C2  BDP d1180       5.170 -15.883  16.846  0.00  0.00     0.110 C 
ATOM    137  C3  BDP d1180       3.753 -15.682  17.378  0.00  0.00     0.092 C 
ATOM    138  C6  BDP d1180       4.853 -14.291  20.821  0.00  0.00     0.206 C 
ATOM    139  C1  BDP d1180       6.192 -14.937  17.475  0.00  0.00     0.160 C 
ATOM    140  C4  BDP d1180       3.761 -15.507  18.887  0.00  0.00     0.103 C 
ATOM    141  O6B BDP d1180       5.303 -15.240  21.515  0.00  0.00    -0.646 OA
ATOM    142  O4  BDP d1180       2.490 -15.058  19.273  0.00  0.00    -0.348 OA
ATOM    143  H   BDP d1180       6.042 -15.779  15.092  0.00  0.00     0.210 HD
ATOM    144  H   BDP d1180       2.962 -16.940  16.092  0.00  0.00     0.210 HD
ATOM    145  H   BDP d1180       4.514 -13.549  18.869  0.00  0.00     0.104 H 
ATOM    146  H   BDP d1180       5.468 -16.881  17.093  0.00  0.00     0.094 H 
ATOM    147  H   BDP d1180       3.343 -14.800  16.930  0.00  0.00     0.091 H 
ATOM    148  H   BDP d1180       6.027 -13.947  17.103  0.00  0.00     0.133 H 
ATOM    149  H   BDP d1180       4.004 -16.440  19.351  0.00  0.00     0.092 H 
ATOM    150  C3  BDP d1176      14.611  -7.948   4.829  0.00  0.00     0.092 C 
ATOM    151  O4  BDP d1176      14.182  -9.426   6.760  0.00  0.00    -0.348 OA
ATOM    152  O3  BDP d1176      14.629  -6.730   5.563  0.00  0.00    -0.390 OA
ATOM    153  O5  BDP d1176      13.172  -9.823   3.218  0.00  0.00    -0.340 OA
ATOM    154  O2  BDP d1176      15.144  -6.826   2.767  0.00  0.00    -0.388 OA
ATOM    155  C1  BDP d1176      13.997  -8.904   2.533  0.00  0.00     0.160 C 
ATOM    156  O6B BDP d1176      12.971 -12.331   5.314  0.00  0.00    -0.646 OA
ATOM    157  C5  BDP d1176      13.613 -10.191   4.529  0.00  0.00     0.152 C 
ATOM    158  O6A BDP d1176      11.364 -10.815   5.032  0.00  0.00    -0.646 OA
ATOM    159  C6  BDP d1176      12.571 -11.177   5.003  0.00  0.00     0.206 C 
ATOM    160  C4  BDP d1176      13.709  -9.003   5.491  0.00  0.00     0.103 C 
ATOM    161  C2  BDP d1176      14.173  -7.648   3.390  0.00  0.00     0.110 C 
ATOM    162  H   BDP d1176      15.596  -8.367   4.820  0.00  0.00     0.091 H 
ATOM    163  H   BDP d1176      13.738  -6.346   5.574  0.00  0.00     0.210 HD
ATOM    164  H   BDP d1176      15.273  -6.022   3.294  0.00  0.00     0.210 HD
ATOM    165  H   BDP d1176      14.941  -9.368   2.337  0.00  0.00     0.133 H 
ATOM    166  H   BDP d1176      14.604 -10.593   4.502  0.00  0.00     0.104 H 
ATOM    167  H   BDP d1176      12.748  -8.569   5.674  0.00  0.00     0.092 H 
ATOM    168  H   BDP d1176      13.221  -7.164   3.457  0.00  0.00     0.094 H 
ENDROOT
TORSDOF 43
ENDMDL
MODEL 36
REMARK VINA RESULT:      -6.4      2.924      4.044
REMARK  0 active torsions:
REMARK  status: ('A' for Active; 'I' for Inactive)
REMARK       I    between atoms: C3_1  and  O3_90 
REMARK       I    between atoms: O1_4  and  C1_76 
REMARK       I    between atoms: C2_5  and  N2_21 
REMARK       I    between atoms: C8_6  and  C7_66 
REMARK       I    between atoms: C4_7  and  O4_24 
REMARK       I    between atoms: N2_9  and  C2_60 
REMARK       I    between atoms: N2_9  and  C7_69 
REMARK       I    between atoms: O4_12  and  C4_26 
REMARK       I    between atoms: O3_13  and  C3_65 
REMARK       I    between atoms: O3_13  and  C1_61 
REMARK       I    between atoms: C3_14  and  O3_35 
REMARK       I    between atoms: C6_15  and  C5_53 
REMARK       I    between atoms: C6_15  and  O6_46 
REMARK       I    between atoms: O6_16  and  C6_54 
REMARK       I    between atoms: C4_17  and  O4_49 
REMARK       I    between atoms: O4_18  and  C4_28 
REMARK       I    between atoms: O4_18  and  C1_47 
REMARK       I    between atoms: C3_19  and  O3_43 
REMARK       I    between atoms: C1_20  and  O4_91 
REMARK       I    between atoms: N2_21  and  C7_66 
REMARK       I    between atoms: O3_22  and  C3_82 
REMARK       I    between atoms: C7_23  and  C8_62 
REMARK       I    between atoms: C7_23  and  N2_51 
REMARK       I    between atoms: C2_25  and  N2_41 
REMARK       I    between atoms: C1_27  and  O3_90 
REMARK       I    between atoms: O6_29  and  C6_74 
REMARK       I    between atoms: O2_30  and  C2_37 
REMARK       I    between atoms: C2_31  and  O2_42 
REMARK       I    between atoms: O3_32  and  C3_45 
REMARK       I    between atoms: O4_33  and  C4_73 
REMARK       I    between atoms: O4_34  and  C4_84 
REMARK       I    between atoms: O4_34  and  C1_85 
REMARK       I    between atoms: C5_36  and  C6_48 
REMARK       I    between atoms: C6_38  and  C5_40 
REMARK       I    between atoms: C6_38  and  O6_89 
REMARK       I    between atoms: N2_41  and  C7_50 
REMARK       I    between atoms: C5_44  and  C6_74 
REMARK       I    between atoms: C7_50  and  C8_75 
REMARK       I    between atoms: N2_51  and  C2_58 
REMARK       I    between atoms: C1_52  and  O3_87 
REMARK       I    between atoms: C6_54  and  C5_86 
REMARK       I    between atoms: O2_59  and  C2_93 
REMARK       I    between atoms: C8_64  and  C7_69 
REMARK       I    between atoms: C6_70  and  C5_80 
REMARK       I    between atoms: C4_72  and  O4_91 
REMARK       I    between atoms: C5_77  and  C6_79 
REMARK       I    between atoms: C3_83  and  O3_87 
ROOT
ATOM      1  C3  NAG d1177      11.993 -11.232  13.269  0.00  0.00     0.093 C 
ATOM      2  O7  NAG d1177       9.418  -8.366  13.704  0.00  0.00    -0.274 OA
ATOM      3  C4  NAG d1177      13.150 -11.737  14.149  0.00  0.00     0.089 C 
ATOM      4  C2  NAG d1177      10.784 -10.894  14.125  0.00  0.00     0.087 C 
ATOM      5  C6  NAG d1177      13.777 -13.260  16.098  0.00  0.00     0.043 C 
ATOM      6  C5  NAG d1177      12.684 -12.819  15.110  0.00  0.00     0.089 C 
ATOM      7  N2  NAG d1177       9.583 -10.637  13.310  0.00  0.00    -0.349 N 
ATOM      8  O4  NAG d1177      14.203 -12.238  13.349  0.00  0.00    -0.390 OA
ATOM      9  C7  NAG d1177       9.016  -9.439  13.150  0.00  0.00     0.214 C 
ATOM     10  O5  NAG d1177      11.571 -12.353  15.863  0.00  0.00    -0.349 OA
ATOM     11  C8  NAG d1177       7.788  -9.501  12.279  0.00  0.00    -0.003 C 
ATOM     12  C1  NAG d1177      10.448 -12.046  15.071  0.00  0.00     0.154 C 
ATOM     13  O6  NAG d1177      14.167 -12.187  16.937  0.00  0.00    -0.398 OA
ATOM     14  O3  NAG d1177      12.378 -10.050  12.622  0.00  0.00    -0.348 OA
ATOM     15  H   NAG d1177      11.753 -12.002  12.565  0.00  0.00     0.091 H 
ATOM     16  H   NAG d1177      13.503 -10.904  14.721  0.00  0.00     0.091 H 
ATOM     17  H   NAG d1177      11.047 -10.012  14.672  0.00  0.00     0.084 H 
ATOM     18  H   NAG d1177      14.629 -13.601  15.547  0.00  0.00     0.078 H 
ATOM     19  H   NAG d1177      13.387 -14.046  16.709  0.00  0.00     0.078 H 
ATOM     20  H   NAG d1177      12.421 -13.662  14.507  0.00  0.00     0.090 H 
ATOM     21  H   NAG d1177       9.170 -11.403  12.849  0.00  0.00     0.163 HD
ATOM     22  H   NAG d1177      13.884 -12.993  12.830  0.00  0.00     0.210 HD
ATOM     23  H   NAG d1177       7.370  -8.521  12.181  0.00  0.00     0.040 H 
ATOM     24  H   NAG d1177       7.067 -10.153  12.725  0.00  0.00     0.040 H 
ATOM     25  H   NAG d1177       8.055  -9.873  11.312  0.00  0.00     0.040 H 
ATOM     26  H   NAG d1177      10.191 -12.917  14.506  0.00  0.00     0.132 H 
ATOM     27  H   NAG d1177      14.523 -11.465  16.395  0.00  0.00     0.209 HD
ATOM     28  O6A BDP d1178      15.127 -12.195   9.342  0.00  0.00    -0.646 OA
ATOM     29  O4  BDP d1178      12.591  -9.947   7.184  0.00  0.00    -0.348 OA
ATOM     30  O3  BDP d1178      12.663  -7.507   8.647  0.00  0.00    -0.390 OA
ATOM     31  C1  BDP d1178      12.214 -10.122  11.198  0.00  0.00     0.160 C 
ATOM     32  C4  BDP d1178      13.079  -9.847   8.501  0.00  0.00     0.103 C 
ATOM     33  C2  BDP d1178      12.472  -8.732  10.653  0.00  0.00     0.110 C 
ATOM     34  O2  BDP d1178      11.604  -7.802  11.249  0.00  0.00    -0.388 OA
ATOM     35  O6B BDP d1178      13.778 -12.872   7.698  0.00  0.00    -0.646 OA
ATOM     36  O5  BDP d1178      13.134 -11.020  10.605  0.00  0.00    -0.340 OA
ATOM     37  C6  BDP d1178      14.034 -12.161   8.709  0.00  0.00     0.206 C 
ATOM     38  C5  BDP d1178      12.961 -11.186   9.212  0.00  0.00     0.152 C 
ATOM     39  C3  BDP d1178      12.229  -8.749   9.171  0.00  0.00     0.092 C 
ATOM     40  H   BDP d1178      12.517  -7.492   7.687  0.00  0.00     0.210 HD
ATOM     41  H   BDP d1178      11.229 -10.473  10.974  0.00  0.00     0.133 H 
ATOM     42  H   BDP d1178      14.118  -9.591   8.537  0.00  0.00     0.092 H 
ATOM     43  H   BDP d1178      13.481  -8.450  10.869  0.00  0.00     0.094 H 
ATOM     44  H   BDP d1178      10.685  -8.050  11.059  0.00  0.00     0.210 HD
ATOM     45  H   BDP d1178      11.988 -11.578   9.005  0.00  0.00     0.104 H 
ATOM     46  H   BDP d1178      11.190  -8.927   8.985  0.00  0.00     0.091 H 
ATOM     47  O1  NAG d1175       2.348 -16.019  21.960  0.00  0.00    -0.369 OA
ATOM     48  O3  NAG d1175       5.780 -14.572  19.122  0.00  0.00    -0.348 OA
ATOM     49  O6  NAG d1175      -0.157 -15.147  17.709  0.00  0.00    -0.398 OA
ATOM     50  C7  NAG d1175       6.086 -15.495  22.048  0.00  0.00     0.214 C 
ATOM     51  O4  NAG d1175       3.689 -13.926  17.078  0.00  0.00    -0.390 OA
ATOM     52  N2  NAG d1175       4.856 -15.047  21.764  0.00  0.00    -0.349 N 
ATOM     53  C6  NAG d1175       1.195 -15.416  17.453  0.00  0.00     0.043 C 
ATOM     54  C2  NAG d1175       4.097 -15.339  20.538  0.00  0.00     0.087 C 
ATOM     55  C8  NAG d1175       6.602 -16.697  21.324  0.00  0.00    -0.003 C 
ATOM     56  O7  NAG d1175       6.802 -14.940  22.896  0.00  0.00    -0.274 OA
ATOM     57  C3  NAG d1175       4.403 -14.392  19.388  0.00  0.00     0.093 C 
ATOM     58  C4  NAG d1175       3.508 -14.786  18.204  0.00  0.00     0.089 C 
ATOM     59  C1  NAG d1175       2.610 -15.220  20.842  0.00  0.00     0.151 C 
ATOM     60  C5  NAG d1175       2.029 -14.868  18.600  0.00  0.00     0.089 C 
ATOM     61  O5  NAG d1175       1.836 -15.680  19.743  0.00  0.00    -0.349 OA
ATOM     62  H   NAG d1175       2.875 -15.706  22.713  0.00  0.00     0.212 HD
ATOM     63  H   NAG d1175      -0.699 -15.493  16.983  0.00  0.00     0.209 HD
ATOM     64  H   NAG d1175       4.630 -13.890  16.846  0.00  0.00     0.210 HD
ATOM     65  H   NAG d1175       4.423 -14.472  22.435  0.00  0.00     0.163 HD
ATOM     66  H   NAG d1175       1.488 -14.946  16.538  0.00  0.00     0.078 H 
ATOM     67  H   NAG d1175       1.346 -16.473  17.366  0.00  0.00     0.078 H 
ATOM     68  H   NAG d1175       4.382 -16.325  20.235  0.00  0.00     0.084 H 
ATOM     69  H   NAG d1175       5.859 -17.045  20.637  0.00  0.00     0.040 H 
ATOM     70  H   NAG d1175       6.825 -17.470  22.030  0.00  0.00     0.040 H 
ATOM     71  H   NAG d1175       7.490 -16.436  20.788  0.00  0.00     0.040 H 
ATOM     72  H   NAG d1175       4.208 -13.361  19.597  0.00  0.00     0.091 H 
ATOM     73  H   NAG d1175       3.820 -15.767  17.911  0.00  0.00     0.091 H 
ATOM     74  H   NAG d1175       2.353 -14.197  21.024  0.00  0.00     0.132 H 
ATOM     75  H   NAG d1175       1.713 -13.872  18.831  0.00  0.00     0.090 H 
ATOM     76  C2  NAG d1181      15.169 -15.879  -3.062  0.00  0.00     0.087 C 
ATOM     77  C8  NAG d1181      16.832 -18.021  -1.928  0.00  0.00    -0.003 C 
ATOM     78  O5  NAG d1181      12.999 -14.741  -3.041  0.00  0.00    -0.349 OA
ATOM     79  O4  NAG d1181      13.377 -16.562  -6.215  0.00  0.00    -0.390 OA
ATOM     80  C3  NAG d1181      15.051 -16.047  -4.568  0.00  0.00     0.086 C 
ATOM     81  C1  NAG d1181      14.336 -14.697  -2.563  0.00  0.00     0.154 C 
ATOM     82  N2  NAG d1181      16.556 -15.708  -2.664  0.00  0.00    -0.349 N 
ATOM     83  C4  NAG d1181      13.566 -16.230  -4.857  0.00  0.00     0.089 C 
ATOM     84  O6  NAG d1181      10.529 -15.283  -3.873  0.00  0.00    -0.398 OA
ATOM     85  O3  NAG d1181      15.831 -17.134  -5.040  0.00  0.00    -0.391 OA
ATOM     86  C5  NAG d1181      12.870 -14.919  -4.449  0.00  0.00     0.089 C 
ATOM     87  O7  NAG d1181      18.062 -16.200  -1.061  0.00  0.00    -0.274 OA
ATOM     88  C7  NAG d1181      17.194 -16.564  -1.851  0.00  0.00     0.214 C 
ATOM     89  C6  NAG d1181      11.400 -14.816  -4.883  0.00  0.00     0.043 C 
ATOM     90  H   NAG d1181      14.788 -16.772  -2.614  0.00  0.00     0.084 H 
ATOM     91  H   NAG d1181      16.065 -18.161  -2.661  0.00  0.00     0.040 H 
ATOM     92  H   NAG d1181      16.478 -18.352  -0.973  0.00  0.00     0.040 H 
ATOM     93  H   NAG d1181      17.696 -18.589  -2.203  0.00  0.00     0.040 H 
ATOM     94  H   NAG d1181      13.837 -17.393  -6.411  0.00  0.00     0.210 HD
ATOM     95  H   NAG d1181      15.434 -15.192  -5.085  0.00  0.00     0.090 H 
ATOM     96  H   NAG d1181      14.714 -13.761  -2.917  0.00  0.00     0.132 H 
ATOM     97  H   NAG d1181      17.051 -14.928  -3.007  0.00  0.00     0.163 HD
ATOM     98  H   NAG d1181      13.140 -17.038  -4.299  0.00  0.00     0.091 H 
ATOM     99  H   NAG d1181       9.611 -15.205  -4.177  0.00  0.00     0.209 HD
ATOM    100  H   NAG d1181      15.537 -17.952  -4.611  0.00  0.00     0.210 HD
ATOM    101  H   NAG d1181      13.365 -14.131  -4.976  0.00  0.00     0.090 H 
ATOM    102  H   NAG d1181      11.171 -13.793  -5.094  0.00  0.00     0.078 H 
ATOM    103  H   NAG d1181      11.264 -15.425  -5.752  0.00  0.00     0.078 H 
ATOM    104  C4  NAG d1179      14.118  -9.316   3.360  0.00  0.00     0.089 C 
ATOM    105  N2  NAG d1179      12.389 -12.016   5.431  0.00  0.00    -0.349 N 
ATOM    106  C6  NAG d1179      15.178  -7.255   4.381  0.00  0.00     0.043 C 
ATOM    107  O4  NAG d1179      15.070  -9.389   2.304  0.00  0.00    -0.390 OA
ATOM    108  O6  NAG d1179      14.031  -6.440   4.247  0.00  0.00    -0.398 OA
ATOM    109  C1  NAG d1179      13.537  -9.992   6.112  0.00  0.00     0.154 C 
ATOM    110  C5  NAG d1179      14.765  -8.701   4.599  0.00  0.00     0.089 C 
ATOM    111  O5  NAG d1179      13.848  -8.702   5.678  0.00  0.00    -0.349 OA
ATOM    112  C2  NAG d1179      12.789 -10.694   4.984  0.00  0.00     0.087 C 
ATOM    113  C8  NAG d1179      10.855 -13.790   5.883  0.00  0.00    -0.003 C 
ATOM    114  C7  NAG d1179      11.159 -12.485   5.229  0.00  0.00     0.214 C 
ATOM    115  C3  NAG d1179      13.614 -10.716   3.686  0.00  0.00     0.093 C 
ATOM    116  O3  NAG d1179      12.809 -11.170   2.608  0.00  0.00    -0.348 OA
ATOM    117  O7  NAG d1179      10.315 -11.915   4.545  0.00  0.00    -0.274 OA
ATOM    118  H   NAG d1179      13.295  -8.703   3.055  0.00  0.00     0.091 H 
ATOM    119  H   NAG d1179      13.046 -12.582   5.897  0.00  0.00     0.163 HD
ATOM    120  H   NAG d1179      15.768  -7.185   3.492  0.00  0.00     0.078 H 
ATOM    121  H   NAG d1179      15.749  -6.923   5.222  0.00  0.00     0.078 H 
ATOM    122  H   NAG d1179      15.816  -9.944   2.579  0.00  0.00     0.210 HD
ATOM    123  H   NAG d1179      13.510  -6.738   3.485  0.00  0.00     0.209 HD
ATOM    124  H   NAG d1179      14.445 -10.475   6.406  0.00  0.00     0.132 H 
ATOM    125  H   NAG d1179      15.631  -9.295   4.807  0.00  0.00     0.090 H 
ATOM    126  H   NAG d1179      11.902 -10.146   4.742  0.00  0.00     0.084 H 
ATOM    127  H   NAG d1179      11.712 -14.124   6.430  0.00  0.00     0.040 H 
ATOM    128  H   NAG d1179      10.606 -14.514   5.135  0.00  0.00     0.040 H 
ATOM    129  H   NAG d1179      10.029 -13.670   6.553  0.00  0.00     0.040 H 
ATOM    130  H   NAG d1179      14.444 -11.376   3.826  0.00  0.00     0.091 H 
ATOM    131  O5  BDP d1180      14.396 -12.024   1.169  0.00  0.00    -0.340 OA
ATOM    132  O6A BDP d1180      17.227 -13.331  -0.053  0.00  0.00    -0.646 OA
ATOM    133  O2  BDP d1180      11.273 -13.584   2.153  0.00  0.00    -0.388 OA
ATOM    134  O3  BDP d1180      11.595 -14.355  -0.668  0.00  0.00    -0.390 OA
ATOM    135  C5  BDP d1180      14.927 -13.126   0.468  0.00  0.00     0.152 C 
ATOM    136  C2  BDP d1180      12.170 -13.008   1.229  0.00  0.00     0.110 C 
ATOM    137  C3  BDP d1180      12.628 -14.103   0.268  0.00  0.00     0.092 C 
ATOM    138  C6  BDP d1180      16.187 -12.668  -0.251  0.00  0.00     0.206 C 
ATOM    139  C1  BDP d1180      13.320 -12.368   2.007  0.00  0.00     0.160 C 
ATOM    140  C4  BDP d1180      13.877 -13.676  -0.484  0.00  0.00     0.103 C 
ATOM    141  O6B BDP d1180      16.108 -11.643  -0.978  0.00  0.00    -0.646 OA
ATOM    142  O4  BDP d1180      14.395 -14.807  -1.131  0.00  0.00    -0.348 OA
ATOM    143  H   BDP d1180      10.968 -12.905   2.775  0.00  0.00     0.210 HD
ATOM    144  H   BDP d1180      10.792 -14.628  -0.197  0.00  0.00     0.210 HD
ATOM    145  H   BDP d1180      15.192 -13.923   1.132  0.00  0.00     0.104 H 
ATOM    146  H   BDP d1180      11.715 -12.235   0.644  0.00  0.00     0.094 H 
ATOM    147  H   BDP d1180      12.850 -14.983   0.835  0.00  0.00     0.091 H 
ATOM    148  H   BDP d1180      13.683 -13.067   2.731  0.00  0.00     0.133 H 
ATOM    149  H   BDP d1180      13.624 -12.907  -1.184  0.00  0.00     0.092 H 
ATOM    150  C3  BDP d1176       8.868 -12.618  18.124  0.00  0.00     0.092 C 
ATOM    151  O4  BDP d1176       9.323 -11.684  15.885  0.00  0.00    -0.348 OA
ATOM    152  O3  BDP d1176      10.222 -12.902  18.456  0.00  0.00    -0.390 OA
ATOM    153  O5  BDP d1176       6.348 -13.517  17.114  0.00  0.00    -0.340 OA
ATOM    154  O2  BDP d1176       8.086 -13.351  20.280  0.00  0.00    -0.388 OA
ATOM    155  C1  BDP d1176       6.482 -13.463  18.518  0.00  0.00     0.160 C 
ATOM    156  O6B BDP d1176       6.261 -11.882  14.278  0.00  0.00    -0.646 OA
ATOM    157  C5  BDP d1176       7.114 -12.555  16.382  0.00  0.00     0.152 C 
ATOM    158  O6A BDP d1176       6.961 -13.986  14.478  0.00  0.00    -0.646 OA
ATOM    159  C6  BDP d1176       6.766 -12.830  14.938  0.00  0.00     0.206 C 
ATOM    160  C4  BDP d1176       8.623 -12.685  16.607  0.00  0.00     0.103 C 
ATOM    161  C2  BDP d1176       7.961 -13.591  18.889  0.00  0.00     0.110 C 
ATOM    162  H   BDP d1176       8.638 -11.615  18.416  0.00  0.00     0.091 H 
ATOM    163  H   BDP d1176      10.436 -13.811  18.193  0.00  0.00     0.210 HD
ATOM    164  H   BDP d1176       9.018 -13.427  20.539  0.00  0.00     0.210 HD
ATOM    165  H   BDP d1176       6.079 -12.535  18.868  0.00  0.00     0.133 H 
ATOM    166  H   BDP d1176       6.881 -11.559  16.697  0.00  0.00     0.104 H 
ATOM    167  H   BDP d1176       8.996 -13.618  16.239  0.00  0.00     0.092 H 
ATOM    168  H   BDP d1176       8.280 -14.577  18.621  0.00  0.00     0.094 H 
ENDROOT
TORSDOF 43
ENDMDL
MODEL 37
REMARK VINA RESULT:      -6.3      5.587      6.684
REMARK  0 active torsions:
REMARK  status: ('A' for Active; 'I' for Inactive)
REMARK       I    between atoms: C3_1  and  O3_90 
REMARK       I    between atoms: O1_4  and  C1_76 
REMARK       I    between atoms: C2_5  and  N2_21 
REMARK       I    between atoms: C8_6  and  C7_66 
REMARK       I    between atoms: C4_7  and  O4_24 
REMARK       I    between atoms: N2_9  and  C2_60 
REMARK       I    between atoms: N2_9  and  C7_69 
REMARK       I    between atoms: O4_12  and  C4_26 
REMARK       I    between atoms: O3_13  and  C3_65 
REMARK       I    between atoms: O3_13  and  C1_61 
REMARK       I    between atoms: C3_14  and  O3_35 
REMARK       I    between atoms: C6_15  and  C5_53 
REMARK       I    between atoms: C6_15  and  O6_46 
REMARK       I    between atoms: O6_16  and  C6_54 
REMARK       I    between atoms: C4_17  and  O4_49 
REMARK       I    between atoms: O4_18  and  C4_28 
REMARK       I    between atoms: O4_18  and  C1_47 
REMARK       I    between atoms: C3_19  and  O3_43 
REMARK       I    between atoms: C1_20  and  O4_91 
REMARK       I    between atoms: N2_21  and  C7_66 
REMARK       I    between atoms: O3_22  and  C3_82 
REMARK       I    between atoms: C7_23  and  C8_62 
REMARK       I    between atoms: C7_23  and  N2_51 
REMARK       I    between atoms: C2_25  and  N2_41 
REMARK       I    between atoms: C1_27  and  O3_90 
REMARK       I    between atoms: O6_29  and  C6_74 
REMARK       I    between atoms: O2_30  and  C2_37 
REMARK       I    between atoms: C2_31  and  O2_42 
REMARK       I    between atoms: O3_32  and  C3_45 
REMARK       I    between atoms: O4_33  and  C4_73 
REMARK       I    between atoms: O4_34  and  C4_84 
REMARK       I    between atoms: O4_34  and  C1_85 
REMARK       I    between atoms: C5_36  and  C6_48 
REMARK       I    between atoms: C6_38  and  C5_40 
REMARK       I    between atoms: C6_38  and  O6_89 
REMARK       I    between atoms: N2_41  and  C7_50 
REMARK       I    between atoms: C5_44  and  C6_74 
REMARK       I    between atoms: C7_50  and  C8_75 
REMARK       I    between atoms: N2_51  and  C2_58 
REMARK       I    between atoms: C1_52  and  O3_87 
REMARK       I    between atoms: C6_54  and  C5_86 
REMARK       I    between atoms: O2_59  and  C2_93 
REMARK       I    between atoms: C8_64  and  C7_69 
REMARK       I    between atoms: C6_70  and  C5_80 
REMARK       I    between atoms: C4_72  and  O4_91 
REMARK       I    between atoms: C5_77  and  C6_79 
REMARK       I    between atoms: C3_83  and  O3_87 
ROOT
ATOM      1  C3  NAG d1177      14.664 -12.299   7.707  0.00  0.00     0.093 C 
ATOM      2  O7  NAG d1177      15.186  -8.459   7.603  0.00  0.00    -0.274 OA
ATOM      3  C4  NAG d1177      15.497 -13.449   8.301  0.00  0.00     0.089 C 
ATOM      4  C2  NAG d1177      14.649 -11.111   8.655  0.00  0.00     0.087 C 
ATOM      5  C6  NAG d1177      15.989 -14.795  10.412  0.00  0.00     0.043 C 
ATOM      6  C5  NAG d1177      15.095 -13.741   9.738  0.00  0.00     0.089 C 
ATOM      7  N2  NAG d1177      13.675 -10.086   8.241  0.00  0.00    -0.349 N 
ATOM      8  O4  NAG d1177      15.354 -14.621   7.523  0.00  0.00    -0.390 OA
ATOM      9  C7  NAG d1177      13.997  -8.886   7.751  0.00  0.00     0.214 C 
ATOM     10  O5  NAG d1177      15.156 -12.549  10.511  0.00  0.00    -0.349 OA
ATOM     11  C8  NAG d1177      12.781  -8.052   7.442  0.00  0.00    -0.003 C 
ATOM     12  C1  NAG d1177      14.270 -11.549  10.069  0.00  0.00     0.154 C 
ATOM     13  O6  NAG d1177      17.327 -14.339  10.506  0.00  0.00    -0.398 OA
ATOM     14  O3  NAG d1177      15.253 -11.861   6.514  0.00  0.00    -0.348 OA
ATOM     15  H   NAG d1177      13.671 -12.662   7.543  0.00  0.00     0.091 H 
ATOM     16  H   NAG d1177      16.522 -13.139   8.291  0.00  0.00     0.091 H 
ATOM     17  H   NAG d1177      15.638 -10.703   8.632  0.00  0.00     0.084 H 
ATOM     18  H   NAG d1177      15.965 -15.695   9.835  0.00  0.00     0.078 H 
ATOM     19  H   NAG d1177      15.620 -14.974  11.400  0.00  0.00     0.078 H 
ATOM     20  H   NAG d1177      14.098 -14.128   9.696  0.00  0.00     0.090 H 
ATOM     21  H   NAG d1177      12.718 -10.301   8.333  0.00  0.00     0.163 HD
ATOM     22  H   NAG d1177      14.426 -14.903   7.531  0.00  0.00     0.210 HD
ATOM     23  H   NAG d1177      13.089  -7.104   7.053  0.00  0.00     0.040 H 
ATOM     24  H   NAG d1177      12.214  -7.903   8.337  0.00  0.00     0.040 H 
ATOM     25  H   NAG d1177      12.176  -8.556   6.717  0.00  0.00     0.040 H 
ATOM     26  H   NAG d1177      13.281 -11.955  10.071  0.00  0.00     0.132 H 
ATOM     27  H   NAG d1177      17.676 -14.173   9.616  0.00  0.00     0.209 HD
ATOM     28  O6A BDP d1178      13.715 -15.540   3.865  0.00  0.00    -0.646 OA
ATOM     29  O4  BDP d1178      12.462 -12.292   1.861  0.00  0.00    -0.348 OA
ATOM     30  O3  BDP d1178      14.797 -10.668   1.962  0.00  0.00    -0.390 OA
ATOM     31  C1  BDP d1178      14.337 -11.872   5.410  0.00  0.00     0.160 C 
ATOM     32  C4  BDP d1178      13.523 -12.514   2.760  0.00  0.00     0.103 C 
ATOM     33  C2  BDP d1178      15.036 -11.196   4.249  0.00  0.00     0.110 C 
ATOM     34  O2  BDP d1178      15.435  -9.898   4.604  0.00  0.00    -0.388 OA
ATOM     35  O6B BDP d1178      11.631 -15.061   3.226  0.00  0.00    -0.646 OA
ATOM     36  O5  BDP d1178      13.987 -13.189   5.025  0.00  0.00    -0.340 OA
ATOM     37  C6  BDP d1178      12.766 -14.730   3.669  0.00  0.00     0.206 C 
ATOM     38  C5  BDP d1178      13.025 -13.252   3.992  0.00  0.00     0.152 C 
ATOM     39  C3  BDP d1178      14.076 -11.115   3.096  0.00  0.00     0.092 C 
ATOM     40  H   BDP d1178      14.198 -10.607   1.201  0.00  0.00     0.210 HD
ATOM     41  H   BDP d1178      13.437 -11.369   5.694  0.00  0.00     0.133 H 
ATOM     42  H   BDP d1178      14.292 -13.131   2.344  0.00  0.00     0.092 H 
ATOM     43  H   BDP d1178      15.903 -11.763   3.981  0.00  0.00     0.094 H 
ATOM     44  H   BDP d1178      14.655  -9.375   4.850  0.00  0.00     0.210 HD
ATOM     45  H   BDP d1178      12.116 -12.784   4.306  0.00  0.00     0.104 H 
ATOM     46  H   BDP d1178      13.272 -10.456   3.352  0.00  0.00     0.091 H 
ATOM     47  O1  NAG d1175      10.983  -7.578  20.184  0.00  0.00    -0.369 OA
ATOM     48  O3  NAG d1175      12.275  -9.410  16.072  0.00  0.00    -0.348 OA
ATOM     49  O6  NAG d1175       7.759  -5.378  17.040  0.00  0.00    -0.398 OA
ATOM     50  C7  NAG d1175      13.485 -10.061  18.832  0.00  0.00     0.214 C 
ATOM     51  O4  NAG d1175      10.358  -7.533  14.741  0.00  0.00    -0.390 OA
ATOM     52  N2  NAG d1175      12.902  -8.857  18.785  0.00  0.00    -0.349 N 
ATOM     53  C6  NAG d1175       8.226  -6.592  16.517  0.00  0.00     0.043 C 
ATOM     54  C2  NAG d1175      11.619  -8.548  18.135  0.00  0.00     0.087 C 
ATOM     55  C8  NAG d1175      12.648 -11.278  18.603  0.00  0.00    -0.003 C 
ATOM     56  O7  NAG d1175      14.698 -10.189  19.062  0.00  0.00    -0.274 OA
ATOM     57  C3  NAG d1175      11.744  -8.234  16.652  0.00  0.00     0.093 C 
ATOM     58  C4  NAG d1175      10.344  -7.886  16.125  0.00  0.00     0.089 C 
ATOM     59  C1  NAG d1175      11.009  -7.326  18.807  0.00  0.00     0.151 C 
ATOM     60  C5  NAG d1175       9.666  -6.796  16.963  0.00  0.00     0.089 C 
ATOM     61  O5  NAG d1175       9.685  -7.108  18.343  0.00  0.00    -0.349 OA
ATOM     62  H   NAG d1175      11.887  -7.727  20.503  0.00  0.00     0.212 HD
ATOM     63  H   NAG d1175       6.841  -5.238  16.762  0.00  0.00     0.209 HD
ATOM     64  H   NAG d1175      10.791  -8.236  14.232  0.00  0.00     0.210 HD
ATOM     65  H   NAG d1175      13.374  -8.113  19.224  0.00  0.00     0.163 HD
ATOM     66  H   NAG d1175       8.181  -6.565  15.449  0.00  0.00     0.078 H 
ATOM     67  H   NAG d1175       7.619  -7.399  16.871  0.00  0.00     0.078 H 
ATOM     68  H   NAG d1175      11.013  -9.424  18.234  0.00  0.00     0.084 H 
ATOM     69  H   NAG d1175      11.635 -10.985  18.422  0.00  0.00     0.040 H 
ATOM     70  H   NAG d1175      12.688 -11.907  19.469  0.00  0.00     0.040 H 
ATOM     71  H   NAG d1175      13.023 -11.814  17.756  0.00  0.00     0.040 H 
ATOM     72  H   NAG d1175      12.378  -7.403  16.424  0.00  0.00     0.091 H 
ATOM     73  H   NAG d1175       9.761  -8.779  16.221  0.00  0.00     0.091 H 
ATOM     74  H   NAG d1175      11.588  -6.455  18.582  0.00  0.00     0.132 H 
ATOM     75  H   NAG d1175      10.222  -5.894  16.809  0.00  0.00     0.090 H 
ATOM     76  C2  NAG d1181       4.698 -18.735  -4.848  0.00  0.00     0.087 C 
ATOM     77  C8  NAG d1181       4.957 -21.318  -3.467  0.00  0.00    -0.003 C 
ATOM     78  O5  NAG d1181       4.167 -16.351  -4.650  0.00  0.00    -0.349 OA
ATOM     79  O4  NAG d1181       1.531 -18.019  -6.602  0.00  0.00    -0.390 OA
ATOM     80  C3  NAG d1181       3.703 -18.849  -5.992  0.00  0.00     0.086 C 
ATOM     81  C1  NAG d1181       5.219 -17.304  -4.697  0.00  0.00     0.154 C 
ATOM     82  N2  NAG d1181       5.812 -19.649  -5.034  0.00  0.00    -0.349 N 
ATOM     83  C4  NAG d1181       2.586 -17.862  -5.678  0.00  0.00     0.089 C 
ATOM     84  O6  NAG d1181       1.969 -14.887  -4.315  0.00  0.00    -0.398 OA
ATOM     85  O3  NAG d1181       3.225 -20.175  -6.145  0.00  0.00    -0.391 OA
ATOM     86  C5  NAG d1181       3.213 -16.457  -5.705  0.00  0.00     0.089 C 
ATOM     87  O7  NAG d1181       7.248 -21.010  -3.954  0.00  0.00    -0.274 OA
ATOM     88  C7  NAG d1181       6.097 -20.639  -4.173  0.00  0.00     0.214 C 
ATOM     89  C6  NAG d1181       2.200 -15.304  -5.645  0.00  0.00     0.043 C 
ATOM     90  H   NAG d1181       4.178 -19.000  -3.951  0.00  0.00     0.084 H 
ATOM     91  H   NAG d1181       4.032 -20.874  -3.772  0.00  0.00     0.040 H 
ATOM     92  H   NAG d1181       5.074 -21.206  -2.409  0.00  0.00     0.040 H 
ATOM     93  H   NAG d1181       4.952 -22.358  -3.717  0.00  0.00     0.040 H 
ATOM     94  H   NAG d1181       1.178 -18.920  -6.539  0.00  0.00     0.210 HD
ATOM     95  H   NAG d1181       4.163 -18.614  -6.929  0.00  0.00     0.090 H 
ATOM     96  H   NAG d1181       5.813 -17.003  -5.533  0.00  0.00     0.132 H 
ATOM     97  H   NAG d1181       6.384 -19.537  -5.827  0.00  0.00     0.163 HD
ATOM     98  H   NAG d1181       2.153 -18.030  -4.714  0.00  0.00     0.091 H 
ATOM     99  H   NAG d1181       1.327 -14.160  -4.312  0.00  0.00     0.209 HD
ATOM    100  H   NAG d1181       2.792 -20.459  -5.326  0.00  0.00     0.210 HD
ATOM    101  H   NAG d1181       3.690 -16.351  -6.656  0.00  0.00     0.090 H 
ATOM    102  H   NAG d1181       2.580 -14.478  -6.208  0.00  0.00     0.078 H 
ATOM    103  H   NAG d1181       1.274 -15.651  -6.054  0.00  0.00     0.078 H 
ATOM    104  C4  NAG d1179      11.629 -13.272  -2.101  0.00  0.00     0.089 C 
ATOM    105  N2  NAG d1179      10.122 -13.593   1.391  0.00  0.00    -0.349 N 
ATOM    106  C6  NAG d1179      14.053 -12.670  -2.512  0.00  0.00     0.043 C 
ATOM    107  O4  NAG d1179      11.550 -14.106  -3.253  0.00  0.00    -0.390 OA
ATOM    108  O6  NAG d1179      13.824 -11.280  -2.625  0.00  0.00    -0.398 OA
ATOM    109  C1  NAG d1179      12.388 -13.102   0.684  0.00  0.00     0.154 C 
ATOM    110  C5  NAG d1179      13.052 -13.286  -1.549  0.00  0.00     0.089 C 
ATOM    111  O5  NAG d1179      13.118 -12.525  -0.356  0.00  0.00    -0.349 OA
ATOM    112  C2  NAG d1179      10.914 -13.063   0.296  0.00  0.00     0.087 C 
ATOM    113  C8  NAG d1179       8.407 -13.559   3.054  0.00  0.00    -0.003 C 
ATOM    114  C7  NAG d1179       9.022 -12.980   1.824  0.00  0.00     0.214 C 
ATOM    115  C3  NAG d1179      10.662 -13.782  -1.039  0.00  0.00     0.093 C 
ATOM    116  O3  NAG d1179       9.335 -13.535  -1.479  0.00  0.00    -0.348 OA
ATOM    117  O7  NAG d1179       8.515 -12.012   1.267  0.00  0.00    -0.274 OA
ATOM    118  H   NAG d1179      11.367 -12.269  -2.369  0.00  0.00     0.091 H 
ATOM    119  H   NAG d1179      10.405 -14.430   1.826  0.00  0.00     0.163 HD
ATOM    120  H   NAG d1179      13.947 -13.126  -3.474  0.00  0.00     0.078 H 
ATOM    121  H   NAG d1179      15.043 -12.834  -2.141  0.00  0.00     0.078 H 
ATOM    122  H   NAG d1179      11.786 -15.015  -3.011  0.00  0.00     0.210 HD
ATOM    123  H   NAG d1179      12.927 -11.127  -2.962  0.00  0.00     0.209 HD
ATOM    124  H   NAG d1179      12.772 -14.086   0.858  0.00  0.00     0.132 H 
ATOM    125  H   NAG d1179      13.297 -14.314  -1.384  0.00  0.00     0.090 H 
ATOM    126  H   NAG d1179      10.612 -12.050   0.131  0.00  0.00     0.084 H 
ATOM    127  H   NAG d1179       8.992 -14.391   3.388  0.00  0.00     0.040 H 
ATOM    128  H   NAG d1179       7.413 -13.888   2.834  0.00  0.00     0.040 H 
ATOM    129  H   NAG d1179       8.376 -12.815   3.822  0.00  0.00     0.040 H 
ATOM    130  H   NAG d1179      10.809 -14.831  -0.891  0.00  0.00     0.091 H 
ATOM    131  O5  BDP d1180       8.931 -15.380  -2.802  0.00  0.00    -0.340 OA
ATOM    132  O6A BDP d1180       9.079 -18.449  -4.135  0.00  0.00    -0.646 OA
ATOM    133  O2  BDP d1180       6.731 -13.971  -0.285  0.00  0.00    -0.388 OA
ATOM    134  O3  BDP d1180       4.899 -14.891  -2.396  0.00  0.00    -0.390 OA
ATOM    135  C5  BDP d1180       8.176 -16.543  -3.061  0.00  0.00     0.152 C 
ATOM    136  C2  BDP d1180       7.090 -14.333  -1.601  0.00  0.00     0.110 C 
ATOM    137  C3  BDP d1180       6.156 -15.451  -2.057  0.00  0.00     0.092 C 
ATOM    138  C6  BDP d1180       8.782 -17.242  -4.268  0.00  0.00     0.206 C 
ATOM    139  C1  BDP d1180       8.564 -14.739  -1.605  0.00  0.00     0.160 C 
ATOM    140  C4  BDP d1180       6.718 -16.165  -3.274  0.00  0.00     0.103 C 
ATOM    141  O6B BDP d1180       8.967 -16.561  -5.310  0.00  0.00    -0.646 OA
ATOM    142  O4  BDP d1180       5.968 -17.333  -3.471  0.00  0.00    -0.348 OA
ATOM    143  H   BDP d1180       7.313 -13.261   0.026  0.00  0.00     0.210 HD
ATOM    144  H   BDP d1180       4.532 -14.432  -1.625  0.00  0.00     0.210 HD
ATOM    145  H   BDP d1180       8.203 -17.220  -2.233  0.00  0.00     0.104 H 
ATOM    146  H   BDP d1180       6.984 -13.522  -2.292  0.00  0.00     0.094 H 
ATOM    147  H   BDP d1180       6.054 -16.156  -1.259  0.00  0.00     0.091 H 
ATOM    148  H   BDP d1180       8.740 -15.423  -0.802  0.00  0.00     0.133 H 
ATOM    149  H   BDP d1180       6.662 -15.516  -4.123  0.00  0.00     0.092 H 
ATOM    150  C3  BDP d1176      14.688 -10.537  13.378  0.00  0.00     0.092 C 
ATOM    151  O4  BDP d1176      14.294 -10.411  10.944  0.00  0.00    -0.348 OA
ATOM    152  O3  BDP d1176      15.469 -11.725  13.351  0.00  0.00    -0.390 OA
ATOM    153  O5  BDP d1176      12.146  -9.277  13.740  0.00  0.00    -0.340 OA
ATOM    154  O2  BDP d1176      14.973 -10.289  15.756  0.00  0.00    -0.388 OA
ATOM    155  C1  BDP d1176      13.024  -9.257  14.846  0.00  0.00     0.160 C 
ATOM    156  O6B BDP d1176      11.545  -8.322  10.666  0.00  0.00    -0.646 OA
ATOM    157  C5  BDP d1176      12.772  -9.276  12.454  0.00  0.00     0.152 C 
ATOM    158  O6A BDP d1176      10.767 -10.209  11.556  0.00  0.00    -0.646 OA
ATOM    159  C6  BDP d1176      11.615  -9.280  11.482  0.00  0.00     0.206 C 
ATOM    160  C4  BDP d1176      13.677 -10.488  12.220  0.00  0.00     0.103 C 
ATOM    161  C2  BDP d1176      13.993 -10.436  14.742  0.00  0.00     0.110 C 
ATOM    162  H   BDP d1176      15.330  -9.692  13.244  0.00  0.00     0.091 H 
ATOM    163  H   BDP d1176      14.891 -12.495  13.472  0.00  0.00     0.210 HD
ATOM    164  H   BDP d1176      15.600 -11.027  15.709  0.00  0.00     0.210 HD
ATOM    165  H   BDP d1176      13.553  -8.327  14.849  0.00  0.00     0.133 H 
ATOM    166  H   BDP d1176      13.421  -8.432  12.344  0.00  0.00     0.104 H 
ATOM    167  H   BDP d1176      13.117 -11.400  12.213  0.00  0.00     0.092 H 
ATOM    168  H   BDP d1176      13.425 -11.336  14.860  0.00  0.00     0.094 H 
ENDROOT
TORSDOF 43
ENDMDL
MODEL 38
REMARK VINA RESULT:      -6.3      3.459      4.389
REMARK  0 active torsions:
REMARK  status: ('A' for Active; 'I' for Inactive)
REMARK       I    between atoms: C3_1  and  O3_90 
REMARK       I    between atoms: O1_4  and  C1_76 
REMARK       I    between atoms: C2_5  and  N2_21 
REMARK       I    between atoms: C8_6  and  C7_66 
REMARK       I    between atoms: C4_7  and  O4_24 
REMARK       I    between atoms: N2_9  and  C2_60 
REMARK       I    between atoms: N2_9  and  C7_69 
REMARK       I    between atoms: O4_12  and  C4_26 
REMARK       I    between atoms: O3_13  and  C3_65 
REMARK       I    between atoms: O3_13  and  C1_61 
REMARK       I    between atoms: C3_14  and  O3_35 
REMARK       I    between atoms: C6_15  and  C5_53 
REMARK       I    between atoms: C6_15  and  O6_46 
REMARK       I    between atoms: O6_16  and  C6_54 
REMARK       I    between atoms: C4_17  and  O4_49 
REMARK       I    between atoms: O4_18  and  C4_28 
REMARK       I    between atoms: O4_18  and  C1_47 
REMARK       I    between atoms: C3_19  and  O3_43 
REMARK       I    between atoms: C1_20  and  O4_91 
REMARK       I    between atoms: N2_21  and  C7_66 
REMARK       I    between atoms: O3_22  and  C3_82 
REMARK       I    between atoms: C7_23  and  C8_62 
REMARK       I    between atoms: C7_23  and  N2_51 
REMARK       I    between atoms: C2_25  and  N2_41 
REMARK       I    between atoms: C1_27  and  O3_90 
REMARK       I    between atoms: O6_29  and  C6_74 
REMARK       I    between atoms: O2_30  and  C2_37 
REMARK       I    between atoms: C2_31  and  O2_42 
REMARK       I    between atoms: O3_32  and  C3_45 
REMARK       I    between atoms: O4_33  and  C4_73 
REMARK       I    between atoms: O4_34  and  C4_84 
REMARK       I    between atoms: O4_34  and  C1_85 
REMARK       I    between atoms: C5_36  and  C6_48 
REMARK       I    between atoms: C6_38  and  C5_40 
REMARK       I    between atoms: C6_38  and  O6_89 
REMARK       I    between atoms: N2_41  and  C7_50 
REMARK       I    between atoms: C5_44  and  C6_74 
REMARK       I    between atoms: C7_50  and  C8_75 
REMARK       I    between atoms: N2_51  and  C2_58 
REMARK       I    between atoms: C1_52  and  O3_87 
REMARK       I    between atoms: C6_54  and  C5_86 
REMARK       I    between atoms: O2_59  and  C2_93 
REMARK       I    between atoms: C8_64  and  C7_69 
REMARK       I    between atoms: C6_70  and  C5_80 
REMARK       I    between atoms: C4_72  and  O4_91 
REMARK       I    between atoms: C5_77  and  C6_79 
REMARK       I    between atoms: C3_83  and  O3_87 
ROOT
ATOM      1  C3  NAG d1177      13.463 -13.114  10.409  0.00  0.00     0.093 C 
ATOM      2  O7  NAG d1177      14.115  -9.334  10.980  0.00  0.00    -0.274 OA
ATOM      3  C4  NAG d1177      13.914 -14.375  11.166  0.00  0.00     0.089 C 
ATOM      4  C2  NAG d1177      13.080 -12.016  11.388  0.00  0.00     0.087 C 
ATOM      5  C6  NAG d1177      13.391 -15.937  13.115  0.00  0.00     0.043 C 
ATOM      6  C5  NAG d1177      12.917 -14.759  12.248  0.00  0.00     0.089 C 
ATOM      7  N2  NAG d1177      12.419 -10.882  10.717  0.00  0.00    -0.349 N 
ATOM      8  O4  NAG d1177      14.082 -15.459  10.273  0.00  0.00    -0.390 OA
ATOM      9  C7  NAG d1177      12.965  -9.675  10.553  0.00  0.00     0.214 C 
ATOM     10  O5  NAG d1177      12.678 -13.649  13.104  0.00  0.00    -0.349 OA
ATOM     11  C8  NAG d1177      12.035  -8.719   9.851  0.00  0.00    -0.003 C 
ATOM     12  C1  NAG d1177      12.108 -12.544  12.443  0.00  0.00     0.154 C 
ATOM     13  O6  NAG d1177      14.570 -15.603  13.825  0.00  0.00    -0.398 OA
ATOM     14  O3  NAG d1177      14.528 -12.622   9.642  0.00  0.00    -0.348 OA
ATOM     15  H   NAG d1177      12.629 -13.378   9.794  0.00  0.00     0.091 H 
ATOM     16  H   NAG d1177      14.851 -14.150  11.632  0.00  0.00     0.091 H 
ATOM     17  H   NAG d1177      13.995 -11.690  11.838  0.00  0.00     0.084 H 
ATOM     18  H   NAG d1177      13.589 -16.778  12.484  0.00  0.00     0.078 H 
ATOM     19  H   NAG d1177      12.623 -16.171  13.821  0.00  0.00     0.078 H 
ATOM     20  H   NAG d1177      12.025 -15.058  11.739  0.00  0.00     0.090 H 
ATOM     21  H   NAG d1177      11.511 -11.025  10.365  0.00  0.00     0.163 HD
ATOM     22  H   NAG d1177      13.234 -15.664   9.850  0.00  0.00     0.210 HD
ATOM     23  H   NAG d1177      12.515  -7.769   9.743  0.00  0.00     0.040 H 
ATOM     24  H   NAG d1177      11.141  -8.604  10.428  0.00  0.00     0.040 H 
ATOM     25  H   NAG d1177      11.788  -9.107   8.885  0.00  0.00     0.040 H 
ATOM     26  H   NAG d1177      11.203 -12.867  11.974  0.00  0.00     0.132 H 
ATOM     27  H   NAG d1177      15.277 -15.388  13.196  0.00  0.00     0.209 HD
ATOM     28  O6A BDP d1178      14.166 -15.915   6.187  0.00  0.00    -0.646 OA
ATOM     29  O4  BDP d1178      14.025 -12.411   4.226  0.00  0.00    -0.348 OA
ATOM     30  O3  BDP d1178      16.140 -10.999   5.504  0.00  0.00    -0.390 OA
ATOM     31  C1  BDP d1178      14.183 -12.460   8.259  0.00  0.00     0.160 C 
ATOM     32  C4  BDP d1178      14.581 -12.798   5.461  0.00  0.00     0.103 C 
ATOM     33  C2  BDP d1178      15.341 -11.744   7.596  0.00  0.00     0.110 C 
ATOM     34  O2  BDP d1178      15.592 -10.519   8.234  0.00  0.00    -0.388 OA
ATOM     35  O6B BDP d1178      12.586 -15.213   4.776  0.00  0.00    -0.646 OA
ATOM     36  O5  BDP d1178      13.989 -13.705   7.613  0.00  0.00    -0.340 OA
ATOM     37  C6  BDP d1178      13.426 -15.016   5.698  0.00  0.00     0.206 C 
ATOM     38  C5  BDP d1178      13.571 -13.599   6.268  0.00  0.00     0.152 C 
ATOM     39  C3  BDP d1178      14.982 -11.484   6.160  0.00  0.00     0.092 C 
ATOM     40  H   BDP d1178      15.934 -10.822   4.573  0.00  0.00     0.210 HD
ATOM     41  H   BDP d1178      13.268 -11.912   8.185  0.00  0.00     0.133 H 
ATOM     42  H   BDP d1178      15.432 -13.437   5.348  0.00  0.00     0.092 H 
ATOM     43  H   BDP d1178      16.218 -12.354   7.662  0.00  0.00     0.094 H 
ATOM     44  H   BDP d1178      14.802  -9.958   8.180  0.00  0.00     0.210 HD
ATOM     45  H   BDP d1178      12.633 -13.087   6.213  0.00  0.00     0.104 H 
ATOM     46  H   BDP d1178      14.171 -10.787   6.120  0.00  0.00     0.091 H 
ATOM     47  O1  NAG d1175       4.893  -9.224  20.554  0.00  0.00    -0.369 OA
ATOM     48  O3  NAG d1175       7.778 -10.786  17.213  0.00  0.00    -0.348 OA
ATOM     49  O6  NAG d1175       3.438  -6.500  16.607  0.00  0.00    -0.398 OA
ATOM     50  C7  NAG d1175       7.644 -11.775  20.130  0.00  0.00     0.214 C 
ATOM     51  O4  NAG d1175       6.699  -8.649  15.413  0.00  0.00    -0.390 OA
ATOM     52  N2  NAG d1175       7.183 -10.527  19.976  0.00  0.00    -0.349 N 
ATOM     53  C6  NAG d1175       4.042  -7.697  16.200  0.00  0.00     0.043 C 
ATOM     54  C2  NAG d1175       6.322 -10.058  18.879  0.00  0.00     0.087 C 
ATOM     55  C8  NAG d1175       6.948 -12.894  19.427  0.00  0.00    -0.003 C 
ATOM     56  O7  NAG d1175       8.631 -12.021  20.841  0.00  0.00    -0.274 OA
ATOM     57  C3  NAG d1175       7.091  -9.626  17.639  0.00  0.00     0.093 C 
ATOM     58  C4  NAG d1175       6.073  -9.121  16.607  0.00  0.00     0.089 C 
ATOM     59  C1  NAG d1175       5.524  -8.855  19.361  0.00  0.00     0.151 C 
ATOM     60  C5  NAG d1175       5.137  -8.056  17.193  0.00  0.00     0.089 C 
ATOM     61  O5  NAG d1175       4.542  -8.489  18.402  0.00  0.00    -0.349 OA
ATOM     62  H   NAG d1175       5.562  -9.474  21.210  0.00  0.00     0.212 HD
ATOM     63  H   NAG d1175       2.737  -6.262  15.981  0.00  0.00     0.209 HD
ATOM     64  H   NAG d1175       7.285  -9.338  15.062  0.00  0.00     0.210 HD
ATOM     65  H   NAG d1175       7.442  -9.865  20.657  0.00  0.00     0.163 HD
ATOM     66  H   NAG d1175       4.467  -7.572  15.226  0.00  0.00     0.078 H 
ATOM     67  H   NAG d1175       3.313  -8.480  16.164  0.00  0.00     0.078 H 
ATOM     68  H   NAG d1175       5.702 -10.887  18.608  0.00  0.00     0.084 H 
ATOM     69  H   NAG d1175       6.125 -12.505  18.864  0.00  0.00     0.040 H 
ATOM     70  H   NAG d1175       6.585 -13.598  20.148  0.00  0.00     0.040 H 
ATOM     71  H   NAG d1175       7.634 -13.382  18.766  0.00  0.00     0.040 H 
ATOM     72  H   NAG d1175       7.789  -8.833  17.803  0.00  0.00     0.091 H 
ATOM     73  H   NAG d1175       5.474  -9.967  16.341  0.00  0.00     0.091 H 
ATOM     74  H   NAG d1175       6.174  -8.018  19.507  0.00  0.00     0.132 H 
ATOM     75  H   NAG d1175       5.735  -7.193  17.397  0.00  0.00     0.090 H 
ATOM     76  C2  NAG d1181       9.727 -17.584  -5.852  0.00  0.00     0.087 C 
ATOM     77  C8  NAG d1181       9.269 -20.291  -4.800  0.00  0.00    -0.003 C 
ATOM     78  O5  NAG d1181       9.248 -15.191  -5.630  0.00  0.00    -0.349 OA
ATOM     79  O4  NAG d1181       7.666 -16.460  -8.699  0.00  0.00    -0.390 OA
ATOM     80  C3  NAG d1181       9.326 -17.515  -7.317  0.00  0.00     0.086 C 
ATOM     81  C1  NAG d1181      10.181 -16.219  -5.330  0.00  0.00     0.154 C 
ATOM     82  N2  NAG d1181      10.778 -18.566  -5.647  0.00  0.00    -0.349 N 
ATOM     83  C4  NAG d1181       8.219 -16.471  -7.401  0.00  0.00     0.089 C 
ATOM     84  O6  NAG d1181       7.177 -13.587  -6.103  0.00  0.00    -0.398 OA
ATOM     85  O3  NAG d1181       8.916 -18.779  -7.812  0.00  0.00    -0.391 OA
ATOM     86  C5  NAG d1181       8.845 -15.125  -6.995  0.00  0.00     0.089 C 
ATOM     87  O7  NAG d1181      11.553 -20.129  -4.219  0.00  0.00    -0.274 OA
ATOM     88  C7  NAG d1181      10.625 -19.647  -4.867  0.00  0.00     0.214 C 
ATOM     89  C6  NAG d1181       7.948 -13.904  -7.244  0.00  0.00     0.043 C 
ATOM     90  H   NAG d1181       8.860 -17.884  -5.302  0.00  0.00     0.084 H 
ATOM     91  H   NAG d1181       8.585 -19.747  -5.419  0.00  0.00     0.040 H 
ATOM     92  H   NAG d1181       8.918 -20.282  -3.789  0.00  0.00     0.040 H 
ATOM     93  H   NAG d1181       9.336 -21.301  -5.146  0.00  0.00     0.040 H 
ATOM     94  H   NAG d1181       7.289 -17.331  -8.898  0.00  0.00     0.210 HD
ATOM     95  H   NAG d1181      10.155 -17.237  -7.933  0.00  0.00     0.090 H 
ATOM     96  H   NAG d1181      11.091 -15.895  -5.790  0.00  0.00     0.132 H 
ATOM     97  H   NAG d1181      11.642 -18.432  -6.100  0.00  0.00     0.163 HD
ATOM     98  H   NAG d1181       7.404 -16.688  -6.742  0.00  0.00     0.091 H 
ATOM     99  H   NAG d1181       6.623 -12.814  -6.292  0.00  0.00     0.209 HD
ATOM    100  H   NAG d1181       8.159 -19.097  -7.296  0.00  0.00     0.210 HD
ATOM    101  H   NAG d1181       9.692 -14.975  -7.632  0.00  0.00     0.090 H 
ATOM    102  H   NAG d1181       8.564 -13.065  -7.491  0.00  0.00     0.078 H 
ATOM    103  H   NAG d1181       7.281 -14.136  -8.047  0.00  0.00     0.078 H 
ATOM    104  C4  NAG d1179      14.963 -12.968   0.207  0.00  0.00     0.089 C 
ATOM    105  N2  NAG d1179      12.077 -13.471   2.653  0.00  0.00    -0.349 N 
ATOM    106  C6  NAG d1179      17.345 -12.532   0.946  0.00  0.00     0.043 C 
ATOM    107  O4  NAG d1179      15.363 -13.688  -0.955  0.00  0.00    -0.390 OA
ATOM    108  O6  NAG d1179      17.237 -11.124   0.906  0.00  0.00    -0.398 OA
ATOM    109  C1  NAG d1179      14.441 -13.107   3.048  0.00  0.00     0.154 C 
ATOM    110  C5  NAG d1179      16.003 -13.146   1.309  0.00  0.00     0.089 C 
ATOM    111  O5  NAG d1179      15.571 -12.502   2.494  0.00  0.00    -0.349 OA
ATOM    112  C2  NAG d1179      13.285 -12.913   2.073  0.00  0.00     0.087 C 
ATOM    113  C8  NAG d1179       9.813 -13.444   3.412  0.00  0.00    -0.003 C 
ATOM    114  C7  NAG d1179      10.921 -12.811   2.640  0.00  0.00     0.214 C 
ATOM    115  C3  NAG d1179      13.614 -13.489   0.685  0.00  0.00     0.093 C 
ATOM    116  O3  NAG d1179      12.619 -13.097  -0.250  0.00  0.00    -0.348 OA
ATOM    117  O7  NAG d1179      10.741 -11.760   2.034  0.00  0.00    -0.274 OA
ATOM    118  H   NAG d1179      14.880 -11.928  -0.031  0.00  0.00     0.091 H 
ATOM    119  H   NAG d1179      12.114 -14.363   3.068  0.00  0.00     0.163 HD
ATOM    120  H   NAG d1179      17.651 -12.892  -0.013  0.00  0.00     0.078 H 
ATOM    121  H   NAG d1179      18.068 -12.808   1.684  0.00  0.00     0.078 H 
ATOM    122  H   NAG d1179      15.439 -14.631  -0.742  0.00  0.00     0.210 HD
ATOM    123  H   NAG d1179      16.582 -10.869   0.237  0.00  0.00     0.209 HD
ATOM    124  H   NAG d1179      14.676 -14.130   3.255  0.00  0.00     0.132 H 
ATOM    125  H   NAG d1179      16.115 -14.202   1.444  0.00  0.00     0.090 H 
ATOM    126  H   NAG d1179      13.121 -11.868   1.911  0.00  0.00     0.084 H 
ATOM    127  H   NAG d1179      10.164 -14.347   3.867  0.00  0.00     0.040 H 
ATOM    128  H   NAG d1179       9.002 -13.669   2.752  0.00  0.00     0.040 H 
ATOM    129  H   NAG d1179       9.477 -12.770   4.172  0.00  0.00     0.040 H 
ATOM    130  H   NAG d1179      13.644 -14.555   0.761  0.00  0.00     0.091 H 
ATOM    131  O5  BDP d1180      12.766 -14.779  -1.820  0.00  0.00    -0.340 OA
ATOM    132  O6A BDP d1180      13.370 -17.720  -3.304  0.00  0.00    -0.646 OA
ATOM    133  O2  BDP d1180       9.742 -13.422  -0.346  0.00  0.00    -0.388 OA
ATOM    134  O3  BDP d1180       8.979 -14.000  -3.128  0.00  0.00    -0.390 OA
ATOM    135  C5  BDP d1180      12.158 -15.849  -2.509  0.00  0.00     0.152 C 
ATOM    136  C2  BDP d1180      10.625 -13.695  -1.413  0.00  0.00     0.110 C 
ATOM    137  C3  BDP d1180       9.942 -14.688  -2.349  0.00  0.00     0.092 C 
ATOM    138  C6  BDP d1180      13.204 -16.486  -3.411  0.00  0.00     0.206 C 
ATOM    139  C1  BDP d1180      11.938 -14.217  -0.831  0.00  0.00     0.160 C 
ATOM    140  C4  BDP d1180      10.952 -15.336  -3.281  0.00  0.00     0.103 C 
ATOM    141  O6B BDP d1180      13.847 -15.733  -4.187  0.00  0.00    -0.646 OA
ATOM    142  O4  BDP d1180      10.321 -16.416  -3.913  0.00  0.00    -0.348 OA
ATOM    143  H   BDP d1180      10.155 -12.792   0.264  0.00  0.00     0.210 HD
ATOM    144  H   BDP d1180       8.329 -13.582  -2.542  0.00  0.00     0.210 HD
ATOM    145  H   BDP d1180      11.798 -16.596  -1.833  0.00  0.00     0.104 H 
ATOM    146  H   BDP d1180      10.858 -12.820  -1.984  0.00  0.00     0.094 H 
ATOM    147  H   BDP d1180       9.478 -15.450  -1.759  0.00  0.00     0.091 H 
ATOM    148  H   BDP d1180      11.723 -14.982  -0.114  0.00  0.00     0.133 H 
ATOM    149  H   BDP d1180      11.294 -14.613  -3.992  0.00  0.00     0.092 H 
ATOM    150  C3  BDP d1176      11.081 -11.865  15.703  0.00  0.00     0.092 C 
ATOM    151  O4  BDP d1176      11.790 -11.494  13.367  0.00  0.00    -0.348 OA
ATOM    152  O3  BDP d1176      11.754 -13.106  15.878  0.00  0.00    -0.390 OA
ATOM    153  O5  BDP d1176       8.681 -10.439  15.083  0.00  0.00    -0.340 OA
ATOM    154  O2  BDP d1176      10.312 -11.852  17.985  0.00  0.00    -0.388 OA
ATOM    155  C1  BDP d1176       8.991 -10.588  16.453  0.00  0.00     0.160 C 
ATOM    156  O6B BDP d1176       9.511  -9.171  12.180  0.00  0.00    -0.646 OA
ATOM    157  C5  BDP d1176       9.804 -10.375  14.198  0.00  0.00     0.152 C 
ATOM    158  O6A BDP d1176       8.357 -11.059  12.427  0.00  0.00    -0.646 OA
ATOM    159  C6  BDP d1176       9.185 -10.200  12.831  0.00  0.00     0.206 C 
ATOM    160  C4  BDP d1176      10.678 -11.632  14.238  0.00  0.00     0.103 C 
ATOM    161  C2  BDP d1176       9.867 -11.828  16.639  0.00  0.00     0.110 C 
ATOM    162  H   BDP d1176      11.748 -11.067  15.956  0.00  0.00     0.091 H 
ATOM    163  H   BDP d1176      11.154 -13.834  15.650  0.00  0.00     0.210 HD
ATOM    164  H   BDP d1176      10.871 -12.631  18.127  0.00  0.00     0.210 HD
ATOM    165  H   BDP d1176       9.499  -9.707  16.789  0.00  0.00     0.133 H 
ATOM    166  H   BDP d1176      10.466  -9.581  14.475  0.00  0.00     0.104 H 
ATOM    167  H   BDP d1176      10.144 -12.491  13.887  0.00  0.00     0.092 H 
ATOM    168  H   BDP d1176       9.273 -12.685  16.399  0.00  0.00     0.094 H 
ENDROOT
TORSDOF 43
ENDMDL
MODEL 39
REMARK VINA RESULT:      -6.3      3.328      4.546
REMARK  0 active torsions:
REMARK  status: ('A' for Active; 'I' for Inactive)
REMARK       I    between atoms: C3_1  and  O3_90 
REMARK       I    between atoms: O1_4  and  C1_76 
REMARK       I    between atoms: C2_5  and  N2_21 
REMARK       I    between atoms: C8_6  and  C7_66 
REMARK       I    between atoms: C4_7  and  O4_24 
REMARK       I    between atoms: N2_9  and  C2_60 
REMARK       I    between atoms: N2_9  and  C7_69 
REMARK       I    between atoms: O4_12  and  C4_26 
REMARK       I    between atoms: O3_13  and  C3_65 
REMARK       I    between atoms: O3_13  and  C1_61 
REMARK       I    between atoms: C3_14  and  O3_35 
REMARK       I    between atoms: C6_15  and  C5_53 
REMARK       I    between atoms: C6_15  and  O6_46 
REMARK       I    between atoms: O6_16  and  C6_54 
REMARK       I    between atoms: C4_17  and  O4_49 
REMARK       I    between atoms: O4_18  and  C4_28 
REMARK       I    between atoms: O4_18  and  C1_47 
REMARK       I    between atoms: C3_19  and  O3_43 
REMARK       I    between atoms: C1_20  and  O4_91 
REMARK       I    between atoms: N2_21  and  C7_66 
REMARK       I    between atoms: O3_22  and  C3_82 
REMARK       I    between atoms: C7_23  and  C8_62 
REMARK       I    between atoms: C7_23  and  N2_51 
REMARK       I    between atoms: C2_25  and  N2_41 
REMARK       I    between atoms: C1_27  and  O3_90 
REMARK       I    between atoms: O6_29  and  C6_74 
REMARK       I    between atoms: O2_30  and  C2_37 
REMARK       I    between atoms: C2_31  and  O2_42 
REMARK       I    between atoms: O3_32  and  C3_45 
REMARK       I    between atoms: O4_33  and  C4_73 
REMARK       I    between atoms: O4_34  and  C4_84 
REMARK       I    between atoms: O4_34  and  C1_85 
REMARK       I    between atoms: C5_36  and  C6_48 
REMARK       I    between atoms: C6_38  and  C5_40 
REMARK       I    between atoms: C6_38  and  O6_89 
REMARK       I    between atoms: N2_41  and  C7_50 
REMARK       I    between atoms: C5_44  and  C6_74 
REMARK       I    between atoms: C7_50  and  C8_75 
REMARK       I    between atoms: N2_51  and  C2_58 
REMARK       I    between atoms: C1_52  and  O3_87 
REMARK       I    between atoms: C6_54  and  C5_86 
REMARK       I    between atoms: O2_59  and  C2_93 
REMARK       I    between atoms: C8_64  and  C7_69 
REMARK       I    between atoms: C6_70  and  C5_80 
REMARK       I    between atoms: C4_72  and  O4_91 
REMARK       I    between atoms: C5_77  and  C6_79 
REMARK       I    between atoms: C3_83  and  O3_87 
ROOT
ATOM      1  C3  NAG d1177      13.938 -13.625   8.631  0.00  0.00     0.093 C 
ATOM      2  O7  NAG d1177      13.713  -9.927   9.774  0.00  0.00    -0.274 OA
ATOM      3  C4  NAG d1177      14.957 -14.743   8.912  0.00  0.00     0.089 C 
ATOM      4  C2  NAG d1177      13.664 -12.828   9.896  0.00  0.00     0.087 C 
ATOM      5  C6  NAG d1177      15.632 -16.591  10.536  0.00  0.00     0.043 C 
ATOM      6  C5  NAG d1177      14.573 -15.548  10.143  0.00  0.00     0.089 C 
ATOM      7  N2  NAG d1177      12.524 -11.907   9.733  0.00  0.00    -0.349 N 
ATOM      8  O4  NAG d1177      15.068 -15.607   7.798  0.00  0.00    -0.390 OA
ATOM      9  C7  NAG d1177      12.624 -10.577   9.672  0.00  0.00     0.214 C 
ATOM     10  O5  NAG d1177      14.379 -14.677  11.251  0.00  0.00    -0.349 OA
ATOM     11  C8  NAG d1177      11.281  -9.911   9.527  0.00  0.00    -0.003 C 
ATOM     12  C1  NAG d1177      13.331 -13.756  11.063  0.00  0.00     0.154 C 
ATOM     13  O6  NAG d1177      16.854 -15.967  10.890  0.00  0.00    -0.398 OA
ATOM     14  O3  NAG d1177      14.469 -12.731   7.692  0.00  0.00    -0.348 OA
ATOM     15  H   NAG d1177      13.039 -14.081   8.271  0.00  0.00     0.091 H 
ATOM     16  H   NAG d1177      15.903 -14.274   9.093  0.00  0.00     0.091 H 
ATOM     17  H   NAG d1177      14.556 -12.269  10.091  0.00  0.00     0.084 H 
ATOM     18  H   NAG d1177      15.800 -17.247   9.708  0.00  0.00     0.078 H 
ATOM     19  H   NAG d1177      15.273 -17.140  11.381  0.00  0.00     0.078 H 
ATOM     20  H   NAG d1177      13.672 -16.066   9.892  0.00  0.00     0.090 H 
ATOM     21  H   NAG d1177      11.624 -12.302   9.665  0.00  0.00     0.163 HD
ATOM     22  H   NAG d1177      14.212 -16.033   7.633  0.00  0.00     0.210 HD
ATOM     23  H   NAG d1177      11.413  -8.850   9.482  0.00  0.00     0.040 H 
ATOM     24  H   NAG d1177      10.667 -10.158  10.369  0.00  0.00     0.040 H 
ATOM     25  H   NAG d1177      10.808 -10.250   8.629  0.00  0.00     0.040 H 
ATOM     26  H   NAG d1177      12.439 -14.306  10.847  0.00  0.00     0.132 H 
ATOM     27  H   NAG d1177      17.192 -15.465  10.131  0.00  0.00     0.209 HD
ATOM     28  O6A BDP d1178      13.754 -15.565   3.902  0.00  0.00    -0.646 OA
ATOM     29  O4  BDP d1178      11.963 -12.112   2.900  0.00  0.00    -0.348 OA
ATOM     30  O3  BDP d1178      13.937 -10.230   3.715  0.00  0.00    -0.390 OA
ATOM     31  C1  BDP d1178      13.608 -12.542   6.561  0.00  0.00     0.160 C 
ATOM     32  C4  BDP d1178      13.018 -12.425   3.779  0.00  0.00     0.103 C 
ATOM     33  C2  BDP d1178      14.200 -11.419   5.736  0.00  0.00     0.110 C 
ATOM     34  O2  BDP d1178      14.330 -10.256   6.513  0.00  0.00    -0.388 OA
ATOM     35  O6B BDP d1178      11.638 -15.273   3.254  0.00  0.00    -0.646 OA
ATOM     36  O5  BDP d1178      13.531 -13.704   5.755  0.00  0.00    -0.340 OA
ATOM     37  C6  BDP d1178      12.673 -14.912   3.881  0.00  0.00     0.206 C 
ATOM     38  C5  BDP d1178      12.633 -13.596   4.670  0.00  0.00     0.152 C 
ATOM     39  C3  BDP d1178      13.280 -11.136   4.583  0.00  0.00     0.092 C 
ATOM     40  H   BDP d1178      13.362 -10.031   2.960  0.00  0.00     0.210 HD
ATOM     41  H   BDP d1178      12.619 -12.321   6.903  0.00  0.00     0.133 H 
ATOM     42  H   BDP d1178      13.904 -12.734   3.265  0.00  0.00     0.092 H 
ATOM     43  H   BDP d1178      15.168 -11.710   5.386  0.00  0.00     0.094 H 
ATOM     44  H   BDP d1178      13.457  -9.983   6.836  0.00  0.00     0.210 HD
ATOM     45  H   BDP d1178      11.641 -13.418   5.028  0.00  0.00     0.104 H 
ATOM     46  H   BDP d1178      12.356 -10.744   4.956  0.00  0.00     0.091 H 
ATOM     47  O1  NAG d1175       9.019 -13.890  21.563  0.00  0.00    -0.369 OA
ATOM     48  O3  NAG d1175      10.771 -14.045  17.223  0.00  0.00    -0.348 OA
ATOM     49  O6  NAG d1175       5.535 -11.384  18.977  0.00  0.00    -0.398 OA
ATOM     50  C7  NAG d1175      11.996 -15.333  19.743  0.00  0.00     0.214 C 
ATOM     51  O4  NAG d1175       8.571 -12.200  16.371  0.00  0.00    -0.390 OA
ATOM     52  N2  NAG d1175      11.193 -14.298  20.019  0.00  0.00    -0.349 N 
ATOM     53  C6  NAG d1175       6.243 -12.264  18.148  0.00  0.00     0.043 C 
ATOM     54  C2  NAG d1175       9.896 -14.021  19.382  0.00  0.00     0.087 C 
ATOM     55  C8  NAG d1175      11.417 -16.536  19.071  0.00  0.00    -0.003 C 
ATOM     56  O7  NAG d1175      13.202 -15.317  20.032  0.00  0.00    -0.274 OA
ATOM     57  C3  NAG d1175      10.005 -13.229  18.088  0.00  0.00     0.093 C 
ATOM     58  C4  NAG d1175       8.582 -12.977  17.569  0.00  0.00     0.089 C 
ATOM     59  C1  NAG d1175       9.041 -13.206  20.342  0.00  0.00     0.151 C 
ATOM     60  C5  NAG d1175       7.681 -12.349  18.639  0.00  0.00     0.089 C 
ATOM     61  O5  NAG d1175       7.715 -13.082  19.849  0.00  0.00    -0.349 OA
ATOM     62  H   NAG d1175       9.925 -13.975  21.902  0.00  0.00     0.212 HD
ATOM     63  H   NAG d1175       4.616 -11.322  18.673  0.00  0.00     0.209 HD
ATOM     64  H   NAG d1175       9.148 -12.616  15.711  0.00  0.00     0.210 HD
ATOM     65  H   NAG d1175      11.498 -13.665  20.709  0.00  0.00     0.163 HD
ATOM     66  H   NAG d1175       6.227 -11.902  17.142  0.00  0.00     0.078 H 
ATOM     67  H   NAG d1175       5.792 -13.234  18.176  0.00  0.00     0.078 H 
ATOM     68  H   NAG d1175       9.467 -14.973  19.148  0.00  0.00     0.084 H 
ATOM     69  H   NAG d1175      10.372 -16.380  18.898  0.00  0.00     0.040 H 
ATOM     70  H   NAG d1175      11.549 -17.394  19.698  0.00  0.00     0.040 H 
ATOM     71  H   NAG d1175      11.914 -16.697  18.137  0.00  0.00     0.040 H 
ATOM     72  H   NAG d1175      10.474 -12.273  18.190  0.00  0.00     0.091 H 
ATOM     73  H   NAG d1175       8.179 -13.939  17.330  0.00  0.00     0.091 H 
ATOM     74  H   NAG d1175       9.448 -12.223  20.453  0.00  0.00     0.132 H 
ATOM     75  H   NAG d1175       8.056 -11.365  18.825  0.00  0.00     0.090 H 
ATOM     76  C2  NAG d1181       5.804 -17.283  -6.162  0.00  0.00     0.087 C 
ATOM     77  C8  NAG d1181       6.512 -20.088  -5.635  0.00  0.00    -0.003 C 
ATOM     78  O5  NAG d1181       4.817 -15.220  -5.283  0.00  0.00    -0.349 OA
ATOM     79  O4  NAG d1181       2.616 -16.597  -7.889  0.00  0.00    -0.390 OA
ATOM     80  C3  NAG d1181       4.887 -17.191  -7.371  0.00  0.00     0.086 C 
ATOM     81  C1  NAG d1181       6.034 -15.911  -5.526  0.00  0.00     0.154 C 
ATOM     82  N2  NAG d1181       7.078 -17.882  -6.520  0.00  0.00    -0.349 N 
ATOM     83  C4  NAG d1181       3.590 -16.567  -6.869  0.00  0.00     0.089 C 
ATOM     84  O6  NAG d1181       2.369 -14.343  -4.712  0.00  0.00    -0.398 OA
ATOM     85  O3  NAG d1181       4.678 -18.459  -7.972  0.00  0.00    -0.391 OA
ATOM     86  C5  NAG d1181       3.936 -15.142  -6.401  0.00  0.00     0.089 C 
ATOM     87  O7  NAG d1181       8.715 -19.249  -5.789  0.00  0.00    -0.274 OA
ATOM     88  C7  NAG d1181       7.521 -19.032  -5.987  0.00  0.00     0.214 C 
ATOM     89  C6  NAG d1181       2.718 -14.264  -6.079  0.00  0.00     0.043 C 
ATOM     90  H   NAG d1181       5.317 -17.909  -5.444  0.00  0.00     0.084 H 
ATOM     91  H   NAG d1181       5.529 -19.735  -5.870  0.00  0.00     0.040 H 
ATOM     92  H   NAG d1181       6.572 -20.305  -4.588  0.00  0.00     0.040 H 
ATOM     93  H   NAG d1181       6.715 -20.977  -6.195  0.00  0.00     0.040 H 
ATOM     94  H   NAG d1181       2.441 -17.516  -8.142  0.00  0.00     0.210 HD
ATOM     95  H   NAG d1181       5.322 -16.591  -8.142  0.00  0.00     0.090 H 
ATOM     96  H   NAG d1181       6.586 -15.258  -6.170  0.00  0.00     0.132 H 
ATOM     97  H   NAG d1181       7.644 -17.423  -7.183  0.00  0.00     0.163 HD
ATOM     98  H   NAG d1181       3.168 -17.109  -6.050  0.00  0.00     0.091 H 
ATOM     99  H   NAG d1181       1.599 -13.779  -4.542  0.00  0.00     0.209 HD
ATOM    100  H   NAG d1181       4.282 -19.062  -7.325  0.00  0.00     0.210 HD
ATOM    101  H   NAG d1181       4.414 -14.654  -7.224  0.00  0.00     0.090 H 
ATOM    102  H   NAG d1181       2.950 -13.248  -6.320  0.00  0.00     0.078 H 
ATOM    103  H   NAG d1181       1.890 -14.614  -6.659  0.00  0.00     0.078 H 
ATOM    104  C4  NAG d1179      11.461 -11.890  -1.229  0.00  0.00     0.089 C 
ATOM    105  N2  NAG d1179       9.933 -13.575   1.836  0.00  0.00    -0.349 N 
ATOM    106  C6  NAG d1179      13.736 -10.779  -1.208  0.00  0.00     0.043 C 
ATOM    107  O4  NAG d1179      11.581 -12.308  -2.585  0.00  0.00    -0.390 OA
ATOM    108  O6  NAG d1179      13.247  -9.489  -0.904  0.00  0.00    -0.398 OA
ATOM    109  C1  NAG d1179      12.085 -12.499   1.529  0.00  0.00     0.154 C 
ATOM    110  C5  NAG d1179      12.842 -11.835  -0.580  0.00  0.00     0.089 C 
ATOM    111  O5  NAG d1179      12.722 -11.501   0.790  0.00  0.00    -0.349 OA
ATOM    112  C2  NAG d1179      10.644 -12.592   1.038  0.00  0.00     0.087 C 
ATOM    113  C8  NAG d1179       8.192 -14.375   3.263  0.00  0.00    -0.003 C 
ATOM    114  C7  NAG d1179       8.723 -13.334   2.336  0.00  0.00     0.214 C 
ATOM    115  C3  NAG d1179      10.577 -12.873  -0.472  0.00  0.00     0.093 C 
ATOM    116  O3  NAG d1179       9.242 -12.731  -0.933  0.00  0.00    -0.348 OA
ATOM    117  O7  NAG d1179       8.057 -12.340   2.062  0.00  0.00    -0.274 OA
ATOM    118  H   NAG d1179      11.020 -10.915  -1.195  0.00  0.00     0.091 H 
ATOM    119  H   NAG d1179      10.359 -14.445   2.013  0.00  0.00     0.163 HD
ATOM    120  H   NAG d1179      13.750 -10.912  -2.269  0.00  0.00     0.078 H 
ATOM    121  H   NAG d1179      14.727 -10.881  -0.817  0.00  0.00     0.078 H 
ATOM    122  H   NAG d1179      11.980 -13.191  -2.617  0.00  0.00     0.210 HD
ATOM    123  H   NAG d1179      12.348  -9.392  -1.257  0.00  0.00     0.209 HD
ATOM    124  H   NAG d1179      12.645 -13.404   1.422  0.00  0.00     0.132 H 
ATOM    125  H   NAG d1179      13.275 -12.803  -0.721  0.00  0.00     0.090 H 
ATOM    126  H   NAG d1179      10.157 -11.648   1.169  0.00  0.00     0.084 H 
ATOM    127  H   NAG d1179       8.916 -15.156   3.374  0.00  0.00     0.040 H 
ATOM    128  H   NAG d1179       7.287 -14.782   2.862  0.00  0.00     0.040 H 
ATOM    129  H   NAG d1179       7.994 -13.935   4.218  0.00  0.00     0.040 H 
ATOM    130  H   NAG d1179      10.919 -13.872  -0.644  0.00  0.00     0.091 H 
ATOM    131  O5  BDP d1180       9.243 -14.091  -2.795  0.00  0.00    -0.340 OA
ATOM    132  O6A BDP d1180      10.022 -16.492  -4.997  0.00  0.00    -0.646 OA
ATOM    133  O2  BDP d1180       6.734 -13.971  -0.178  0.00  0.00    -0.388 OA
ATOM    134  O3  BDP d1180       5.183 -14.462  -2.629  0.00  0.00    -0.390 OA
ATOM    135  C5  BDP d1180       8.735 -15.220  -3.471  0.00  0.00     0.152 C 
ATOM    136  C2  BDP d1180       7.198 -13.821  -1.503  0.00  0.00     0.110 C 
ATOM    137  C3  BDP d1180       6.512 -14.875  -2.367  0.00  0.00     0.092 C 
ATOM    138  C6  BDP d1180       9.504 -15.377  -4.774  0.00  0.00     0.206 C 
ATOM    139  C1  BDP d1180       8.722 -13.943  -1.497  0.00  0.00     0.160 C 
ATOM    140  C4  BDP d1180       7.240 -15.050  -3.689  0.00  0.00     0.103 C 
ATOM    141  O6B BDP d1180       9.586 -14.375  -5.531  0.00  0.00    -0.646 OA
ATOM    142  O4  BDP d1180       6.735 -16.203  -4.306  0.00  0.00    -0.348 OA
ATOM    143  H   BDP d1180       7.158 -13.309   0.390  0.00  0.00     0.210 HD
ATOM    144  H   BDP d1180       4.709 -14.346  -1.790  0.00  0.00     0.210 HD
ATOM    145  H   BDP d1180       8.866 -16.113  -2.896  0.00  0.00     0.104 H 
ATOM    146  H   BDP d1180       6.960 -12.862  -1.913  0.00  0.00     0.094 H 
ATOM    147  H   BDP d1180       6.522 -15.807  -1.841  0.00  0.00     0.091 H 
ATOM    148  H   BDP d1180       9.001 -14.809  -0.934  0.00  0.00     0.133 H 
ATOM    149  H   BDP d1180       7.087 -14.183  -4.296  0.00  0.00     0.092 H 
ATOM    150  C3  BDP d1176      13.441 -13.810  14.546  0.00  0.00     0.092 C 
ATOM    151  O4  BDP d1176      13.108 -12.975  12.246  0.00  0.00    -0.348 OA
ATOM    152  O3  BDP d1176      14.437 -14.772  14.223  0.00  0.00    -0.390 OA
ATOM    153  O5  BDP d1176      10.693 -13.192  15.047  0.00  0.00    -0.340 OA
ATOM    154  O2  BDP d1176      13.596 -14.297  16.899  0.00  0.00    -0.388 OA
ATOM    155  C1  BDP d1176      11.515 -13.379  16.180  0.00  0.00     0.160 C 
ATOM    156  O6B BDP d1176      10.018 -11.416  12.380  0.00  0.00    -0.646 OA
ATOM    157  C5  BDP d1176      11.348 -12.668  13.887  0.00  0.00     0.152 C 
ATOM    158  O6A BDP d1176       9.590 -13.593  12.564  0.00  0.00    -0.646 OA
ATOM    159  C6  BDP d1176      10.245 -12.558  12.861  0.00  0.00     0.206 C 
ATOM    160  C4  BDP d1176      12.477 -13.565  13.372  0.00  0.00     0.103 C 
ATOM    161  C2  BDP d1176      12.696 -14.276  15.804  0.00  0.00     0.110 C 
ATOM    162  H   BDP d1176      13.912 -12.869  14.741  0.00  0.00     0.091 H 
ATOM    163  H   BDP d1176      14.014 -15.628  14.045  0.00  0.00     0.210 HD
ATOM    164  H   BDP d1176      14.355 -14.861  16.682  0.00  0.00     0.210 HD
ATOM    165  H   BDP d1176      11.855 -12.422  16.520  0.00  0.00     0.133 H 
ATOM    166  H   BDP d1176      11.825 -11.735  14.105  0.00  0.00     0.104 H 
ATOM    167  H   BDP d1176      12.104 -14.508  13.031  0.00  0.00     0.092 H 
ATOM    168  H   BDP d1176      12.309 -15.248  15.584  0.00  0.00     0.094 H 
ENDROOT
TORSDOF 43
ENDMDL
MODEL 40
REMARK VINA RESULT:      -6.2      3.996     18.568
REMARK  0 active torsions:
REMARK  status: ('A' for Active; 'I' for Inactive)
REMARK       I    between atoms: C3_1  and  O3_90 
REMARK       I    between atoms: O1_4  and  C1_76 
REMARK       I    between atoms: C2_5  and  N2_21 
REMARK       I    between atoms: C8_6  and  C7_66 
REMARK       I    between atoms: C4_7  and  O4_24 
REMARK       I    between atoms: N2_9  and  C2_60 
REMARK       I    between atoms: N2_9  and  C7_69 
REMARK       I    between atoms: O4_12  and  C4_26 
REMARK       I    between atoms: O3_13  and  C3_65 
REMARK       I    between atoms: O3_13  and  C1_61 
REMARK       I    between atoms: C3_14  and  O3_35 
REMARK       I    between atoms: C6_15  and  C5_53 
REMARK       I    between atoms: C6_15  and  O6_46 
REMARK       I    between atoms: O6_16  and  C6_54 
REMARK       I    between atoms: C4_17  and  O4_49 
REMARK       I    between atoms: O4_18  and  C4_28 
REMARK       I    between atoms: O4_18  and  C1_47 
REMARK       I    between atoms: C3_19  and  O3_43 
REMARK       I    between atoms: C1_20  and  O4_91 
REMARK       I    between atoms: N2_21  and  C7_66 
REMARK       I    between atoms: O3_22  and  C3_82 
REMARK       I    between atoms: C7_23  and  C8_62 
REMARK       I    between atoms: C7_23  and  N2_51 
REMARK       I    between atoms: C2_25  and  N2_41 
REMARK       I    between atoms: C1_27  and  O3_90 
REMARK       I    between atoms: O6_29  and  C6_74 
REMARK       I    between atoms: O2_30  and  C2_37 
REMARK       I    between atoms: C2_31  and  O2_42 
REMARK       I    between atoms: O3_32  and  C3_45 
REMARK       I    between atoms: O4_33  and  C4_73 
REMARK       I    between atoms: O4_34  and  C4_84 
REMARK       I    between atoms: O4_34  and  C1_85 
REMARK       I    between atoms: C5_36  and  C6_48 
REMARK       I    between atoms: C6_38  and  C5_40 
REMARK       I    between atoms: C6_38  and  O6_89 
REMARK       I    between atoms: N2_41  and  C7_50 
REMARK       I    between atoms: C5_44  and  C6_74 
REMARK       I    between atoms: C7_50  and  C8_75 
REMARK       I    between atoms: N2_51  and  C2_58 
REMARK       I    between atoms: C1_52  and  O3_87 
REMARK       I    between atoms: C6_54  and  C5_86 
REMARK       I    between atoms: O2_59  and  C2_93 
REMARK       I    between atoms: C8_64  and  C7_69 
REMARK       I    between atoms: C6_70  and  C5_80 
REMARK       I    between atoms: C4_72  and  O4_91 
REMARK       I    between atoms: C5_77  and  C6_79 
REMARK       I    between atoms: C3_83  and  O3_87 
ROOT
ATOM      1  C3  NAG d1177      14.132 -10.922   2.800  0.00  0.00     0.093 C 
ATOM      2  O7  NAG d1177      16.947 -13.589   2.840  0.00  0.00    -0.274 OA
ATOM      3  C4  NAG d1177      13.869  -9.697   1.906  0.00  0.00     0.089 C 
ATOM      4  C2  NAG d1177      14.616 -12.094   1.963  0.00  0.00     0.087 C 
ATOM      5  C6  NAG d1177      12.835  -8.896  -0.285  0.00  0.00     0.043 C 
ATOM      6  C5  NAG d1177      13.014 -10.061   0.703  0.00  0.00     0.089 C 
ATOM      7  N2  NAG d1177      14.651 -13.349   2.736  0.00  0.00    -0.349 N 
ATOM      8  O4  NAG d1177      13.235  -8.670   2.643  0.00  0.00    -0.390 OA
ATOM      9  C7  NAG d1177      15.766 -13.975   3.118  0.00  0.00     0.214 C 
ATOM     10  O5  NAG d1177      13.602 -11.149   0.001  0.00  0.00    -0.349 OA
ATOM     11  C8  NAG d1177      15.476 -15.246   3.873  0.00  0.00    -0.003 C 
ATOM     12  C1  NAG d1177      13.693 -12.327   0.768  0.00  0.00     0.154 C 
ATOM     13  O6  NAG d1177      14.079  -8.507  -0.841  0.00  0.00    -0.398 OA
ATOM     14  O3  NAG d1177      15.152 -10.625   3.714  0.00  0.00    -0.348 OA
ATOM     15  H   NAG d1177      13.219 -11.168   3.300  0.00  0.00     0.091 H 
ATOM     16  H   NAG d1177      14.819  -9.348   1.555  0.00  0.00     0.091 H 
ATOM     17  H   NAG d1177      15.605 -11.839   1.641  0.00  0.00     0.084 H 
ATOM     18  H   NAG d1177      12.406  -8.063   0.231  0.00  0.00     0.078 H 
ATOM     19  H   NAG d1177      12.193  -9.217  -1.078  0.00  0.00     0.078 H 
ATOM     20  H   NAG d1177      12.051 -10.321   1.089  0.00  0.00     0.090 H 
ATOM     21  H   NAG d1177      13.789 -13.754   2.989  0.00  0.00     0.163 HD
ATOM     22  H   NAG d1177      12.374  -8.985   2.961  0.00  0.00     0.210 HD
ATOM     23  H   NAG d1177      16.398 -15.710   4.157  0.00  0.00     0.040 H 
ATOM     24  H   NAG d1177      14.919 -15.913   3.249  0.00  0.00     0.040 H 
ATOM     25  H   NAG d1177      14.907 -15.018   4.750  0.00  0.00     0.040 H 
ATOM     26  H   NAG d1177      12.712 -12.578   1.110  0.00  0.00     0.132 H 
ATOM     27  H   NAG d1177      14.672  -8.212  -0.132  0.00  0.00     0.209 HD
ATOM     28  O6A BDP d1178      12.415  -7.976   6.612  0.00  0.00    -0.646 OA
ATOM     29  O4  BDP d1178      14.052 -10.722   9.044  0.00  0.00    -0.348 OA
ATOM     30  O3  BDP d1178      16.757 -10.672   8.161  0.00  0.00    -0.390 OA
ATOM     31  C1  BDP d1178      14.762 -10.865   5.073  0.00  0.00     0.160 C 
ATOM     32  C4  BDP d1178      14.457 -10.166   7.815  0.00  0.00     0.103 C 
ATOM     33  C2  BDP d1178      16.002 -10.698   5.925  0.00  0.00     0.110 C 
ATOM     34  O2  BDP d1178      17.015 -11.571   5.495  0.00  0.00    -0.388 OA
ATOM     35  O6B BDP d1178      11.351  -9.384   7.978  0.00  0.00    -0.646 OA
ATOM     36  O5  BDP d1178      13.782  -9.943   5.513  0.00  0.00    -0.340 OA
ATOM     37  C6  BDP d1178      12.275  -9.103   7.165  0.00  0.00     0.206 C 
ATOM     38  C5  BDP d1178      13.306 -10.186   6.821  0.00  0.00     0.152 C 
ATOM     39  C3  BDP d1178      15.650 -11.023   7.350  0.00  0.00     0.092 C 
ATOM     40  H   BDP d1178      16.555 -10.873   9.088  0.00  0.00     0.210 HD
ATOM     41  H   BDP d1178      14.341 -11.845   5.152  0.00  0.00     0.133 H 
ATOM     42  H   BDP d1178      14.744  -9.139   7.903  0.00  0.00     0.092 H 
ATOM     43  H   BDP d1178      16.355  -9.692   5.842  0.00  0.00     0.094 H 
ATOM     44  H   BDP d1178      16.705 -12.487   5.566  0.00  0.00     0.210 HD
ATOM     45  H   BDP d1178      12.849 -11.152   6.874  0.00  0.00     0.104 H 
ATOM     46  H   BDP d1178      15.405 -12.062   7.424  0.00  0.00     0.091 H 
ATOM     47  O1  NAG d1175      11.112 -19.850  -7.332  0.00  0.00    -0.369 OA
ATOM     48  O3  NAG d1175      11.993 -16.648  -4.031  0.00  0.00    -0.348 OA
ATOM     49  O6  NAG d1175      10.944 -22.625  -3.163  0.00  0.00    -0.398 OA
ATOM     50  C7  NAG d1175      11.751 -16.139  -7.063  0.00  0.00     0.214 C 
ATOM     51  O4  NAG d1175      12.107 -18.876  -2.034  0.00  0.00    -0.390 OA
ATOM     52  N2  NAG d1175      12.089 -17.400  -6.767  0.00  0.00    -0.349 N 
ATOM     53  C6  NAG d1175      10.665 -21.279  -2.886  0.00  0.00     0.043 C 
ATOM     54  C2  NAG d1175      11.510 -18.214  -5.686  0.00  0.00     0.087 C 
ATOM     55  C8  NAG d1175      10.435 -15.613  -6.589  0.00  0.00    -0.003 C 
ATOM     56  O7  NAG d1175      12.502 -15.401  -7.720  0.00  0.00    -0.274 OA
ATOM     57  C3  NAG d1175      12.187 -18.014  -4.339  0.00  0.00     0.093 C 
ATOM     58  C4  NAG d1175      11.514 -18.956  -3.330  0.00  0.00     0.089 C 
ATOM     59  C1  NAG d1175      11.650 -19.685  -6.051  0.00  0.00     0.151 C 
ATOM     60  C5  NAG d1175      11.479 -20.406  -3.829  0.00  0.00     0.089 C 
ATOM     61  O5  NAG d1175      10.935 -20.499  -5.132  0.00  0.00    -0.349 OA
ATOM     62  H   NAG d1175      11.599 -19.295  -7.962  0.00  0.00     0.212 HD
ATOM     63  H   NAG d1175      10.430 -23.191  -2.567  0.00  0.00     0.209 HD
ATOM     64  H   NAG d1175      12.119 -17.951  -1.740  0.00  0.00     0.210 HD
ATOM     65  H   NAG d1175      12.786 -17.820  -7.321  0.00  0.00     0.163 HD
ATOM     66  H   NAG d1175      10.929 -21.058  -1.873  0.00  0.00     0.078 H 
ATOM     67  H   NAG d1175       9.621 -21.088  -3.024  0.00  0.00     0.078 H 
ATOM     68  H   NAG d1175      10.490 -17.905  -5.590  0.00  0.00     0.084 H 
ATOM     69  H   NAG d1175       9.921 -16.378  -6.043  0.00  0.00     0.040 H 
ATOM     70  H   NAG d1175       9.844 -15.318  -7.431  0.00  0.00     0.040 H 
ATOM     71  H   NAG d1175      10.596 -14.768  -5.953  0.00  0.00     0.040 H 
ATOM     72  H   NAG d1175      13.232 -18.241  -4.328  0.00  0.00     0.091 H 
ATOM     73  H   NAG d1175      10.502 -18.620  -3.240  0.00  0.00     0.091 H 
ATOM     74  H   NAG d1175      12.680 -19.975  -6.021  0.00  0.00     0.132 H 
ATOM     75  H   NAG d1175      12.491 -20.751  -3.856  0.00  0.00     0.090 H 
ATOM     76  C2  NAG d1181       6.074  -8.472  17.881  0.00  0.00     0.087 C 
ATOM     77  C8  NAG d1181       4.286  -6.657  16.412  0.00  0.00    -0.003 C 
ATOM     78  O5  NAG d1181       7.123 -10.684  17.971  0.00  0.00    -0.349 OA
ATOM     79  O4  NAG d1181       4.655 -10.407  20.684  0.00  0.00    -0.390 OA
ATOM     80  C3  NAG d1181       5.572  -8.667  19.302  0.00  0.00     0.086 C 
ATOM     81  C1  NAG d1181       7.312  -9.326  17.601  0.00  0.00     0.154 C 
ATOM     82  N2  NAG d1181       6.369  -7.074  17.620  0.00  0.00    -0.349 N 
ATOM     83  C4  NAG d1181       5.286 -10.157  19.448  0.00  0.00     0.089 C 
ATOM     84  O6  NAG d1181       6.338 -13.172  18.503  0.00  0.00    -0.398 OA
ATOM     85  O3  NAG d1181       4.431  -7.869  19.573  0.00  0.00    -0.391 OA
ATOM     86  C5  NAG d1181       6.633 -10.885  19.294  0.00  0.00     0.089 C 
ATOM     87  O7  NAG d1181       6.289  -5.460  16.048  0.00  0.00    -0.274 OA
ATOM     88  C7  NAG d1181       5.733  -6.355  16.682  0.00  0.00     0.214 C 
ATOM     89  C6  NAG d1181       6.595 -12.379  19.644  0.00  0.00     0.043 C 
ATOM     90  H   NAG d1181       5.291  -8.789  17.224  0.00  0.00     0.084 H 
ATOM     91  H   NAG d1181       3.965  -7.458  17.046  0.00  0.00     0.040 H 
ATOM     92  H   NAG d1181       4.165  -6.943  15.388  0.00  0.00     0.040 H 
ATOM     93  H   NAG d1181       3.697  -5.787  16.611  0.00  0.00     0.040 H 
ATOM     94  H   NAG d1181       3.815  -9.924  20.723  0.00  0.00     0.210 HD
ATOM     95  H   NAG d1181       6.302  -8.351  20.018  0.00  0.00     0.090 H 
ATOM     96  H   NAG d1181       8.157  -9.009  18.176  0.00  0.00     0.132 H 
ATOM     97  H   NAG d1181       7.067  -6.633  18.157  0.00  0.00     0.163 HD
ATOM     98  H   NAG d1181       4.610 -10.516  18.700  0.00  0.00     0.091 H 
ATOM     99  H   NAG d1181       6.320 -14.107  18.756  0.00  0.00     0.209 HD
ATOM    100  H   NAG d1181       3.720  -8.103  18.956  0.00  0.00     0.210 HD
ATOM    101  H   NAG d1181       7.300 -10.454  20.012  0.00  0.00     0.090 H 
ATOM    102  H   NAG d1181       7.538 -12.663  20.060  0.00  0.00     0.078 H 
ATOM    103  H   NAG d1181       5.805 -12.538  20.348  0.00  0.00     0.078 H 
ATOM    104  C4  NAG d1179      13.864  -9.441  13.003  0.00  0.00     0.089 C 
ATOM    105  N2  NAG d1179      11.641 -10.933  10.283  0.00  0.00    -0.349 N 
ATOM    106  C6  NAG d1179      16.130  -8.415  12.530  0.00  0.00     0.043 C 
ATOM    107  O4  NAG d1179      13.586  -8.547  14.076  0.00  0.00    -0.390 OA
ATOM    108  O6  NAG d1179      16.861  -9.601  12.766  0.00  0.00    -0.398 OA
ATOM    109  C1  NAG d1179      13.799  -9.837  10.139  0.00  0.00     0.154 C 
ATOM    110  C5  NAG d1179      14.757  -8.752  11.974  0.00  0.00     0.089 C 
ATOM    111  O5  NAG d1179      14.968  -9.606  10.864  0.00  0.00    -0.349 OA
ATOM    112  C2  NAG d1179      12.842 -10.616  11.035  0.00  0.00     0.087 C 
ATOM    113  C8  NAG d1179       9.967 -12.362   9.355  0.00  0.00    -0.003 C 
ATOM    114  C7  NAG d1179      11.103 -12.152  10.298  0.00  0.00     0.214 C 
ATOM    115  C3  NAG d1179      12.557  -9.865  12.346  0.00  0.00     0.093 C 
ATOM    116  O3  NAG d1179      11.851 -10.709  13.244  0.00  0.00    -0.348 OA
ATOM    117  O7  NAG d1179      11.482 -13.057  11.034  0.00  0.00    -0.274 OA
ATOM    118  H   NAG d1179      14.370 -10.305  13.382  0.00  0.00     0.091 H 
ATOM    119  H   NAG d1179      11.212 -10.228   9.747  0.00  0.00     0.163 HD
ATOM    120  H   NAG d1179      16.019  -7.879  13.449  0.00  0.00     0.078 H 
ATOM    121  H   NAG d1179      16.657  -7.812  11.820  0.00  0.00     0.078 H 
ATOM    122  H   NAG d1179      13.128  -7.764  13.735  0.00  0.00     0.210 HD
ATOM    123  H   NAG d1179      16.386 -10.151  13.409  0.00  0.00     0.209 HD
ATOM    124  H   NAG d1179      13.420  -8.894   9.805  0.00  0.00     0.132 H 
ATOM    125  H   NAG d1179      14.250  -7.851  11.696  0.00  0.00     0.090 H 
ATOM    126  H   NAG d1179      13.297 -11.538  11.333  0.00  0.00     0.084 H 
ATOM    127  H   NAG d1179       9.789 -11.462   8.803  0.00  0.00     0.040 H 
ATOM    128  H   NAG d1179       9.088 -12.622   9.907  0.00  0.00     0.040 H 
ATOM    129  H   NAG d1179      10.208 -13.153   8.676  0.00  0.00     0.040 H 
ATOM    130  H   NAG d1179      11.969  -9.001  12.118  0.00  0.00     0.091 H 
ATOM    131  O5  BDP d1180      10.747  -9.171  14.559  0.00  0.00    -0.340 OA
ATOM    132  O6A BDP d1180       9.284  -6.359  15.643  0.00  0.00    -0.646 OA
ATOM    133  O2  BDP d1180       9.352 -12.164  13.058  0.00  0.00    -0.388 OA
ATOM    134  O3  BDP d1180       7.985 -11.968  15.655  0.00  0.00    -0.390 OA
ATOM    135  C5  BDP d1180       9.532  -8.633  15.033  0.00  0.00     0.152 C 
ATOM    136  C2  BDP d1180       9.735 -11.345  14.142  0.00  0.00     0.110 C 
ATOM    137  C3  BDP d1180       8.469 -10.896  14.865  0.00  0.00     0.092 C 
ATOM    138  C6  BDP d1180       9.857  -7.436  15.915  0.00  0.00     0.206 C 
ATOM    139  C1  BDP d1180      10.565 -10.182  13.599  0.00  0.00     0.160 C 
ATOM    140  C4  BDP d1180       8.754  -9.711  15.772  0.00  0.00     0.103 C 
ATOM    141  O6B BDP d1180      10.692  -7.600  16.842  0.00  0.00    -0.646 OA
ATOM    142  O4  BDP d1180       7.524  -9.182  16.187  0.00  0.00    -0.348 OA
ATOM    143  H   BDP d1180      10.143 -12.462  12.582  0.00  0.00     0.210 HD
ATOM    144  H   BDP d1180       7.800 -12.731  15.085  0.00  0.00     0.210 HD
ATOM    145  H   BDP d1180       8.911  -8.298  14.229  0.00  0.00     0.104 H 
ATOM    146  H   BDP d1180      10.345 -11.865  14.851  0.00  0.00     0.094 H 
ATOM    147  H   BDP d1180       7.743 -10.605  14.135  0.00  0.00     0.091 H 
ATOM    148  H   BDP d1180      10.056  -9.749  12.763  0.00  0.00     0.133 H 
ATOM    149  H   BDP d1180       9.341 -10.035  16.606  0.00  0.00     0.092 H 
ATOM    150  C3  BDP d1176      13.766 -13.707  -2.432  0.00  0.00     0.092 C 
ATOM    151  O4  BDP d1176      14.194 -13.419  -0.017  0.00  0.00    -0.348 OA
ATOM    152  O3  BDP d1176      13.604 -12.325  -2.730  0.00  0.00    -0.390 OA
ATOM    153  O5  BDP d1176      12.592 -16.239  -1.808  0.00  0.00    -0.340 OA
ATOM    154  O2  BDP d1176      13.507 -14.334  -4.742  0.00  0.00    -0.388 OA
ATOM    155  C1  BDP d1176      12.960 -16.029  -3.155  0.00  0.00     0.160 C 
ATOM    156  O6B BDP d1176      13.554 -16.555   1.307  0.00  0.00    -0.646 OA
ATOM    157  C5  BDP d1176      13.390 -15.557  -0.835  0.00  0.00     0.152 C 
ATOM    158  O6A BDP d1176      11.568 -15.755   0.694  0.00  0.00    -0.646 OA
ATOM    159  C6  BDP d1176      12.792 -15.974   0.488  0.00  0.00     0.206 C 
ATOM    160  C4  BDP d1176      13.358 -14.034  -0.986  0.00  0.00     0.103 C 
ATOM    161  C2  BDP d1176      12.961 -14.527  -3.448  0.00  0.00     0.110 C 
ATOM    162  H   BDP d1176      14.802 -13.963  -2.511  0.00  0.00     0.091 H 
ATOM    163  H   BDP d1176      12.665 -12.088  -2.660  0.00  0.00     0.210 HD
ATOM    164  H   BDP d1176      13.518 -13.387  -4.951  0.00  0.00     0.210 HD
ATOM    165  H   BDP d1176      13.930 -16.450  -3.317  0.00  0.00     0.133 H 
ATOM    166  H   BDP d1176      14.424 -15.814  -0.938  0.00  0.00     0.104 H 
ATOM    167  H   BDP d1176      12.378 -13.643  -0.808  0.00  0.00     0.092 H 
ATOM    168  H   BDP d1176      11.951 -14.182  -3.384  0.00  0.00     0.094 H 
ENDROOT
TORSDOF 43
ENDMDL
MODEL 41
REMARK VINA RESULT:      -6.2      2.714      4.069
REMARK  0 active torsions:
REMARK  status: ('A' for Active; 'I' for Inactive)
REMARK       I    between atoms: C3_1  and  O3_90 
REMARK       I    between atoms: O1_4  and  C1_76 
REMARK       I    between atoms: C2_5  and  N2_21 
REMARK       I    between atoms: C8_6  and  C7_66 
REMARK       I    between atoms: C4_7  and  O4_24 
REMARK       I    between atoms: N2_9  and  C2_60 
REMARK       I    between atoms: N2_9  and  C7_69 
REMARK       I    between atoms: O4_12  and  C4_26 
REMARK       I    between atoms: O3_13  and  C3_65 
REMARK       I    between atoms: O3_13  and  C1_61 
REMARK       I    between atoms: C3_14  and  O3_35 
REMARK       I    between atoms: C6_15  and  C5_53 
REMARK       I    between atoms: C6_15  and  O6_46 
REMARK       I    between atoms: O6_16  and  C6_54 
REMARK       I    between atoms: C4_17  and  O4_49 
REMARK       I    between atoms: O4_18  and  C4_28 
REMARK       I    between atoms: O4_18  and  C1_47 
REMARK       I    between atoms: C3_19  and  O3_43 
REMARK       I    between atoms: C1_20  and  O4_91 
REMARK       I    between atoms: N2_21  and  C7_66 
REMARK       I    between atoms: O3_22  and  C3_82 
REMARK       I    between atoms: C7_23  and  C8_62 
REMARK       I    between atoms: C7_23  and  N2_51 
REMARK       I    between atoms: C2_25  and  N2_41 
REMARK       I    between atoms: C1_27  and  O3_90 
REMARK       I    between atoms: O6_29  and  C6_74 
REMARK       I    between atoms: O2_30  and  C2_37 
REMARK       I    between atoms: C2_31  and  O2_42 
REMARK       I    between atoms: O3_32  and  C3_45 
REMARK       I    between atoms: O4_33  and  C4_73 
REMARK       I    between atoms: O4_34  and  C4_84 
REMARK       I    between atoms: O4_34  and  C1_85 
REMARK       I    between atoms: C5_36  and  C6_48 
REMARK       I    between atoms: C6_38  and  C5_40 
REMARK       I    between atoms: C6_38  and  O6_89 
REMARK       I    between atoms: N2_41  and  C7_50 
REMARK       I    between atoms: C5_44  and  C6_74 
REMARK       I    between atoms: C7_50  and  C8_75 
REMARK       I    between atoms: N2_51  and  C2_58 
REMARK       I    between atoms: C1_52  and  O3_87 
REMARK       I    between atoms: C6_54  and  C5_86 
REMARK       I    between atoms: O2_59  and  C2_93 
REMARK       I    between atoms: C8_64  and  C7_69 
REMARK       I    between atoms: C6_70  and  C5_80 
REMARK       I    between atoms: C4_72  and  O4_91 
REMARK       I    between atoms: C5_77  and  C6_79 
REMARK       I    between atoms: C3_83  and  O3_87 
ROOT
ATOM      1  C3  NAG d1177      13.882 -10.529   8.682  0.00  0.00     0.093 C 
ATOM      2  O7  NAG d1177      11.048  -8.133   9.806  0.00  0.00    -0.274 OA
ATOM      3  C4  NAG d1177      15.371 -10.630   9.057  0.00  0.00     0.089 C 
ATOM      4  C2  NAG d1177      13.044 -10.239   9.916  0.00  0.00     0.087 C 
ATOM      5  C6  NAG d1177      17.040 -11.585  10.733  0.00  0.00     0.043 C 
ATOM      6  C5  NAG d1177      15.583 -11.556  10.244  0.00  0.00     0.089 C 
ATOM      7  N2  NAG d1177      11.600 -10.371   9.648  0.00  0.00    -0.349 N 
ATOM      8  O4  NAG d1177      16.131 -11.091   7.957  0.00  0.00    -0.390 OA
ATOM      9  C7  NAG d1177      10.741  -9.350   9.599  0.00  0.00     0.214 C 
ATOM     10  O5  NAG d1177      14.760 -11.148  11.330  0.00  0.00    -0.349 OA
ATOM     11  C8  NAG d1177       9.330  -9.806   9.329  0.00  0.00    -0.003 C 
ATOM     12  C1  NAG d1177      13.382 -11.213  11.044  0.00  0.00     0.154 C 
ATOM     13  O6  NAG d1177      17.443 -10.311  11.203  0.00  0.00    -0.398 OA
ATOM     14  O3  NAG d1177      13.692  -9.456   7.800  0.00  0.00    -0.348 OA
ATOM     15  H   NAG d1177      13.589 -11.457   8.237  0.00  0.00     0.091 H 
ATOM     16  H   NAG d1177      15.699  -9.648   9.328  0.00  0.00     0.091 H 
ATOM     17  H   NAG d1177      13.270  -9.232  10.198  0.00  0.00     0.084 H 
ATOM     18  H   NAG d1177      17.675 -11.877   9.923  0.00  0.00     0.078 H 
ATOM     19  H   NAG d1177      17.115 -12.285  11.539  0.00  0.00     0.078 H 
ATOM     20  H   NAG d1177      15.325 -12.538   9.907  0.00  0.00     0.090 H 
ATOM     21  H   NAG d1177      11.244 -11.277   9.494  0.00  0.00     0.163 HD
ATOM     22  H   NAG d1177      15.834 -11.981   7.709  0.00  0.00     0.210 HD
ATOM     23  H   NAG d1177       8.681  -8.955   9.299  0.00  0.00     0.040 H 
ATOM     24  H   NAG d1177       9.014 -10.468  10.107  0.00  0.00     0.040 H 
ATOM     25  H   NAG d1177       9.293 -10.316   8.389  0.00  0.00     0.040 H 
ATOM     26  H   NAG d1177      13.152 -12.213  10.743  0.00  0.00     0.132 H 
ATOM     27  H   NAG d1177      17.380  -9.665  10.482  0.00  0.00     0.209 HD
ATOM     28  O6A BDP d1178      15.429 -11.712   3.953  0.00  0.00    -0.646 OA
ATOM     29  O4  BDP d1178      11.800 -10.439   2.792  0.00  0.00    -0.348 OA
ATOM     30  O3  BDP d1178      11.822  -7.776   3.796  0.00  0.00    -0.390 OA
ATOM     31  C1  BDP d1178      13.025  -9.847   6.592  0.00  0.00     0.160 C 
ATOM     32  C4  BDP d1178      12.709  -9.985   3.767  0.00  0.00     0.103 C 
ATOM     33  C2  BDP d1178      12.709  -8.576   5.831  0.00  0.00     0.110 C 
ATOM     34  O2  BDP d1178      11.933  -7.711   6.618  0.00  0.00    -0.388 OA
ATOM     35  O6B BDP d1178      13.768 -12.939   3.107  0.00  0.00    -0.646 OA
ATOM     36  O5  BDP d1178      13.840 -10.672   5.780  0.00  0.00    -0.340 OA
ATOM     37  C6  BDP d1178      14.205 -12.002   3.830  0.00  0.00     0.206 C 
ATOM     38  C5  BDP d1178      13.200 -11.148   4.614  0.00  0.00     0.152 C 
ATOM     39  C3  BDP d1178      11.936  -8.940   4.595  0.00  0.00     0.092 C 
ATOM     40  H   BDP d1178      11.325  -7.985   2.990  0.00  0.00     0.210 HD
ATOM     41  H   BDP d1178      12.146 -10.404   6.839  0.00  0.00     0.133 H 
ATOM     42  H   BDP d1178      13.588  -9.549   3.339  0.00  0.00     0.092 H 
ATOM     43  H   BDP d1178      13.623  -8.082   5.574  0.00  0.00     0.094 H 
ATOM     44  H   BDP d1178      11.101  -8.150   6.857  0.00  0.00     0.210 HD
ATOM     45  H   BDP d1178      12.348 -11.740   4.877  0.00  0.00     0.104 H 
ATOM     46  H   BDP d1178      10.981  -9.332   4.879  0.00  0.00     0.091 H 
ATOM     47  O1  NAG d1175       9.726 -15.045  21.085  0.00  0.00    -0.369 OA
ATOM     48  O3  NAG d1175      11.363 -13.633  16.931  0.00  0.00    -0.348 OA
ATOM     49  O6  NAG d1175       5.668 -15.521  18.183  0.00  0.00    -0.398 OA
ATOM     50  C7  NAG d1175      12.969 -13.865  19.554  0.00  0.00     0.214 C 
ATOM     51  O4  NAG d1175       8.565 -13.799  15.877  0.00  0.00    -0.390 OA
ATOM     52  N2  NAG d1175      11.654 -13.709  19.754  0.00  0.00    -0.349 N 
ATOM     53  C6  NAG d1175       6.844 -15.595  17.424  0.00  0.00     0.043 C 
ATOM     54  C2  NAG d1175      10.584 -14.376  18.997  0.00  0.00     0.087 C 
ATOM     55  C8  NAG d1175      13.449 -15.080  18.827  0.00  0.00    -0.003 C 
ATOM     56  O7  NAG d1175      13.794 -13.030  19.957  0.00  0.00    -0.274 OA
ATOM     57  C3  NAG d1175      10.191 -13.647  17.721  0.00  0.00     0.093 C 
ATOM     58  C4  NAG d1175       9.040 -14.427  17.069  0.00  0.00     0.089 C 
ATOM     59  C1  NAG d1175       9.342 -14.460  19.873  0.00  0.00     0.151 C 
ATOM     60  C5  NAG d1175       7.889 -14.684  18.049  0.00  0.00     0.089 C 
ATOM     61  O5  NAG d1175       8.348 -15.265  19.256  0.00  0.00    -0.349 OA
ATOM     62  H   NAG d1175      10.404 -14.496  21.508  0.00  0.00     0.212 HD
ATOM     63  H   NAG d1175       4.994 -16.099  17.793  0.00  0.00     0.209 HD
ATOM     64  H   NAG d1175       9.310 -13.646  15.274  0.00  0.00     0.210 HD
ATOM     65  H   NAG d1175      11.380 -13.093  20.472  0.00  0.00     0.163 HD
ATOM     66  H   NAG d1175       6.644 -15.280  16.421  0.00  0.00     0.078 H 
ATOM     67  H   NAG d1175       7.203 -16.603  17.407  0.00  0.00     0.078 H 
ATOM     68  H   NAG d1175      10.964 -15.337  18.721  0.00  0.00     0.084 H 
ATOM     69  H   NAG d1175      12.611 -15.687  18.555  0.00  0.00     0.040 H 
ATOM     70  H   NAG d1175      14.104 -15.640  19.462  0.00  0.00     0.040 H 
ATOM     71  H   NAG d1175      13.976 -14.783  17.945  0.00  0.00     0.040 H 
ATOM     72  H   NAG d1175       9.844 -12.646  17.869  0.00  0.00     0.091 H 
ATOM     73  H   NAG d1175       9.446 -15.377  16.790  0.00  0.00     0.091 H 
ATOM     74  H   NAG d1175       8.932 -13.483  20.024  0.00  0.00     0.132 H 
ATOM     75  H   NAG d1175       7.451 -13.734  18.272  0.00  0.00     0.090 H 
ATOM     76  C2  NAG d1181      11.673 -17.804  -6.828  0.00  0.00     0.087 C 
ATOM     77  C8  NAG d1181      14.110 -19.340  -6.242  0.00  0.00    -0.003 C 
ATOM     78  O5  NAG d1181       9.465 -17.086  -6.043  0.00  0.00    -0.349 OA
ATOM     79  O4  NAG d1181       9.047 -19.426  -8.851  0.00  0.00    -0.390 OA
ATOM     80  C3  NAG d1181      11.039 -18.296  -8.119  0.00  0.00     0.086 C 
ATOM     81  C1  NAG d1181      10.829 -16.709  -6.171  0.00  0.00     0.154 C 
ATOM     82  N2  NAG d1181      13.020 -17.313  -7.064  0.00  0.00    -0.349 N 
ATOM     83  C4  NAG d1181       9.648 -18.793  -7.742  0.00  0.00     0.089 C 
ATOM     84  O6  NAG d1181       7.078 -18.213  -5.707  0.00  0.00    -0.398 OA
ATOM     85  O3  NAG d1181      11.822 -19.302  -8.740  0.00  0.00    -0.391 OA
ATOM     86  C5  NAG d1181       8.861 -17.570  -7.239  0.00  0.00     0.089 C 
ATOM     87  O7  NAG d1181      15.091 -17.192  -6.184  0.00  0.00    -0.274 OA
ATOM     88  C7  NAG d1181      14.106 -17.858  -6.494  0.00  0.00     0.214 C 
ATOM     89  C6  NAG d1181       7.360 -17.818  -7.034  0.00  0.00     0.043 C 
ATOM     90  H   NAG d1181      11.719 -18.639  -6.161  0.00  0.00     0.084 H 
ATOM     91  H   NAG d1181      13.181 -19.760  -6.570  0.00  0.00     0.040 H 
ATOM     92  H   NAG d1181      14.235 -19.524  -5.195  0.00  0.00     0.040 H 
ATOM     93  H   NAG d1181      14.916 -19.791  -6.783  0.00  0.00     0.040 H 
ATOM     94  H   NAG d1181       9.586 -20.185  -9.121  0.00  0.00     0.210 HD
ATOM     95  H   NAG d1181      10.976 -17.512  -8.844  0.00  0.00     0.090 H 
ATOM     96  H   NAG d1181      10.804 -15.815  -6.757  0.00  0.00     0.132 H 
ATOM     97  H   NAG d1181      13.142 -16.546  -7.670  0.00  0.00     0.163 HD
ATOM     98  H   NAG d1181       9.676 -19.531  -6.968  0.00  0.00     0.091 H 
ATOM     99  H   NAG d1181       6.124 -18.362  -5.610  0.00  0.00     0.209 HD
ATOM    100  H   NAG d1181      11.922 -20.053  -8.135  0.00  0.00     0.210 HD
ATOM    101  H   NAG d1181       8.911 -16.832  -8.012  0.00  0.00     0.090 H 
ATOM    102  H   NAG d1181       6.825 -16.917  -7.250  0.00  0.00     0.078 H 
ATOM    103  H   NAG d1181       7.057 -18.607  -7.691  0.00  0.00     0.078 H 
ATOM    104  C4  NAG d1179      11.562 -10.349  -1.365  0.00  0.00     0.089 C 
ATOM    105  N2  NAG d1179      11.461 -12.826   1.536  0.00  0.00    -0.349 N 
ATOM    106  C6  NAG d1179      12.392  -7.969  -1.125  0.00  0.00     0.043 C 
ATOM    107  O4  NAG d1179      12.031 -10.469  -2.705  0.00  0.00    -0.390 OA
ATOM    108  O6  NAG d1179      11.118  -7.414  -0.866  0.00  0.00    -0.398 OA
ATOM    109  C1  NAG d1179      12.249 -10.536   1.438  0.00  0.00     0.154 C 
ATOM    110  C5  NAG d1179      12.459  -9.389  -0.588  0.00  0.00     0.089 C 
ATOM    111  O5  NAG d1179      12.048  -9.329   0.766  0.00  0.00    -0.349 OA
ATOM    112  C2  NAG d1179      11.326 -11.575   0.812  0.00  0.00     0.087 C 
ATOM    113  C8  NAG d1179      10.695 -14.711   2.788  0.00  0.00    -0.003 C 
ATOM    114  C7  NAG d1179      10.401 -13.536   1.918  0.00  0.00     0.214 C 
ATOM    115  C3  NAG d1179      11.577 -11.718  -0.698  0.00  0.00     0.093 C 
ATOM    116  O3  NAG d1179      10.562 -12.519  -1.285  0.00  0.00    -0.348 OA
ATOM    117  O7  NAG d1179       9.249 -13.276   1.585  0.00  0.00    -0.274 OA
ATOM    118  H   NAG d1179      10.563  -9.966  -1.372  0.00  0.00     0.091 H 
ATOM    119  H   NAG d1179      12.362 -13.160   1.751  0.00  0.00     0.163 HD
ATOM    120  H   NAG d1179      12.566  -7.980  -2.180  0.00  0.00     0.078 H 
ATOM    121  H   NAG d1179      13.139  -7.375  -0.641  0.00  0.00     0.078 H 
ATOM    122  H   NAG d1179      12.937 -10.816  -2.701  0.00  0.00     0.210 HD
ATOM    123  H   NAG d1179      10.438  -7.949  -1.303  0.00  0.00     0.209 HD
ATOM    124  H   NAG d1179      13.289 -10.780   1.383  0.00  0.00     0.132 H 
ATOM    125  H   NAG d1179      13.456  -9.765  -0.689  0.00  0.00     0.090 H 
ATOM    126  H   NAG d1179      10.309 -11.253   0.897  0.00  0.00     0.084 H 
ATOM    127  H   NAG d1179      11.749 -14.769   2.966  0.00  0.00     0.040 H 
ATOM    128  H   NAG d1179      10.367 -15.606   2.301  0.00  0.00     0.040 H 
ATOM    129  H   NAG d1179      10.182 -14.603   3.720  0.00  0.00     0.040 H 
ATOM    130  H   NAG d1179      12.533 -12.179  -0.839  0.00  0.00     0.091 H 
ATOM    131  O5  BDP d1180      11.642 -13.358  -3.141  0.00  0.00    -0.340 OA
ATOM    132  O6A BDP d1180      14.027 -14.370  -5.264  0.00  0.00    -0.646 OA
ATOM    133  O2  BDP d1180       9.607 -15.207  -0.776  0.00  0.00    -0.388 OA
ATOM    134  O3  BDP d1180       9.015 -16.473  -3.365  0.00  0.00    -0.390 OA
ATOM    135  C5  BDP d1180      12.121 -14.470  -3.865  0.00  0.00     0.152 C 
ATOM    136  C2  BDP d1180       9.918 -14.685  -2.049  0.00  0.00     0.110 C 
ATOM    137  C3  BDP d1180      10.230 -15.856  -2.977  0.00  0.00     0.092 C 
ATOM    138  C6  BDP d1180      12.862 -13.955  -5.089  0.00  0.00     0.206 C 
ATOM    139  C1  BDP d1180      11.083 -13.706  -1.899  0.00  0.00     0.160 C 
ATOM    140  C4  BDP d1180      10.957 -15.380  -4.224  0.00  0.00     0.103 C 
ATOM    141  O6B BDP d1180      12.266 -13.132  -5.833  0.00  0.00    -0.646 OA
ATOM    142  O4  BDP d1180      11.450 -16.511  -4.890  0.00  0.00    -0.348 OA
ATOM    143  H   BDP d1180       9.405 -14.479  -0.168  0.00  0.00     0.210 HD
ATOM    144  H   BDP d1180       8.543 -16.780  -2.575  0.00  0.00     0.210 HD
ATOM    145  H   BDP d1180      12.802 -15.054  -3.282  0.00  0.00     0.104 H 
ATOM    146  H   BDP d1180       9.102 -14.141  -2.479  0.00  0.00     0.094 H 
ATOM    147  H   BDP d1180      10.857 -16.548  -2.455  0.00  0.00     0.091 H 
ATOM    148  H   BDP d1180      11.852 -14.166  -1.313  0.00  0.00     0.133 H 
ATOM    149  H   BDP d1180      10.279 -14.829  -4.841  0.00  0.00     0.092 H 
ATOM    150  C3  BDP d1176      13.267 -11.414  14.522  0.00  0.00     0.092 C 
ATOM    151  O4  BDP d1176      12.598 -10.895  12.202  0.00  0.00    -0.348 OA
ATOM    152  O3  BDP d1176      14.671 -11.380  14.293  0.00  0.00    -0.390 OA
ATOM    153  O5  BDP d1176      10.854 -12.930  14.759  0.00  0.00    -0.340 OA
ATOM    154  O2  BDP d1176      13.563 -11.813  16.878  0.00  0.00    -0.388 OA
ATOM    155  C1  BDP d1176      11.492 -12.566  15.965  0.00  0.00     0.160 C 
ATOM    156  O6B BDP d1176       9.304 -11.955  12.045  0.00  0.00    -0.646 OA
ATOM    157  C5  BDP d1176      11.026 -12.020  13.669  0.00  0.00     0.152 C 
ATOM    158  O6A BDP d1176      10.518 -13.816  12.182  0.00  0.00    -0.646 OA
ATOM    159  C6  BDP d1176      10.235 -12.643  12.542  0.00  0.00     0.206 C 
ATOM    160  C4  BDP d1176      12.490 -11.833  13.262  0.00  0.00     0.103 C 
ATOM    161  C2  BDP d1176      12.984 -12.352  15.702  0.00  0.00     0.110 C 
ATOM    162  H   BDP d1176      12.927 -10.428  14.763  0.00  0.00     0.091 H 
ATOM    163  H   BDP d1176      14.984 -12.272  14.073  0.00  0.00     0.210 HD
ATOM    164  H   BDP d1176      14.511 -11.669  16.734  0.00  0.00     0.210 HD
ATOM    165  H   BDP d1176      11.038 -11.671  16.339  0.00  0.00     0.133 H 
ATOM    166  H   BDP d1176      10.694 -11.037  13.933  0.00  0.00     0.104 H 
ATOM    167  H   BDP d1176      12.911 -12.741  12.884  0.00  0.00     0.092 H 
ATOM    168  H   BDP d1176      13.408 -13.300  15.444  0.00  0.00     0.094 H 
ENDROOT
TORSDOF 43
ENDMDL
MODEL 42
REMARK VINA RESULT:      -6.1      4.928      6.872
REMARK  0 active torsions:
REMARK  status: ('A' for Active; 'I' for Inactive)
REMARK       I    between atoms: C3_1  and  O3_90 
REMARK       I    between atoms: O1_4  and  C1_76 
REMARK       I    between atoms: C2_5  and  N2_21 
REMARK       I    between atoms: C8_6  and  C7_66 
REMARK       I    between atoms: C4_7  and  O4_24 
REMARK       I    between atoms: N2_9  and  C2_60 
REMARK       I    between atoms: N2_9  and  C7_69 
REMARK       I    between atoms: O4_12  and  C4_26 
REMARK       I    between atoms: O3_13  and  C3_65 
REMARK       I    between atoms: O3_13  and  C1_61 
REMARK       I    between atoms: C3_14  and  O3_35 
REMARK       I    between atoms: C6_15  and  C5_53 
REMARK       I    between atoms: C6_15  and  O6_46 
REMARK       I    between atoms: O6_16  and  C6_54 
REMARK       I    between atoms: C4_17  and  O4_49 
REMARK       I    between atoms: O4_18  and  C4_28 
REMARK       I    between atoms: O4_18  and  C1_47 
REMARK       I    between atoms: C3_19  and  O3_43 
REMARK       I    between atoms: C1_20  and  O4_91 
REMARK       I    between atoms: N2_21  and  C7_66 
REMARK       I    between atoms: O3_22  and  C3_82 
REMARK       I    between atoms: C7_23  and  C8_62 
REMARK       I    between atoms: C7_23  and  N2_51 
REMARK       I    between atoms: C2_25  and  N2_41 
REMARK       I    between atoms: C1_27  and  O3_90 
REMARK       I    between atoms: O6_29  and  C6_74 
REMARK       I    between atoms: O2_30  and  C2_37 
REMARK       I    between atoms: C2_31  and  O2_42 
REMARK       I    between atoms: O3_32  and  C3_45 
REMARK       I    between atoms: O4_33  and  C4_73 
REMARK       I    between atoms: O4_34  and  C4_84 
REMARK       I    between atoms: O4_34  and  C1_85 
REMARK       I    between atoms: C5_36  and  C6_48 
REMARK       I    between atoms: C6_38  and  C5_40 
REMARK       I    between atoms: C6_38  and  O6_89 
REMARK       I    between atoms: N2_41  and  C7_50 
REMARK       I    between atoms: C5_44  and  C6_74 
REMARK       I    between atoms: C7_50  and  C8_75 
REMARK       I    between atoms: N2_51  and  C2_58 
REMARK       I    between atoms: C1_52  and  O3_87 
REMARK       I    between atoms: C6_54  and  C5_86 
REMARK       I    between atoms: O2_59  and  C2_93 
REMARK       I    between atoms: C8_64  and  C7_69 
REMARK       I    between atoms: C6_70  and  C5_80 
REMARK       I    between atoms: C4_72  and  O4_91 
REMARK       I    between atoms: C5_77  and  C6_79 
REMARK       I    between atoms: C3_83  and  O3_87 
ROOT
ATOM      1  C3  NAG d1177      15.639 -16.366   8.320  0.00  0.00     0.093 C 
ATOM      2  O7  NAG d1177      16.782 -12.910   9.657  0.00  0.00    -0.274 OA
ATOM      3  C4  NAG d1177      16.278 -17.765   8.367  0.00  0.00     0.089 C 
ATOM      4  C2  NAG d1177      15.827 -15.653   9.649  0.00  0.00     0.087 C 
ATOM      5  C6  NAG d1177      16.561 -19.883   9.761  0.00  0.00     0.043 C 
ATOM      6  C5  NAG d1177      15.845 -18.531   9.608  0.00  0.00     0.089 C 
ATOM      7  N2  NAG d1177      15.030 -14.415   9.730  0.00  0.00    -0.349 N 
ATOM      8  O4  NAG d1177      15.938 -18.507   7.212  0.00  0.00    -0.390 OA
ATOM      9  C7  NAG d1177      15.540 -13.181   9.714  0.00  0.00     0.214 C 
ATOM     10  O5  NAG d1177      16.108 -17.758  10.772  0.00  0.00    -0.349 OA
ATOM     11  C8  NAG d1177      14.474 -12.123   9.837  0.00  0.00    -0.003 C 
ATOM     12  C1  NAG d1177      15.393 -16.545  10.811  0.00  0.00     0.154 C 
ATOM     13  O6  NAG d1177      17.957 -19.704   9.927  0.00  0.00    -0.398 OA
ATOM     14  O3  NAG d1177      16.282 -15.590   7.346  0.00  0.00    -0.348 OA
ATOM     15  H   NAG d1177      14.599 -16.485   8.101  0.00  0.00     0.091 H 
ATOM     16  H   NAG d1177      17.339 -17.631   8.404  0.00  0.00     0.091 H 
ATOM     17  H   NAG d1177      16.869 -15.418   9.713  0.00  0.00     0.084 H 
ATOM     18  H   NAG d1177      16.385 -20.474   8.886  0.00  0.00     0.078 H 
ATOM     19  H   NAG d1177      16.176 -20.376  10.629  0.00  0.00     0.078 H 
ATOM     20  H   NAG d1177      14.799 -18.720   9.492  0.00  0.00     0.090 H 
ATOM     21  H   NAG d1177      14.052 -14.505   9.801  0.00  0.00     0.163 HD
ATOM     22  H   NAG d1177      14.977 -18.630   7.178  0.00  0.00     0.210 HD
ATOM     23  H   NAG d1177      14.930 -11.155   9.819  0.00  0.00     0.040 H 
ATOM     24  H   NAG d1177      13.947 -12.252  10.759  0.00  0.00     0.040 H 
ATOM     25  H   NAG d1177      13.789 -12.210   9.019  0.00  0.00     0.040 H 
ATOM     26  H   NAG d1177      14.351 -16.770  10.728  0.00  0.00     0.132 H 
ATOM     27  H   NAG d1177      18.320 -19.257   9.146  0.00  0.00     0.209 HD
ATOM     28  O6A BDP d1178      14.140 -17.676   3.609  0.00  0.00    -0.646 OA
ATOM     29  O4  BDP d1178      13.418 -13.758   3.096  0.00  0.00    -0.348 OA
ATOM     30  O3  BDP d1178      15.988 -12.665   3.644  0.00  0.00    -0.390 OA
ATOM     31  C1  BDP d1178      15.367 -15.035   6.391  0.00  0.00     0.160 C 
ATOM     32  C4  BDP d1178      14.436 -14.466   3.763  0.00  0.00     0.103 C 
ATOM     33  C2  BDP d1178      16.157 -14.071   5.530  0.00  0.00     0.110 C 
ATOM     34  O2  BDP d1178      16.766 -13.088   6.326  0.00  0.00    -0.388 OA
ATOM     35  O6B BDP d1178      12.157 -16.685   3.352  0.00  0.00    -0.646 OA
ATOM     36  O5  BDP d1178      14.803 -16.031   5.558  0.00  0.00    -0.340 OA
ATOM     37  C6  BDP d1178      13.334 -16.723   3.806  0.00  0.00     0.206 C 
ATOM     38  C5  BDP d1178      13.835 -15.544   4.651  0.00  0.00     0.152 C 
ATOM     39  C3  BDP d1178      15.214 -13.407   4.568  0.00  0.00     0.092 C 
ATOM     40  H   BDP d1178      15.401 -12.225   3.009  0.00  0.00     0.210 HD
ATOM     41  H   BDP d1178      14.563 -14.555   6.910  0.00  0.00     0.133 H 
ATOM     42  H   BDP d1178      15.090 -14.980   3.089  0.00  0.00     0.092 H 
ATOM     43  H   BDP d1178      16.917 -14.610   5.005  0.00  0.00     0.094 H 
ATOM     44  H   BDP d1178      16.085 -12.594   6.808  0.00  0.00     0.210 HD
ATOM     45  H   BDP d1178      13.017 -15.106   5.184  0.00  0.00     0.104 H 
ATOM     46  H   BDP d1178      14.530 -12.789   5.114  0.00  0.00     0.091 H 
ATOM     47  O1  NAG d1175      12.887 -16.389  21.882  0.00  0.00    -0.369 OA
ATOM     48  O3  NAG d1175      13.827 -16.643  17.302  0.00  0.00    -0.348 OA
ATOM     49  O6  NAG d1175      10.041 -12.689  20.060  0.00  0.00    -0.398 OA
ATOM     50  C7  NAG d1175      14.938 -18.489  19.508  0.00  0.00     0.214 C 
ATOM     51  O4  NAG d1175      12.232 -14.136  16.931  0.00  0.00    -0.390 OA
ATOM     52  N2  NAG d1175      14.560 -17.290  19.967  0.00  0.00    -0.349 N 
ATOM     53  C6  NAG d1175      10.298 -13.658  19.080  0.00  0.00     0.043 C 
ATOM     54  C2  NAG d1175      13.339 -16.566  19.578  0.00  0.00     0.087 C 
ATOM     55  C8  NAG d1175      13.912 -19.383  18.891  0.00  0.00    -0.003 C 
ATOM     56  O7  NAG d1175      16.116 -18.874  19.584  0.00  0.00    -0.274 OA
ATOM     57  C3  NAG d1175      13.501 -15.722  18.324  0.00  0.00     0.093 C 
ATOM     58  C4  NAG d1175      12.173 -14.994  18.072  0.00  0.00     0.089 C 
ATOM     59  C1  NAG d1175      12.943 -15.627  20.709  0.00  0.00     0.151 C 
ATOM     60  C5  NAG d1175      11.689 -14.229  19.309  0.00  0.00     0.089 C 
ATOM     61  O5  NAG d1175      11.668 -15.053  20.460  0.00  0.00    -0.349 OA
ATOM     62  H   NAG d1175      13.758 -16.782  22.055  0.00  0.00     0.212 HD
ATOM     63  H   NAG d1175       9.156 -12.318  19.923  0.00  0.00     0.209 HD
ATOM     64  H   NAG d1175      12.539 -14.641  16.162  0.00  0.00     0.210 HD
ATOM     65  H   NAG d1175      15.150 -16.854  20.623  0.00  0.00     0.163 HD
ATOM     66  H   NAG d1175      10.249 -13.210  18.110  0.00  0.00     0.078 H 
ATOM     67  H   NAG d1175       9.570 -14.440  19.140  0.00  0.00     0.078 H 
ATOM     68  H   NAG d1175      12.598 -17.312  19.378  0.00  0.00     0.084 H 
ATOM     69  H   NAG d1175      12.958 -18.897  18.908  0.00  0.00     0.040 H 
ATOM     70  H   NAG d1175      13.856 -20.297  19.445  0.00  0.00     0.040 H 
ATOM     71  H   NAG d1175      14.186 -19.595  17.878  0.00  0.00     0.040 H 
ATOM     72  H   NAG d1175      14.260 -14.971  18.387  0.00  0.00     0.091 H 
ATOM     73  H   NAG d1175      11.452 -15.757  17.860  0.00  0.00     0.091 H 
ATOM     74  H   NAG d1175      13.655 -14.833  20.794  0.00  0.00     0.132 H 
ATOM     75  H   NAG d1175      12.383 -13.432  19.473  0.00  0.00     0.090 H 
ATOM     76  C2  NAG d1181       4.646 -15.859  -4.994  0.00  0.00     0.087 C 
ATOM     77  C8  NAG d1181       4.491 -18.784  -4.730  0.00  0.00    -0.003 C 
ATOM     78  O5  NAG d1181       4.514 -13.690  -3.862  0.00  0.00    -0.349 OA
ATOM     79  O4  NAG d1181       1.625 -14.058  -6.109  0.00  0.00    -0.390 OA
ATOM     80  C3  NAG d1181       3.637 -15.371  -6.020  0.00  0.00     0.086 C 
ATOM     81  C1  NAG d1181       5.396 -14.694  -4.345  0.00  0.00     0.154 C 
ATOM     82  N2  NAG d1181       5.594 -16.782  -5.595  0.00  0.00    -0.349 N 
ATOM     83  C4  NAG d1181       2.699 -14.430  -5.273  0.00  0.00     0.089 C 
ATOM     84  O6  NAG d1181       2.589 -12.165  -2.835  0.00  0.00    -0.398 OA
ATOM     85  O3  NAG d1181       2.947 -16.446  -6.635  0.00  0.00    -0.391 OA
ATOM     86  C5  NAG d1181       3.547 -13.235  -4.805  0.00  0.00     0.089 C 
ATOM     87  O7  NAG d1181       6.797 -18.652  -5.225  0.00  0.00    -0.274 OA
ATOM     88  C7  NAG d1181       5.720 -18.059  -5.202  0.00  0.00     0.214 C 
ATOM     89  C6  NAG d1181       2.737 -12.061  -4.237  0.00  0.00     0.043 C 
ATOM     90  H   NAG d1181       4.098 -16.373  -4.233  0.00  0.00     0.084 H 
ATOM     91  H   NAG d1181       3.649 -18.124  -4.775  0.00  0.00     0.040 H 
ATOM     92  H   NAG d1181       4.634 -19.111  -3.721  0.00  0.00     0.040 H 
ATOM     93  H   NAG d1181       4.314 -19.631  -5.358  0.00  0.00     0.040 H 
ATOM     94  H   NAG d1181       1.129 -14.849  -6.371  0.00  0.00     0.210 HD
ATOM     95  H   NAG d1181       4.120 -14.860  -6.827  0.00  0.00     0.090 H 
ATOM     96  H   NAG d1181       6.024 -14.182  -5.043  0.00  0.00     0.132 H 
ATOM     97  H   NAG d1181       6.170 -16.456  -6.324  0.00  0.00     0.163 HD
ATOM     98  H   NAG d1181       2.253 -14.896  -4.419  0.00  0.00     0.091 H 
ATOM     99  H   NAG d1181       2.075 -11.411  -2.508  0.00  0.00     0.209 HD
ATOM    100  H   NAG d1181       2.480 -16.959  -5.958  0.00  0.00     0.210 HD
ATOM    101  H   NAG d1181       4.027 -12.839  -5.675  0.00  0.00     0.090 H 
ATOM    102  H   NAG d1181       3.242 -11.147  -4.466  0.00  0.00     0.078 H 
ATOM    103  H   NAG d1181       1.763 -12.080  -4.680  0.00  0.00     0.078 H 
ATOM    104  C4  NAG d1179      12.401 -12.984  -0.869  0.00  0.00     0.089 C 
ATOM    105  N2  NAG d1179      10.892 -14.413   2.332  0.00  0.00    -0.349 N 
ATOM    106  C6  NAG d1179      14.888 -12.634  -1.190  0.00  0.00     0.043 C 
ATOM    107  O4  NAG d1179      12.177 -13.282  -2.243  0.00  0.00    -0.390 OA
ATOM    108  O6  NAG d1179      14.888 -11.292  -0.746  0.00  0.00    -0.398 OA
ATOM    109  C1  NAG d1179      13.203 -14.026   1.707  0.00  0.00     0.154 C 
ATOM    110  C5  NAG d1179      13.808 -13.421  -0.468  0.00  0.00     0.089 C 
ATOM    111  O5  NAG d1179      14.008 -13.204   0.917  0.00  0.00    -0.349 OA
ATOM    112  C2  NAG d1179      11.752 -13.622   1.470  0.00  0.00     0.087 C 
ATOM    113  C8  NAG d1179       9.221 -14.777   4.000  0.00  0.00    -0.003 C 
ATOM    114  C7  NAG d1179       9.911 -13.862   3.045  0.00  0.00     0.214 C 
ATOM    115  C3  NAG d1179      11.373 -13.718  -0.017  0.00  0.00     0.093 C 
ATOM    116  O3  NAG d1179      10.101 -13.127  -0.233  0.00  0.00    -0.348 OA
ATOM    117  O7  NAG d1179       9.565 -12.691   2.938  0.00  0.00    -0.274 OA
ATOM    118  H   NAG d1179      12.305 -11.929  -0.714  0.00  0.00     0.091 H 
ATOM    119  H   NAG d1179      11.039 -15.385   2.392  0.00  0.00     0.163 HD
ATOM    120  H   NAG d1179      14.700 -12.659  -2.243  0.00  0.00     0.078 H 
ATOM    121  H   NAG d1179      15.841 -13.073  -0.982  0.00  0.00     0.078 H 
ATOM    122  H   NAG d1179      12.263 -14.237  -2.386  0.00  0.00     0.210 HD
ATOM    123  H   NAG d1179      14.026 -10.890  -0.933  0.00  0.00     0.209 HD
ATOM    124  H   NAG d1179      13.422 -15.044   1.463  0.00  0.00     0.132 H 
ATOM    125  H   NAG d1179      13.883 -14.456  -0.727  0.00  0.00     0.090 H 
ATOM    126  H   NAG d1179      11.617 -12.592   1.727  0.00  0.00     0.084 H 
ATOM    127  H   NAG d1179       9.664 -15.750   3.947  0.00  0.00     0.040 H 
ATOM    128  H   NAG d1179       8.184 -14.844   3.743  0.00  0.00     0.040 H 
ATOM    129  H   NAG d1179       9.318 -14.394   4.994  0.00  0.00     0.040 H 
ATOM    130  H   NAG d1179      11.348 -14.751  -0.292  0.00  0.00     0.091 H 
ATOM    131  O5  BDP d1180       9.389 -14.229  -2.129  0.00  0.00    -0.340 OA
ATOM    132  O6A BDP d1180       9.021 -16.523  -4.542  0.00  0.00    -0.646 OA
ATOM    133  O2  BDP d1180       7.471 -13.604   0.886  0.00  0.00    -0.388 OA
ATOM    134  O3  BDP d1180       5.496 -13.349  -1.279  0.00  0.00    -0.390 OA
ATOM    135  C5  BDP d1180       8.451 -15.075  -2.758  0.00  0.00     0.152 C 
ATOM    136  C2  BDP d1180       7.755 -13.474  -0.490  0.00  0.00     0.110 C 
ATOM    137  C3  BDP d1180       6.646 -14.175  -1.271  0.00  0.00     0.092 C 
ATOM    138  C6  BDP d1180       8.925 -15.330  -4.181  0.00  0.00     0.206 C 
ATOM    139  C1  BDP d1180       9.142 -14.058  -0.755  0.00  0.00     0.160 C 
ATOM    140  C4  BDP d1180       7.074 -14.433  -2.705  0.00  0.00     0.103 C 
ATOM    141  O6B BDP d1180       9.210 -14.332  -4.893  0.00  0.00    -0.646 OA
ATOM    142  O4  BDP d1180       6.141 -15.308  -3.280  0.00  0.00    -0.348 OA
ATOM    143  H   BDP d1180       8.164 -13.165   1.403  0.00  0.00     0.210 HD
ATOM    144  H   BDP d1180       5.214 -13.177  -0.366  0.00  0.00     0.210 HD
ATOM    145  H   BDP d1180       8.374 -16.017  -2.257  0.00  0.00     0.104 H 
ATOM    146  H   BDP d1180       7.777 -12.452  -0.808  0.00  0.00     0.094 H 
ATOM    147  H   BDP d1180       6.437 -15.112  -0.799  0.00  0.00     0.091 H 
ATOM    148  H   BDP d1180       9.211 -15.019  -0.290  0.00  0.00     0.133 H 
ATOM    149  H   BDP d1180       7.117 -13.505  -3.235  0.00  0.00     0.092 H 
ATOM    150  C3  BDP d1176      16.000 -16.975  14.216  0.00  0.00     0.092 C 
ATOM    151  O4  BDP d1176      15.611 -15.855  12.050  0.00  0.00    -0.348 OA
ATOM    152  O3  BDP d1176      16.576 -18.161  13.680  0.00  0.00    -0.390 OA
ATOM    153  O5  BDP d1176      13.702 -15.596  15.214  0.00  0.00    -0.340 OA
ATOM    154  O2  BDP d1176      16.342 -17.718  16.481  0.00  0.00    -0.388 OA
ATOM    155  C1  BDP d1176      14.581 -16.138  16.177  0.00  0.00     0.160 C 
ATOM    156  O6B BDP d1176      13.239 -13.443  12.791  0.00  0.00    -0.646 OA
ATOM    157  C5  BDP d1176      14.308 -15.186  13.985  0.00  0.00     0.152 C 
ATOM    158  O6A BDP d1176      12.170 -15.390  12.944  0.00  0.00    -0.646 OA
ATOM    159  C6  BDP d1176      13.158 -14.641  13.171  0.00  0.00     0.206 C 
ATOM    160  C4  BDP d1176      15.001 -16.331  13.240  0.00  0.00     0.103 C 
ATOM    161  C2  BDP d1176      15.343 -17.312  15.561  0.00  0.00     0.110 C 
ATOM    162  H   BDP d1176      16.771 -16.249  14.371  0.00  0.00     0.091 H 
ATOM    163  H   BDP d1176      15.881 -18.822  13.538  0.00  0.00     0.210 HD
ATOM    164  H   BDP d1176      16.839 -18.463  16.110  0.00  0.00     0.210 HD
ATOM    165  H   BDP d1176      15.255 -15.371  16.498  0.00  0.00     0.133 H 
ATOM    166  H   BDP d1176      15.086 -14.472  14.160  0.00  0.00     0.104 H 
ATOM    167  H   BDP d1176      14.299 -17.075  12.925  0.00  0.00     0.092 H 
ATOM    168  H   BDP d1176      14.637 -18.092  15.366  0.00  0.00     0.094 H 
ENDROOT
TORSDOF 43
ENDMDL
MODEL 43
REMARK VINA RESULT:      -6.0      5.888      6.810
REMARK  0 active torsions:
REMARK  status: ('A' for Active; 'I' for Inactive)
REMARK       I    between atoms: C3_1  and  O3_90 
REMARK       I    between atoms: O1_4  and  C1_76 
REMARK       I    between atoms: C2_5  and  N2_21 
REMARK       I    between atoms: C8_6  and  C7_66 
REMARK       I    between atoms: C4_7  and  O4_24 
REMARK       I    between atoms: N2_9  and  C2_60 
REMARK       I    between atoms: N2_9  and  C7_69 
REMARK       I    between atoms: O4_12  and  C4_26 
REMARK       I    between atoms: O3_13  and  C3_65 
REMARK       I    between atoms: O3_13  and  C1_61 
REMARK       I    between atoms: C3_14  and  O3_35 
REMARK       I    between atoms: C6_15  and  C5_53 
REMARK       I    between atoms: C6_15  and  O6_46 
REMARK       I    between atoms: O6_16  and  C6_54 
REMARK       I    between atoms: C4_17  and  O4_49 
REMARK       I    between atoms: O4_18  and  C4_28 
REMARK       I    between atoms: O4_18  and  C1_47 
REMARK       I    between atoms: C3_19  and  O3_43 
REMARK       I    between atoms: C1_20  and  O4_91 
REMARK       I    between atoms: N2_21  and  C7_66 
REMARK       I    between atoms: O3_22  and  C3_82 
REMARK       I    between atoms: C7_23  and  C8_62 
REMARK       I    between atoms: C7_23  and  N2_51 
REMARK       I    between atoms: C2_25  and  N2_41 
REMARK       I    between atoms: C1_27  and  O3_90 
REMARK       I    between atoms: O6_29  and  C6_74 
REMARK       I    between atoms: O2_30  and  C2_37 
REMARK       I    between atoms: C2_31  and  O2_42 
REMARK       I    between atoms: O3_32  and  C3_45 
REMARK       I    between atoms: O4_33  and  C4_73 
REMARK       I    between atoms: O4_34  and  C4_84 
REMARK       I    between atoms: O4_34  and  C1_85 
REMARK       I    between atoms: C5_36  and  C6_48 
REMARK       I    between atoms: C6_38  and  C5_40 
REMARK       I    between atoms: C6_38  and  O6_89 
REMARK       I    between atoms: N2_41  and  C7_50 
REMARK       I    between atoms: C5_44  and  C6_74 
REMARK       I    between atoms: C7_50  and  C8_75 
REMARK       I    between atoms: N2_51  and  C2_58 
REMARK       I    between atoms: C1_52  and  O3_87 
REMARK       I    between atoms: C6_54  and  C5_86 
REMARK       I    between atoms: O2_59  and  C2_93 
REMARK       I    between atoms: C8_64  and  C7_69 
REMARK       I    between atoms: C6_70  and  C5_80 
REMARK       I    between atoms: C4_72  and  O4_91 
REMARK       I    between atoms: C5_77  and  C6_79 
REMARK       I    between atoms: C3_83  and  O3_87 
ROOT
ATOM      1  C3  NAG d1177      15.376 -11.403   8.094  0.00  0.00     0.093 C 
ATOM      2  O7  NAG d1177      15.824  -7.556   8.297  0.00  0.00    -0.274 OA
ATOM      3  C4  NAG d1177      16.229 -12.579   8.602  0.00  0.00     0.089 C 
ATOM      4  C2  NAG d1177      15.333 -10.294   9.133  0.00  0.00     0.087 C 
ATOM      5  C6  NAG d1177      16.734 -14.079  10.603  0.00  0.00     0.043 C 
ATOM      6  C5  NAG d1177      15.823 -12.992  10.008  0.00  0.00     0.089 C 
ATOM      7  N2  NAG d1177      14.341  -9.258   8.794  0.00  0.00    -0.349 N 
ATOM      8  O4  NAG d1177      16.113 -13.689   7.732  0.00  0.00    -0.390 OA
ATOM      9  C7  NAG d1177      14.642  -8.017   8.402  0.00  0.00     0.214 C 
ATOM     10  O5  NAG d1177      15.856 -11.864  10.873  0.00  0.00    -0.349 OA
ATOM     11  C8  NAG d1177      13.412  -7.184   8.151  0.00  0.00    -0.003 C 
ATOM     12  C1  NAG d1177      14.953 -10.849  10.505  0.00  0.00     0.154 C 
ATOM     13  O6  NAG d1177      18.062 -13.607  10.744  0.00  0.00    -0.398 OA
ATOM     14  O3  NAG d1177      15.964 -10.860   6.943  0.00  0.00    -0.348 OA
ATOM     15  H   NAG d1177      14.392 -11.770   7.894  0.00  0.00     0.091 H 
ATOM     16  H   NAG d1177      17.247 -12.250   8.624  0.00  0.00     0.091 H 
ATOM     17  H   NAG d1177      16.314  -9.866   9.149  0.00  0.00     0.084 H 
ATOM     18  H   NAG d1177      16.731 -14.931   9.956  0.00  0.00     0.078 H 
ATOM     19  H   NAG d1177      16.362 -14.342  11.571  0.00  0.00     0.078 H 
ATOM     20  H   NAG d1177      14.835 -13.394   9.928  0.00  0.00     0.090 H 
ATOM     21  H   NAG d1177      13.387  -9.497   8.861  0.00  0.00     0.163 HD
ATOM     22  H   NAG d1177      15.191 -13.989   7.710  0.00  0.00     0.210 HD
ATOM     23  H   NAG d1177      13.704  -6.203   7.840  0.00  0.00     0.040 H 
ATOM     24  H   NAG d1177      12.837  -7.117   9.051  0.00  0.00     0.040 H 
ATOM     25  H   NAG d1177      12.822  -7.641   7.384  0.00  0.00     0.040 H 
ATOM     26  H   NAG d1177      13.972 -11.274  10.467  0.00  0.00     0.132 H 
ATOM     27  H   NAG d1177      18.413 -13.364   9.872  0.00  0.00     0.209 HD
ATOM     28  O6A BDP d1178      14.515 -14.346   4.001  0.00  0.00    -0.646 OA
ATOM     29  O4  BDP d1178      13.211 -10.974   2.250  0.00  0.00    -0.348 OA
ATOM     30  O3  BDP d1178      15.513  -9.319   2.497  0.00  0.00    -0.390 OA
ATOM     31  C1  BDP d1178      15.055 -10.801   5.835  0.00  0.00     0.160 C 
ATOM     32  C4  BDP d1178      14.270 -11.246   3.136  0.00  0.00     0.103 C 
ATOM     33  C2  BDP d1178      15.748 -10.022   4.737  0.00  0.00     0.110 C 
ATOM     34  O2  BDP d1178      16.119  -8.749   5.196  0.00  0.00    -0.388 OA
ATOM     35  O6B BDP d1178      12.426 -13.859   3.385  0.00  0.00    -0.646 OA
ATOM     36  O5  BDP d1178      14.734 -12.090   5.345  0.00  0.00    -0.340 OA
ATOM     37  C6  BDP d1178      13.551 -13.541   3.862  0.00  0.00     0.206 C 
ATOM     38  C5  BDP d1178      13.780 -12.090   4.303  0.00  0.00     0.152 C 
ATOM     39  C3  BDP d1178      14.794  -9.868   3.586  0.00  0.00     0.092 C 
ATOM     40  H   BDP d1178      14.917  -9.209   1.739  0.00  0.00     0.210 HD
ATOM     41  H   BDP d1178      14.144 -10.339   6.151  0.00  0.00     0.133 H 
ATOM     42  H   BDP d1178      15.054 -11.814   2.679  0.00  0.00     0.092 H 
ATOM     43  H   BDP d1178      16.628 -10.549   4.431  0.00  0.00     0.094 H 
ATOM     44  H   BDP d1178      15.328  -8.262   5.477  0.00  0.00     0.210 HD
ATOM     45  H   BDP d1178      12.860 -11.665   4.645  0.00  0.00     0.104 H 
ATOM     46  H   BDP d1178      13.975  -9.247   3.887  0.00  0.00     0.091 H 
ATOM     47  O1  NAG d1175      11.527  -7.755  20.876  0.00  0.00    -0.369 OA
ATOM     48  O3  NAG d1175      12.880  -9.230  16.643  0.00  0.00    -0.348 OA
ATOM     49  O6  NAG d1175       8.280  -5.375  17.892  0.00  0.00    -0.398 OA
ATOM     50  C7  NAG d1175      14.086 -10.075  19.352  0.00  0.00     0.214 C 
ATOM     51  O4  NAG d1175      10.934  -7.292  15.449  0.00  0.00    -0.390 OA
ATOM     52  N2  NAG d1175      13.480  -8.882  19.396  0.00  0.00    -0.349 N 
ATOM     53  C6  NAG d1175       8.774  -6.535  17.278  0.00  0.00     0.043 C 
ATOM     54  C2  NAG d1175      12.195  -8.547  18.762  0.00  0.00     0.087 C 
ATOM     55  C8  NAG d1175      13.275 -11.286  19.021  0.00  0.00    -0.003 C 
ATOM     56  O7  NAG d1175      15.300 -10.198  19.580  0.00  0.00    -0.274 OA
ATOM     57  C3  NAG d1175      12.322  -8.115  17.309  0.00  0.00     0.093 C 
ATOM     58  C4  NAG d1175      10.920  -7.753  16.801  0.00  0.00     0.089 C 
ATOM     59  C1  NAG d1175      11.557  -7.395  19.524  0.00  0.00     0.151 C 
ATOM     60  C5  NAG d1175      10.215  -6.746  17.717  0.00  0.00     0.089 C 
ATOM     61  O5  NAG d1175      10.231  -7.166  19.069  0.00  0.00    -0.349 OA
ATOM     62  H   NAG d1175      12.432  -7.912  21.190  0.00  0.00     0.212 HD
ATOM     63  H   NAG d1175       7.361  -5.232  17.618  0.00  0.00     0.209 HD
ATOM     64  H   NAG d1175      11.384  -7.944  14.889  0.00  0.00     0.210 HD
ATOM     65  H   NAG d1175      13.934  -8.166  19.896  0.00  0.00     0.163 HD
ATOM     66  H   NAG d1175       8.735  -6.424  16.215  0.00  0.00     0.078 H 
ATOM     67  H   NAG d1175       8.180  -7.379  17.562  0.00  0.00     0.078 H 
ATOM     68  H   NAG d1175      11.605  -9.440  18.787  0.00  0.00     0.084 H 
ATOM     69  H   NAG d1175      12.257 -10.999  18.856  0.00  0.00     0.040 H 
ATOM     70  H   NAG d1175      13.322 -11.980  19.834  0.00  0.00     0.040 H 
ATOM     71  H   NAG d1175      13.664 -11.746  18.137  0.00  0.00     0.040 H 
ATOM     72  H   NAG d1175      12.941  -7.256  17.153  0.00  0.00     0.091 H 
ATOM     73  H   NAG d1175      10.354  -8.661  16.822  0.00  0.00     0.091 H 
ATOM     74  H   NAG d1175      12.120  -6.498  19.373  0.00  0.00     0.132 H 
ATOM     75  H   NAG d1175      10.753  -5.825  17.640  0.00  0.00     0.090 H 
ATOM     76  C2  NAG d1181       5.616 -17.014  -5.006  0.00  0.00     0.087 C 
ATOM     77  C8  NAG d1181       5.917 -19.693  -3.832  0.00  0.00    -0.003 C 
ATOM     78  O5  NAG d1181       5.037 -14.663  -4.625  0.00  0.00    -0.349 OA
ATOM     79  O4  NAG d1181       2.446 -16.221  -6.722  0.00  0.00    -0.390 OA
ATOM     80  C3  NAG d1181       4.631 -17.055  -6.163  0.00  0.00     0.086 C 
ATOM     81  C1  NAG d1181       6.107 -15.590  -4.739  0.00  0.00     0.154 C 
ATOM     82  N2  NAG d1181       6.749 -17.889  -5.255  0.00  0.00    -0.349 N 
ATOM     83  C4  NAG d1181       3.492 -16.118  -5.781  0.00  0.00     0.089 C 
ATOM     84  O6  NAG d1181       2.809 -13.272  -4.192  0.00  0.00    -0.398 OA
ATOM     85  O3  NAG d1181       4.180 -18.374  -6.425  0.00  0.00    -0.391 OA
ATOM     86  C5  NAG d1181       4.092 -14.703  -5.692  0.00  0.00     0.089 C 
ATOM     87  O7  NAG d1181       8.205 -19.303  -4.276  0.00  0.00    -0.274 OA
ATOM     88  C7  NAG d1181       7.048 -18.938  -4.474  0.00  0.00     0.214 C 
ATOM     89  C6  NAG d1181       3.056 -13.579  -5.549  0.00  0.00     0.043 C 
ATOM     90  H   NAG d1181       5.096 -17.359  -4.137  0.00  0.00     0.084 H 
ATOM     91  H   NAG d1181       4.986 -19.243  -4.108  0.00  0.00     0.040 H 
ATOM     92  H   NAG d1181       6.026 -19.662  -2.768  0.00  0.00     0.040 H 
ATOM     93  H   NAG d1181       5.934 -20.709  -4.163  0.00  0.00     0.040 H 
ATOM     94  H   NAG d1181       2.110 -17.131  -6.733  0.00  0.00     0.210 HD
ATOM     95  H   NAG d1181       5.091 -16.738  -7.075  0.00  0.00     0.090 H 
ATOM     96  H   NAG d1181       6.701 -15.212  -5.544  0.00  0.00     0.132 H 
ATOM     97  H   NAG d1181       7.324 -17.703  -6.033  0.00  0.00     0.163 HD
ATOM     98  H   NAG d1181       3.057 -16.370  -4.836  0.00  0.00     0.091 H 
ATOM     99  H   NAG d1181       2.152 -12.561  -4.136  0.00  0.00     0.209 HD
ATOM    100  H   NAG d1181       3.747 -18.730  -5.634  0.00  0.00     0.210 HD
ATOM    101  H   NAG d1181       4.573 -14.513  -6.628  0.00  0.00     0.090 H 
ATOM    102  H   NAG d1181       3.423 -12.704  -6.042  0.00  0.00     0.078 H 
ATOM    103  H   NAG d1181       2.139 -13.909  -5.991  0.00  0.00     0.078 H 
ATOM    104  C4  NAG d1179      12.421 -11.654  -1.783  0.00  0.00     0.089 C 
ATOM    105  N2  NAG d1179      10.899 -12.279   1.661  0.00  0.00    -0.349 N 
ATOM    106  C6  NAG d1179      14.836 -10.975  -2.127  0.00  0.00     0.043 C 
ATOM    107  O4  NAG d1179      12.365 -12.395  -2.998  0.00  0.00    -0.390 OA
ATOM    108  O6  NAG d1179      14.580  -9.585  -2.132  0.00  0.00    -0.398 OA
ATOM    109  C1  NAG d1179      13.160 -11.691   1.013  0.00  0.00     0.154 C 
ATOM    110  C5  NAG d1179      13.841 -11.684  -1.224  0.00  0.00     0.089 C 
ATOM    111  O5  NAG d1179      13.884 -11.019   0.026  0.00  0.00    -0.349 OA
ATOM    112  C2  NAG d1179      11.688 -11.649   0.617  0.00  0.00     0.087 C 
ATOM    113  C8  NAG d1179       9.174 -12.409   3.308  0.00  0.00    -0.003 C 
ATOM    114  C7  NAG d1179       9.785 -11.723   2.133  0.00  0.00     0.214 C 
ATOM    115  C3  NAG d1179      11.458 -12.264  -0.773  0.00  0.00     0.093 C 
ATOM    116  O3  NAG d1179      10.129 -12.009  -1.202  0.00  0.00    -0.348 OA
ATOM    117  O7  NAG d1179       9.262 -10.724   1.649  0.00  0.00    -0.274 OA
ATOM    118  H   NAG d1179      12.141 -10.638  -1.974  0.00  0.00     0.091 H 
ATOM    119  H   NAG d1179      11.197 -13.142   2.030  0.00  0.00     0.163 HD
ATOM    120  H   NAG d1179      14.744 -11.355  -3.122  0.00  0.00     0.078 H 
ATOM    121  H   NAG d1179      15.826 -11.149  -1.762  0.00  0.00     0.078 H 
ATOM    122  H   NAG d1179      12.618 -13.316  -2.827  0.00  0.00     0.210 HD
ATOM    123  H   NAG d1179      13.682  -9.423  -2.462  0.00  0.00     0.209 HD
ATOM    124  H   NAG d1179      13.562 -12.677   1.111  0.00  0.00     0.132 H 
ATOM    125  H   NAG d1179      14.105 -12.717  -1.138  0.00  0.00     0.090 H 
ATOM    126  H   NAG d1179      11.366 -10.632   0.530  0.00  0.00     0.084 H 
ATOM    127  H   NAG d1179       9.773 -13.254   3.580  0.00  0.00     0.040 H 
ATOM    128  H   NAG d1179       8.188 -12.739   3.056  0.00  0.00     0.040 H 
ATOM    129  H   NAG d1179       9.124 -11.729   4.132  0.00  0.00     0.040 H 
ATOM    130  H   NAG d1179      11.624 -13.319  -0.706  0.00  0.00     0.091 H 
ATOM    131  O5  BDP d1180       9.769 -13.751  -2.670  0.00  0.00    -0.340 OA
ATOM    132  O6A BDP d1180       9.986 -16.701  -4.240  0.00  0.00    -0.646 OA
ATOM    133  O2  BDP d1180       7.527 -12.588  -0.066  0.00  0.00    -0.388 OA
ATOM    134  O3  BDP d1180       5.727 -13.373  -2.257  0.00  0.00    -0.390 OA
ATOM    135  C5  BDP d1180       9.039 -14.904  -3.025  0.00  0.00     0.152 C 
ATOM    136  C2  BDP d1180       7.901 -12.837  -1.404  0.00  0.00     0.110 C 
ATOM    137  C3  BDP d1180       6.992 -13.933  -1.953  0.00  0.00     0.092 C 
ATOM    138  C6  BDP d1180       9.667 -15.494  -4.279  0.00  0.00     0.206 C 
ATOM    139  C1  BDP d1180       9.383 -13.213  -1.429  0.00  0.00     0.160 C 
ATOM    140  C4  BDP d1180       7.576 -14.538  -3.219  0.00  0.00     0.103 C 
ATOM    141  O6B BDP d1180       9.844 -14.729  -5.262  0.00  0.00    -0.646 OA
ATOM    142  O4  BDP d1180       6.850 -15.700  -3.513  0.00  0.00    -0.348 OA
ATOM    143  H   BDP d1180       8.093 -11.893   0.305  0.00  0.00     0.210 HD
ATOM    144  H   BDP d1180       5.345 -12.983  -1.454  0.00  0.00     0.210 HD
ATOM    145  H   BDP d1180       9.074 -15.644  -2.253  0.00  0.00     0.104 H 
ATOM    146  H   BDP d1180       7.783 -11.976  -2.029  0.00  0.00     0.094 H 
ATOM    147  H   BDP d1180       6.899 -14.702  -1.214  0.00  0.00     0.091 H 
ATOM    148  H   BDP d1180       9.567 -13.956  -0.681  0.00  0.00     0.133 H 
ATOM    149  H   BDP d1180       7.512 -13.825  -4.015  0.00  0.00     0.092 H 
ATOM    150  C3  BDP d1176      15.331 -10.095  13.887  0.00  0.00     0.092 C 
ATOM    151  O4  BDP d1176      14.950  -9.784  11.467  0.00  0.00    -0.348 OA
ATOM    152  O3  BDP d1176      16.136 -11.262  13.772  0.00  0.00    -0.390 OA
ATOM    153  O5  BDP d1176      12.763  -8.916  14.328  0.00  0.00    -0.340 OA
ATOM    154  O2  BDP d1176      15.596 -10.031  16.279  0.00  0.00    -0.388 OA
ATOM    155  C1  BDP d1176      13.633  -8.967  15.438  0.00  0.00     0.160 C 
ATOM    156  O6B BDP d1176      12.162  -7.733  11.334  0.00  0.00    -0.646 OA
ATOM    157  C5  BDP d1176      13.397  -8.801  13.050  0.00  0.00     0.152 C 
ATOM    158  O6A BDP d1176      11.416  -9.699  12.066  0.00  0.00    -0.646 OA
ATOM    159  C6  BDP d1176      12.245  -8.751  12.072  0.00  0.00     0.206 C 
ATOM    160  C4  BDP d1176      14.327  -9.974  12.728  0.00  0.00     0.103 C 
ATOM    161  C2  BDP d1176      14.626 -10.116  15.249  0.00  0.00     0.110 C 
ATOM    162  H   BDP d1176      15.958  -9.229  13.825  0.00  0.00     0.091 H 
ATOM    163  H   BDP d1176      15.572 -12.050  13.827  0.00  0.00     0.210 HD
ATOM    164  H   BDP d1176      16.238 -10.750  16.178  0.00  0.00     0.210 HD
ATOM    165  H   BDP d1176      14.144  -8.030  15.519  0.00  0.00     0.133 H 
ATOM    166  H   BDP d1176      14.029  -7.939  13.012  0.00  0.00     0.104 H 
ATOM    167  H   BDP d1176      13.785 -10.893  12.644  0.00  0.00     0.092 H 
ATOM    168  H   BDP d1176      14.076 -11.032  15.291  0.00  0.00     0.094 H 
ENDROOT
TORSDOF 43
ENDMDL
MODEL 44
REMARK VINA RESULT:      -5.9      6.019      9.599
REMARK  0 active torsions:
REMARK  status: ('A' for Active; 'I' for Inactive)
REMARK       I    between atoms: C3_1  and  O3_90 
REMARK       I    between atoms: O1_4  and  C1_76 
REMARK       I    between atoms: C2_5  and  N2_21 
REMARK       I    between atoms: C8_6  and  C7_66 
REMARK       I    between atoms: C4_7  and  O4_24 
REMARK       I    between atoms: N2_9  and  C2_60 
REMARK       I    between atoms: N2_9  and  C7_69 
REMARK       I    between atoms: O4_12  and  C4_26 
REMARK       I    between atoms: O3_13  and  C3_65 
REMARK       I    between atoms: O3_13  and  C1_61 
REMARK       I    between atoms: C3_14  and  O3_35 
REMARK       I    between atoms: C6_15  and  C5_53 
REMARK       I    between atoms: C6_15  and  O6_46 
REMARK       I    between atoms: O6_16  and  C6_54 
REMARK       I    between atoms: C4_17  and  O4_49 
REMARK       I    between atoms: O4_18  and  C4_28 
REMARK       I    between atoms: O4_18  and  C1_47 
REMARK       I    between atoms: C3_19  and  O3_43 
REMARK       I    between atoms: C1_20  and  O4_91 
REMARK       I    between atoms: N2_21  and  C7_66 
REMARK       I    between atoms: O3_22  and  C3_82 
REMARK       I    between atoms: C7_23  and  C8_62 
REMARK       I    between atoms: C7_23  and  N2_51 
REMARK       I    between atoms: C2_25  and  N2_41 
REMARK       I    between atoms: C1_27  and  O3_90 
REMARK       I    between atoms: O6_29  and  C6_74 
REMARK       I    between atoms: O2_30  and  C2_37 
REMARK       I    between atoms: C2_31  and  O2_42 
REMARK       I    between atoms: O3_32  and  C3_45 
REMARK       I    between atoms: O4_33  and  C4_73 
REMARK       I    between atoms: O4_34  and  C4_84 
REMARK       I    between atoms: O4_34  and  C1_85 
REMARK       I    between atoms: C5_36  and  C6_48 
REMARK       I    between atoms: C6_38  and  C5_40 
REMARK       I    between atoms: C6_38  and  O6_89 
REMARK       I    between atoms: N2_41  and  C7_50 
REMARK       I    between atoms: C5_44  and  C6_74 
REMARK       I    between atoms: C7_50  and  C8_75 
REMARK       I    between atoms: N2_51  and  C2_58 
REMARK       I    between atoms: C1_52  and  O3_87 
REMARK       I    between atoms: C6_54  and  C5_86 
REMARK       I    between atoms: O2_59  and  C2_93 
REMARK       I    between atoms: C8_64  and  C7_69 
REMARK       I    between atoms: C6_70  and  C5_80 
REMARK       I    between atoms: C4_72  and  O4_91 
REMARK       I    between atoms: C5_77  and  C6_79 
REMARK       I    between atoms: C3_83  and  O3_87 
ROOT
ATOM      1  C3  NAG d1177      13.546 -16.135   3.461  0.00  0.00     0.093 C 
ATOM      2  O7  NAG d1177      15.659 -12.917   2.996  0.00  0.00    -0.274 OA
ATOM      3  C4  NAG d1177      13.860 -17.507   4.085  0.00  0.00     0.089 C 
ATOM      4  C2  NAG d1177      14.144 -15.021   4.305  0.00  0.00     0.087 C 
ATOM      5  C6  NAG d1177      13.941 -18.840   6.259  0.00  0.00     0.043 C 
ATOM      6  C5  NAG d1177      13.523 -17.532   5.568  0.00  0.00     0.089 C 
ATOM      7  N2  NAG d1177      13.669 -13.691   3.881  0.00  0.00    -0.349 N 
ATOM      8  O4  NAG d1177      13.146 -18.531   3.421  0.00  0.00    -0.390 OA
ATOM      9  C7  NAG d1177      14.423 -12.775   3.268  0.00  0.00     0.214 C 
ATOM     10  O5  NAG d1177      14.172 -16.455   6.232  0.00  0.00    -0.349 OA
ATOM     11  C8  NAG d1177      13.661 -11.507   2.983  0.00  0.00    -0.003 C 
ATOM     12  C1  NAG d1177      13.763 -15.187   5.775  0.00  0.00     0.154 C 
ATOM     13  O6  NAG d1177      15.347 -19.012   6.214  0.00  0.00    -0.398 OA
ATOM     14  O3  NAG d1177      14.139 -16.050   2.194  0.00  0.00    -0.348 OA
ATOM     15  H   NAG d1177      12.483 -16.034   3.403  0.00  0.00     0.091 H 
ATOM     16  H   NAG d1177      14.911 -17.676   3.973  0.00  0.00     0.091 H 
ATOM     17  H   NAG d1177      15.204 -15.087   4.173  0.00  0.00     0.084 H 
ATOM     18  H   NAG d1177      13.472 -19.664   5.763  0.00  0.00     0.078 H 
ATOM     19  H   NAG d1177      13.636 -18.797   7.283  0.00  0.00     0.078 H 
ATOM     20  H   NAG d1177      12.459 -17.446   5.634  0.00  0.00     0.090 H 
ATOM     21  H   NAG d1177      12.728 -13.462   4.062  0.00  0.00     0.163 HD
ATOM     22  H   NAG d1177      12.193 -18.379   3.523  0.00  0.00     0.210 HD
ATOM     23  H   NAG d1177      14.305 -10.807   2.493  0.00  0.00     0.040 H 
ATOM     24  H   NAG d1177      13.311 -11.087   3.902  0.00  0.00     0.040 H 
ATOM     25  H   NAG d1177      12.826 -11.727   2.350  0.00  0.00     0.040 H 
ATOM     26  H   NAG d1177      12.701 -15.120   5.885  0.00  0.00     0.132 H 
ATOM     27  H   NAG d1177      15.638 -19.053   5.289  0.00  0.00     0.209 HD
ATOM     28  O6A BDP d1178      10.900 -18.797  -0.013  0.00  0.00    -0.646 OA
ATOM     29  O4  BDP d1178      10.967 -15.417  -2.183  0.00  0.00    -0.348 OA
ATOM     30  O3  BDP d1178      13.770 -14.974  -2.394  0.00  0.00    -0.390 OA
ATOM     31  C1  BDP d1178      13.198 -15.706   1.167  0.00  0.00     0.160 C 
ATOM     32  C4  BDP d1178      11.916 -16.041  -1.351  0.00  0.00     0.103 C 
ATOM     33  C2  BDP d1178      13.995 -15.455  -0.095  0.00  0.00     0.110 C 
ATOM     34  O2  BDP d1178      14.949 -14.447   0.118  0.00  0.00    -0.388 OA
ATOM     35  O6B BDP d1178       9.171 -17.484  -0.532  0.00  0.00    -0.646 OA
ATOM     36  O5  BDP d1178      12.277 -16.754   0.922  0.00  0.00    -0.340 OA
ATOM     37  C6  BDP d1178      10.377 -17.662  -0.204  0.00  0.00     0.206 C 
ATOM     38  C5  BDP d1178      11.280 -16.434  -0.027  0.00  0.00     0.152 C 
ATOM     39  C3  BDP d1178      13.049 -15.011  -1.176  0.00  0.00     0.092 C 
ATOM     40  H   BDP d1178      13.180 -14.689  -3.110  0.00  0.00     0.210 HD
ATOM     41  H   BDP d1178      12.638 -14.849   1.475  0.00  0.00     0.133 H 
ATOM     42  H   BDP d1178      12.296 -16.950  -1.769  0.00  0.00     0.092 H 
ATOM     43  H   BDP d1178      14.500 -16.354  -0.379  0.00  0.00     0.094 H 
ATOM     44  H   BDP d1178      14.501 -13.626   0.377  0.00  0.00     0.210 HD
ATOM     45  H   BDP d1178      10.700 -15.603   0.314  0.00  0.00     0.104 H 
ATOM     46  H   BDP d1178      12.639 -14.057  -0.916  0.00  0.00     0.091 H 
ATOM     47  O1  NAG d1175      13.581  -9.750  15.739  0.00  0.00    -0.369 OA
ATOM     48  O3  NAG d1175      13.522 -12.136  11.710  0.00  0.00    -0.348 OA
ATOM     49  O6  NAG d1175      11.312  -6.500  12.673  0.00  0.00    -0.398 OA
ATOM     50  C7  NAG d1175      14.614 -13.133  14.416  0.00  0.00     0.214 C 
ATOM     51  O4  NAG d1175      12.473  -9.670  10.374  0.00  0.00    -0.390 OA
ATOM     52  N2  NAG d1175      14.605 -11.798  14.312  0.00  0.00    -0.349 N 
ATOM     53  C6  NAG d1175      11.154  -7.817  12.220  0.00  0.00     0.043 C 
ATOM     54  C2  NAG d1175      13.521 -10.987  13.736  0.00  0.00     0.087 C 
ATOM     55  C8  NAG d1175      13.316 -13.870  14.354  0.00  0.00    -0.003 C 
ATOM     56  O7  NAG d1175      15.670 -13.768  14.564  0.00  0.00    -0.274 OA
ATOM     57  C3  NAG d1175      13.613 -10.823  12.227  0.00  0.00     0.093 C 
ATOM     58  C4  NAG d1175      12.454  -9.922  11.780  0.00  0.00     0.089 C 
ATOM     59  C1  NAG d1175      13.571  -9.594  14.348  0.00  0.00     0.151 C 
ATOM     60  C5  NAG d1175      12.403  -8.610  12.572  0.00  0.00     0.089 C 
ATOM     61  O5  NAG d1175      12.429  -8.840  13.968  0.00  0.00    -0.349 OA
ATOM     62  H   NAG d1175      14.361 -10.265  16.001  0.00  0.00     0.212 HD
ATOM     63  H   NAG d1175      10.521  -5.985  12.454  0.00  0.00     0.209 HD
ATOM     64  H   NAG d1175      12.505 -10.513   9.895  0.00  0.00     0.210 HD
ATOM     65  H   NAG d1175      15.394 -11.316  14.651  0.00  0.00     0.163 HD
ATOM     66  H   NAG d1175      11.013  -7.818  11.160  0.00  0.00     0.078 H 
ATOM     67  H   NAG d1175      10.298  -8.262  12.685  0.00  0.00     0.078 H 
ATOM     68  H   NAG d1175      12.610 -11.505  13.954  0.00  0.00     0.084 H 
ATOM     69  H   NAG d1175      12.515 -13.172  14.225  0.00  0.00     0.040 H 
ATOM     70  H   NAG d1175      13.171 -14.415  15.264  0.00  0.00     0.040 H 
ATOM     71  H   NAG d1175      13.332 -14.551  13.529  0.00  0.00     0.040 H 
ATOM     72  H   NAG d1175      14.516 -10.363  11.884  0.00  0.00     0.091 H 
ATOM     73  H   NAG d1175      11.557 -10.465  11.994  0.00  0.00     0.091 H 
ATOM     74  H   NAG d1175      14.442  -9.075  14.008  0.00  0.00     0.132 H 
ATOM     75  H   NAG d1175      13.273  -8.050  12.302  0.00  0.00     0.090 H 
ATOM     76  C2  NAG d1181       0.531 -18.101  -7.724  0.00  0.00     0.087 C 
ATOM     77  C8  NAG d1181      -0.206 -20.476  -6.155  0.00  0.00    -0.003 C 
ATOM     78  O5  NAG d1181       1.103 -15.719  -7.688  0.00  0.00    -0.349 OA
ATOM     79  O4  NAG d1181      -2.181 -16.149  -9.289  0.00  0.00    -0.390 OA
ATOM     80  C3  NAG d1181      -0.528 -17.818  -8.776  0.00  0.00     0.086 C 
ATOM     81  C1  NAG d1181       1.630 -17.037  -7.733  0.00  0.00     0.154 C 
ATOM     82  N2  NAG d1181       1.117 -19.417  -7.916  0.00  0.00    -0.349 N 
ATOM     83  C4  NAG d1181      -1.072 -16.429  -8.463  0.00  0.00     0.089 C 
ATOM     84  O6  NAG d1181      -0.201 -13.429  -7.313  0.00  0.00    -0.398 OA
ATOM     85  O3  NAG d1181      -1.544 -18.807  -8.781  0.00  0.00    -0.391 OA
ATOM     86  C5  NAG d1181       0.093 -15.442  -8.655  0.00  0.00     0.089 C 
ATOM     87  O7  NAG d1181       1.930 -21.221  -6.837  0.00  0.00    -0.274 OA
ATOM     88  C7  NAG d1181       1.035 -20.394  -6.999  0.00  0.00     0.214 C 
ATOM     89  C6  NAG d1181      -0.312 -13.962  -8.616  0.00  0.00     0.043 C 
ATOM     90  H   NAG d1181       0.045 -18.074  -6.771  0.00  0.00     0.084 H 
ATOM     91  H   NAG d1181      -0.874 -19.686  -6.426  0.00  0.00     0.040 H 
ATOM     92  H   NAG d1181       0.058 -20.382  -5.122  0.00  0.00     0.040 H 
ATOM     93  H   NAG d1181      -0.684 -21.420  -6.315  0.00  0.00     0.040 H 
ATOM     94  H   NAG d1181      -2.880 -16.802  -9.124  0.00  0.00     0.210 HD
ATOM     95  H   NAG d1181      -0.113 -17.848  -9.762  0.00  0.00     0.090 H 
ATOM     96  H   NAG d1181       2.206 -17.062  -8.634  0.00  0.00     0.132 H 
ATOM     97  H   NAG d1181       1.595 -19.601  -8.757  0.00  0.00     0.163 HD
ATOM     98  H   NAG d1181      -1.432 -16.351  -7.458  0.00  0.00     0.091 H 
ATOM     99  H   NAG d1181      -0.463 -12.495  -7.322  0.00  0.00     0.209 HD
ATOM    100  H   NAG d1181      -1.970 -18.838  -7.911  0.00  0.00     0.210 HD
ATOM    101  H   NAG d1181       0.467 -15.597  -9.645  0.00  0.00     0.090 H 
ATOM    102  H   NAG d1181       0.325 -13.410  -9.274  0.00  0.00     0.078 H 
ATOM    103  H   NAG d1181      -1.334 -13.886  -8.924  0.00  0.00     0.078 H 
ATOM    104  C4  NAG d1179       9.384 -16.103  -5.974  0.00  0.00     0.089 C 
ATOM    105  N2  NAG d1179       8.259 -15.584  -2.364  0.00  0.00    -0.349 N 
ATOM    106  C6  NAG d1179      11.774 -16.639  -6.616  0.00  0.00     0.043 C 
ATOM    107  O4  NAG d1179       8.834 -16.867  -7.043  0.00  0.00    -0.390 OA
ATOM    108  O6  NAG d1179      12.155 -15.295  -6.827  0.00  0.00    -0.398 OA
ATOM    109  C1  NAG d1179      10.429 -16.163  -3.278  0.00  0.00     0.154 C 
ATOM    110  C5  NAG d1179      10.712 -16.714  -5.532  0.00  0.00     0.089 C 
ATOM    111  O5  NAG d1179      11.223 -16.008  -4.416  0.00  0.00    -0.349 OA
ATOM    112  C2  NAG d1179       9.084 -15.501  -3.556  0.00  0.00     0.087 C 
ATOM    113  C8  NAG d1179       6.910 -14.733  -0.586  0.00  0.00    -0.003 C 
ATOM    114  C7  NAG d1179       7.582 -14.534  -1.902  0.00  0.00     0.214 C 
ATOM    115  C3  NAG d1179       8.409 -16.094  -4.804  0.00  0.00     0.093 C 
ATOM    116  O3  NAG d1179       7.279 -15.311  -5.162  0.00  0.00    -0.348 OA
ATOM    117  O7  NAG d1179       7.487 -13.467  -2.500  0.00  0.00    -0.274 OA
ATOM    118  H   NAG d1179       9.554 -15.099  -6.306  0.00  0.00     0.091 H 
ATOM    119  H   NAG d1179       8.198 -16.441  -1.884  0.00  0.00     0.163 HD
ATOM    120  H   NAG d1179      11.382 -17.044  -7.525  0.00  0.00     0.078 H 
ATOM    121  H   NAG d1179      12.630 -17.203  -6.307  0.00  0.00     0.078 H 
ATOM    122  H   NAG d1179       8.679 -17.777  -6.745  0.00  0.00     0.210 HD
ATOM    123  H   NAG d1179      11.382 -14.780  -7.107  0.00  0.00     0.209 HD
ATOM    124  H   NAG d1179      10.367 -17.207  -3.052  0.00  0.00     0.132 H 
ATOM    125  H   NAG d1179      10.505 -17.738  -5.300  0.00  0.00     0.090 H 
ATOM    126  H   NAG d1179       9.232 -14.465  -3.783  0.00  0.00     0.084 H 
ATOM    127  H   NAG d1179       7.111 -15.721  -0.228  0.00  0.00     0.040 H 
ATOM    128  H   NAG d1179       5.854 -14.603  -0.702  0.00  0.00     0.040 H 
ATOM    129  H   NAG d1179       7.283 -14.017   0.117  0.00  0.00     0.040 H 
ATOM    130  H   NAG d1179       8.104 -17.094  -4.579  0.00  0.00     0.091 H 
ATOM    131  O5  BDP d1180       5.984 -16.848  -6.291  0.00  0.00    -0.340 OA
ATOM    132  O6A BDP d1180       4.656 -19.728  -7.369  0.00  0.00    -0.646 OA
ATOM    133  O2  BDP d1180       4.882 -14.514  -3.743  0.00  0.00    -0.388 OA
ATOM    134  O3  BDP d1180       2.624 -14.631  -5.625  0.00  0.00    -0.390 OA
ATOM    135  C5  BDP d1180       4.780 -17.575  -6.394  0.00  0.00     0.152 C 
ATOM    136  C2  BDP d1180       4.911 -15.052  -5.048  0.00  0.00     0.110 C 
ATOM    137  C3  BDP d1180       3.545 -15.668  -5.336  0.00  0.00     0.092 C 
ATOM    138  C6  BDP d1180       4.896 -18.520  -7.580  0.00  0.00     0.206 C 
ATOM    139  C1  BDP d1180       6.057 -16.061  -5.128  0.00  0.00     0.160 C 
ATOM    140  C4  BDP d1180       3.614 -16.607  -6.528  0.00  0.00     0.103 C 
ATOM    141  O6B BDP d1180       5.247 -18.033  -8.686  0.00  0.00    -0.646 OA
ATOM    142  O4  BDP d1180       2.418 -17.337  -6.569  0.00  0.00    -0.348 OA
ATOM    143  H   BDP d1180       5.742 -14.116  -3.538  0.00  0.00     0.210 HD
ATOM    144  H   BDP d1180       2.573 -14.024  -4.870  0.00  0.00     0.210 HD
ATOM    145  H   BDP d1180       4.598 -18.160  -5.516  0.00  0.00     0.104 H 
ATOM    146  H   BDP d1180       5.093 -14.306  -5.794  0.00  0.00     0.094 H 
ATOM    147  H   BDP d1180       3.232 -16.223  -4.476  0.00  0.00     0.091 H 
ATOM    148  H   BDP d1180       6.003 -16.718  -4.286  0.00  0.00     0.133 H 
ATOM    149  H   BDP d1180       3.754 -16.036  -7.422  0.00  0.00     0.092 H 
ATOM    150  C3  BDP d1176      14.918 -14.319   8.946  0.00  0.00     0.092 C 
ATOM    151  O4  BDP d1176      14.366 -14.138   6.547  0.00  0.00    -0.348 OA
ATOM    152  O3  BDP d1176      15.104 -15.730   8.961  0.00  0.00    -0.390 OA
ATOM    153  O5  BDP d1176      13.220 -12.061   9.392  0.00  0.00    -0.340 OA
ATOM    154  O2  BDP d1176      15.528 -14.119  11.267  0.00  0.00    -0.388 OA
ATOM    155  C1  BDP d1176      14.132 -12.379  10.423  0.00  0.00     0.160 C 
ATOM    156  O6B BDP d1176      12.773 -11.073   6.302  0.00  0.00    -0.646 OA
ATOM    157  C5  BDP d1176      13.648 -12.389   8.066  0.00  0.00     0.152 C 
ATOM    158  O6A BDP d1176      11.355 -12.390   7.403  0.00  0.00    -0.646 OA
ATOM    159  C6  BDP d1176      12.508 -11.929   7.188  0.00  0.00     0.206 C 
ATOM    160  C4  BDP d1176      13.913 -13.883   7.867  0.00  0.00     0.103 C 
ATOM    161  C2  BDP d1176      14.481 -13.867  10.345  0.00  0.00     0.110 C 
ATOM    162  H   BDP d1176      15.845 -13.846   8.694  0.00  0.00     0.091 H 
ATOM    163  H   BDP d1176      14.267 -16.163   9.189  0.00  0.00     0.210 HD
ATOM    164  H   BDP d1176      15.768 -15.058  11.235  0.00  0.00     0.210 HD
ATOM    165  H   BDP d1176      15.007 -11.774  10.308  0.00  0.00     0.133 H 
ATOM    166  H   BDP d1176      14.582 -11.919   7.837  0.00  0.00     0.104 H 
ATOM    167  H   BDP d1176      13.017 -14.458   7.979  0.00  0.00     0.092 H 
ATOM    168  H   BDP d1176      13.597 -14.422  10.581  0.00  0.00     0.094 H 
ENDROOT
TORSDOF 43
ENDMDL
MODEL 45
REMARK VINA RESULT:      -5.9      5.446      6.709
REMARK  0 active torsions:
REMARK  status: ('A' for Active; 'I' for Inactive)
REMARK       I    between atoms: C3_1  and  O3_90 
REMARK       I    between atoms: O1_4  and  C1_76 
REMARK       I    between atoms: C2_5  and  N2_21 
REMARK       I    between atoms: C8_6  and  C7_66 
REMARK       I    between atoms: C4_7  and  O4_24 
REMARK       I    between atoms: N2_9  and  C2_60 
REMARK       I    between atoms: N2_9  and  C7_69 
REMARK       I    between atoms: O4_12  and  C4_26 
REMARK       I    between atoms: O3_13  and  C3_65 
REMARK       I    between atoms: O3_13  and  C1_61 
REMARK       I    between atoms: C3_14  and  O3_35 
REMARK       I    between atoms: C6_15  and  C5_53 
REMARK       I    between atoms: C6_15  and  O6_46 
REMARK       I    between atoms: O6_16  and  C6_54 
REMARK       I    between atoms: C4_17  and  O4_49 
REMARK       I    between atoms: O4_18  and  C4_28 
REMARK       I    between atoms: O4_18  and  C1_47 
REMARK       I    between atoms: C3_19  and  O3_43 
REMARK       I    between atoms: C1_20  and  O4_91 
REMARK       I    between atoms: N2_21  and  C7_66 
REMARK       I    between atoms: O3_22  and  C3_82 
REMARK       I    between atoms: C7_23  and  C8_62 
REMARK       I    between atoms: C7_23  and  N2_51 
REMARK       I    between atoms: C2_25  and  N2_41 
REMARK       I    between atoms: C1_27  and  O3_90 
REMARK       I    between atoms: O6_29  and  C6_74 
REMARK       I    between atoms: O2_30  and  C2_37 
REMARK       I    between atoms: C2_31  and  O2_42 
REMARK       I    between atoms: O3_32  and  C3_45 
REMARK       I    between atoms: O4_33  and  C4_73 
REMARK       I    between atoms: O4_34  and  C4_84 
REMARK       I    between atoms: O4_34  and  C1_85 
REMARK       I    between atoms: C5_36  and  C6_48 
REMARK       I    between atoms: C6_38  and  C5_40 
REMARK       I    between atoms: C6_38  and  O6_89 
REMARK       I    between atoms: N2_41  and  C7_50 
REMARK       I    between atoms: C5_44  and  C6_74 
REMARK       I    between atoms: C7_50  and  C8_75 
REMARK       I    between atoms: N2_51  and  C2_58 
REMARK       I    between atoms: C1_52  and  O3_87 
REMARK       I    between atoms: C6_54  and  C5_86 
REMARK       I    between atoms: O2_59  and  C2_93 
REMARK       I    between atoms: C8_64  and  C7_69 
REMARK       I    between atoms: C6_70  and  C5_80 
REMARK       I    between atoms: C4_72  and  O4_91 
REMARK       I    between atoms: C5_77  and  C6_79 
REMARK       I    between atoms: C3_83  and  O3_87 
ROOT
ATOM      1  C3  NAG d1177      14.174 -10.006   8.631  0.00  0.00     0.093 C 
ATOM      2  O7  NAG d1177      10.651 -10.188  10.242  0.00  0.00    -0.274 OA
ATOM      3  C4  NAG d1177      15.434  -9.191   8.971  0.00  0.00     0.089 C 
ATOM      4  C2  NAG d1177      13.516 -10.518   9.902  0.00  0.00     0.087 C 
ATOM      5  C6  NAG d1177      17.543  -9.110  10.405  0.00  0.00     0.043 C 
ATOM      6  C5  NAG d1177      16.336  -9.941   9.938  0.00  0.00     0.089 C 
ATOM      7  N2  NAG d1177      12.451 -11.497   9.618  0.00  0.00    -0.349 N 
ATOM      8  O4  NAG d1177      16.157  -8.879   7.795  0.00  0.00    -0.390 OA
ATOM      9  C7  NAG d1177      11.146 -11.269   9.786  0.00  0.00     0.214 C 
ATOM     10  O5  NAG d1177      15.597 -10.331  11.088  0.00  0.00    -0.349 OA
ATOM     11  C8  NAG d1177      10.307 -12.469   9.432  0.00  0.00    -0.003 C 
ATOM     12  C1  NAG d1177      14.538 -11.213  10.800  0.00  0.00     0.154 C 
ATOM     13  O6  NAG d1177      17.123  -7.967  11.129  0.00  0.00    -0.398 OA
ATOM     14  O3  NAG d1177      13.239  -9.179   7.993  0.00  0.00    -0.348 OA
ATOM     15  H   NAG d1177      14.467 -10.821   8.004  0.00  0.00     0.091 H 
ATOM     16  H   NAG d1177      15.112  -8.284   9.440  0.00  0.00     0.091 H 
ATOM     17  H   NAG d1177      13.101  -9.659  10.386  0.00  0.00     0.084 H 
ATOM     18  H   NAG d1177      18.104  -8.796   9.549  0.00  0.00     0.078 H 
ATOM     19  H   NAG d1177      18.147  -9.716  11.046  0.00  0.00     0.078 H 
ATOM     20  H   NAG d1177      16.705 -10.791   9.404  0.00  0.00     0.090 H 
ATOM     21  H   NAG d1177      12.721 -12.381   9.279  0.00  0.00     0.163 HD
ATOM     22  H   NAG d1177      16.450  -9.700   7.369  0.00  0.00     0.210 HD
ATOM     23  H   NAG d1177       9.274 -12.239   9.583  0.00  0.00     0.040 H 
ATOM     24  H   NAG d1177      10.583 -13.293  10.056  0.00  0.00     0.040 H 
ATOM     25  H   NAG d1177      10.470 -12.729   8.407  0.00  0.00     0.040 H 
ATOM     26  H   NAG d1177      14.943 -12.067  10.298  0.00  0.00     0.132 H 
ATOM     27  H   NAG d1177      16.573  -7.406  10.558  0.00  0.00     0.209 HD
ATOM     28  O6A BDP d1178      15.460  -9.162   3.753  0.00  0.00    -0.646 OA
ATOM     29  O4  BDP d1178      11.714 -10.336   2.898  0.00  0.00    -0.348 OA
ATOM     30  O3  BDP d1178      10.207  -8.475   4.435  0.00  0.00    -0.390 OA
ATOM     31  C1  BDP d1178      12.804  -9.709   6.733  0.00  0.00     0.160 C 
ATOM     32  C4  BDP d1178      12.263  -9.568   3.942  0.00  0.00     0.103 C 
ATOM     33  C2  BDP d1178      11.666  -8.833   6.254  0.00  0.00     0.110 C 
ATOM     34  O2  BDP d1178      10.636  -8.801   7.208  0.00  0.00    -0.388 OA
ATOM     35  O6B BDP d1178      14.831 -11.013   2.676  0.00  0.00    -0.646 OA
ATOM     36  O5  BDP d1178      13.836  -9.681   5.763  0.00  0.00    -0.340 OA
ATOM     37  C6  BDP d1178      14.682 -10.142   3.578  0.00  0.00     0.206 C 
ATOM     38  C5  BDP d1178      13.482 -10.265   4.526  0.00  0.00     0.152 C 
ATOM     39  C3  BDP d1178      11.129  -9.405   4.973  0.00  0.00     0.092 C 
ATOM     40  H   BDP d1178       9.844  -8.822   3.604  0.00  0.00     0.210 HD
ATOM     41  H   BDP d1178      12.509 -10.729   6.861  0.00  0.00     0.133 H 
ATOM     42  H   BDP d1178      12.610  -8.611   3.611  0.00  0.00     0.092 H 
ATOM     43  H   BDP d1178      12.026  -7.837   6.103  0.00  0.00     0.094 H 
ATOM     44  H   BDP d1178      10.302  -9.701   7.353  0.00  0.00     0.210 HD
ATOM     45  H   BDP d1178      13.231 -11.296   4.663  0.00  0.00     0.104 H 
ATOM     46  H   BDP d1178      10.678 -10.355   5.172  0.00  0.00     0.091 H 
ATOM     47  O1  NAG d1175      15.480 -18.022  19.835  0.00  0.00    -0.369 OA
ATOM     48  O3  NAG d1175      15.294 -15.256  16.061  0.00  0.00    -0.348 OA
ATOM     49  O6  NAG d1175      12.259 -20.513  16.914  0.00  0.00    -0.398 OA
ATOM     50  C7  NAG d1175      17.032 -14.821  18.571  0.00  0.00     0.214 C 
ATOM     51  O4  NAG d1175      13.101 -17.001  15.007  0.00  0.00    -0.390 OA
ATOM     52  N2  NAG d1175      15.950 -15.574  18.805  0.00  0.00    -0.349 N 
ATOM     53  C6  NAG d1175      13.107 -19.698  16.151  0.00  0.00     0.043 C 
ATOM     54  C2  NAG d1175      15.439 -16.640  17.929  0.00  0.00     0.087 C 
ATOM     55  C8  NAG d1175      18.061 -15.315  17.605  0.00  0.00    -0.003 C 
ATOM     56  O7  NAG d1175      17.201 -13.729  19.136  0.00  0.00    -0.274 OA
ATOM     57  C3  NAG d1175      14.508 -16.140  16.835  0.00  0.00     0.093 C 
ATOM     58  C4  NAG d1175      14.020 -17.359  16.040  0.00  0.00     0.089 C 
ATOM     59  C1  NAG d1175      14.655 -17.635  18.774  0.00  0.00     0.151 C 
ATOM     60  C5  NAG d1175      13.428 -18.443  16.949  0.00  0.00     0.089 C 
ATOM     61  O5  NAG d1175      14.308 -18.778  18.006  0.00  0.00    -0.349 OA
ATOM     62  H   NAG d1175      15.718 -17.242  20.361  0.00  0.00     0.212 HD
ATOM     63  H   NAG d1175      12.048 -21.317  16.415  0.00  0.00     0.209 HD
ATOM     64  H   NAG d1175      13.497 -16.315  14.445  0.00  0.00     0.210 HD
ATOM     65  H   NAG d1175      15.453 -15.399  19.636  0.00  0.00     0.163 HD
ATOM     66  H   NAG d1175      12.620 -19.429  15.237  0.00  0.00     0.078 H 
ATOM     67  H   NAG d1175      14.010 -20.225  15.923  0.00  0.00     0.078 H 
ATOM     68  H   NAG d1175      16.294 -17.078  17.458  0.00  0.00     0.084 H 
ATOM     69  H   NAG d1175      17.757 -16.264  17.216  0.00  0.00     0.040 H 
ATOM     70  H   NAG d1175      19.000 -15.419  18.107  0.00  0.00     0.040 H 
ATOM     71  H   NAG d1175      18.161 -14.615  16.802  0.00  0.00     0.040 H 
ATOM     72  H   NAG d1175      13.637 -15.631  17.190  0.00  0.00     0.091 H 
ATOM     73  H   NAG d1175      14.888 -17.771  15.567  0.00  0.00     0.091 H 
ATOM     74  H   NAG d1175      13.751 -17.184  19.127  0.00  0.00     0.132 H 
ATOM     75  H   NAG d1175      12.529 -18.042  17.367  0.00  0.00     0.090 H 
ATOM     76  C2  NAG d1181      14.900 -14.444  -8.047  0.00  0.00     0.087 C 
ATOM     77  C8  NAG d1181      17.815 -14.138  -7.804  0.00  0.00    -0.003 C 
ATOM     78  O5  NAG d1181      12.860 -15.437  -7.120  0.00  0.00    -0.349 OA
ATOM     79  O4  NAG d1181      13.616 -17.023 -10.353  0.00  0.00    -0.390 OA
ATOM     80  C3  NAG d1181      14.544 -15.016  -9.409  0.00  0.00     0.086 C 
ATOM     81  C1  NAG d1181      13.658 -14.262  -7.172  0.00  0.00     0.154 C 
ATOM     82  N2  NAG d1181      15.600 -13.177  -8.180  0.00  0.00    -0.349 N 
ATOM     83  C4  NAG d1181      13.835 -16.337  -9.139  0.00  0.00     0.089 C 
ATOM     84  O6  NAG d1181      11.772 -17.864  -7.017  0.00  0.00    -0.398 OA
ATOM     85  O3  NAG d1181      15.690 -15.176 -10.230  0.00  0.00    -0.391 OA
ATOM     86  C5  NAG d1181      12.534 -15.998  -8.389  0.00  0.00     0.089 C 
ATOM     87  O7  NAG d1181      17.238 -11.903  -7.302  0.00  0.00    -0.274 OA
ATOM     88  C7  NAG d1181      16.853 -12.985  -7.741  0.00  0.00     0.214 C 
ATOM     89  C6  NAG d1181      11.562 -17.176  -8.234  0.00  0.00     0.043 C 
ATOM     90  H   NAG d1181      15.548 -15.149  -7.569  0.00  0.00     0.084 H 
ATOM     91  H   NAG d1181      17.317 -14.995  -8.208  0.00  0.00     0.040 H 
ATOM     92  H   NAG d1181      18.168 -14.362  -6.819  0.00  0.00     0.040 H 
ATOM     93  H   NAG d1181      18.643 -13.878  -8.429  0.00  0.00     0.040 H 
ATOM     94  H   NAG d1181      14.467 -17.208 -10.778  0.00  0.00     0.210 HD
ATOM     95  H   NAG d1181      13.908 -14.350  -9.955  0.00  0.00     0.090 H 
ATOM     96  H   NAG d1181      13.001 -13.512  -7.559  0.00  0.00     0.132 H 
ATOM     97  H   NAG d1181      15.133 -12.426  -8.613  0.00  0.00     0.163 HD
ATOM     98  H   NAG d1181      14.422 -16.998  -8.536  0.00  0.00     0.091 H 
ATOM     99  H   NAG d1181      11.144 -18.600  -6.950  0.00  0.00     0.209 HD
ATOM    100  H   NAG d1181      16.317 -15.773  -9.795  0.00  0.00     0.210 HD
ATOM    101  H   NAG d1181      12.008 -15.288  -8.991  0.00  0.00     0.090 H 
ATOM    102  H   NAG d1181      10.559 -16.804  -8.255  0.00  0.00     0.078 H 
ATOM    103  H   NAG d1181      11.732 -17.860  -9.040  0.00  0.00     0.078 H 
ATOM    104  C4  NAG d1179      10.909  -9.763  -1.149  0.00  0.00     0.089 C 
ATOM    105  N2  NAG d1179      12.772 -12.152   1.173  0.00  0.00    -0.349 N 
ATOM    106  C6  NAG d1179      10.096  -7.478  -0.420  0.00  0.00     0.043 C 
ATOM    107  O4  NAG d1179      11.163  -9.342  -2.486  0.00  0.00    -0.390 OA
ATOM    108  O6  NAG d1179       8.805  -7.914  -0.046  0.00  0.00    -0.398 OA
ATOM    109  C1  NAG d1179      11.936  -9.908   1.551  0.00  0.00     0.154 C 
ATOM    110  C5  NAG d1179      11.106  -8.590  -0.192  0.00  0.00     0.089 C 
ATOM    111  O5  NAG d1179      10.937  -9.021   1.147  0.00  0.00    -0.349 OA
ATOM    112  C2  NAG d1179      11.789 -11.181   0.726  0.00  0.00     0.087 C 
ATOM    113  C8  NAG d1179      13.528 -14.259   2.007  0.00  0.00    -0.003 C 
ATOM    114  C7  NAG d1179      12.450 -13.424   1.403  0.00  0.00     0.214 C 
ATOM    115  C3  NAG d1179      11.866 -10.890  -0.782  0.00  0.00     0.093 C 
ATOM    116  O3  NAG d1179      11.504 -12.049  -1.519  0.00  0.00    -0.348 OA
ATOM    117  O7  NAG d1179      11.356 -13.911   1.135  0.00  0.00    -0.274 OA
ATOM    118  H   NAG d1179       9.900 -10.112  -1.071  0.00  0.00     0.091 H 
ATOM    119  H   NAG d1179      13.702 -11.862   1.310  0.00  0.00     0.163 HD
ATOM    120  H   NAG d1179      10.093  -7.209  -1.455  0.00  0.00     0.078 H 
ATOM    121  H   NAG d1179      10.367  -6.630   0.174  0.00  0.00     0.078 H 
ATOM    122  H   NAG d1179      12.077  -9.026  -2.558  0.00  0.00     0.210 HD
ATOM    123  H   NAG d1179       8.555  -8.683  -0.583  0.00  0.00     0.209 HD
ATOM    124  H   NAG d1179      12.882  -9.420   1.443  0.00  0.00     0.132 H 
ATOM    125  H   NAG d1179      12.094  -8.221  -0.373  0.00  0.00     0.090 H 
ATOM    126  H   NAG d1179      10.817 -11.602   0.881  0.00  0.00     0.084 H 
ATOM    127  H   NAG d1179      14.399 -13.658   2.165  0.00  0.00     0.040 H 
ATOM    128  H   NAG d1179      13.767 -15.066   1.345  0.00  0.00     0.040 H 
ATOM    129  H   NAG d1179      13.192 -14.652   2.943  0.00  0.00     0.040 H 
ATOM    130  H   NAG d1179      12.869 -10.605  -1.020  0.00  0.00     0.091 H 
ATOM    131  O5  BDP d1180      12.606 -11.697  -3.513  0.00  0.00    -0.340 OA
ATOM    132  O6A BDP d1180      14.784 -10.602  -5.810  0.00  0.00    -0.646 OA
ATOM    133  O2  BDP d1180      12.514 -14.764  -1.578  0.00  0.00    -0.388 OA
ATOM    134  O3  BDP d1180      12.497 -15.686  -4.371  0.00  0.00    -0.390 OA
ATOM    135  C5  BDP d1180      13.569 -12.115  -4.455  0.00  0.00     0.152 C 
ATOM    136  C2  BDP d1180      12.255 -13.970  -2.716  0.00  0.00     0.110 C 
ATOM    137  C3  BDP d1180      13.099 -14.506  -3.869  0.00  0.00     0.092 C 
ATOM    138  C6  BDP d1180      13.652 -11.061  -5.548  0.00  0.00     0.206 C 
ATOM    139  C1  BDP d1180      12.562 -12.513  -2.369  0.00  0.00     0.160 C 
ATOM    140  C4  BDP d1180      13.192 -13.487  -4.992  0.00  0.00     0.103 C 
ATOM    141  O6B BDP d1180      12.579 -10.703  -6.101  0.00  0.00    -0.646 OA
ATOM    142  O4  BDP d1180      14.187 -13.919  -5.881  0.00  0.00    -0.348 OA
ATOM    143  H   BDP d1180      11.987 -14.440  -0.830  0.00  0.00     0.210 HD
ATOM    144  H   BDP d1180      12.432 -16.343  -3.661  0.00  0.00     0.210 HD
ATOM    145  H   BDP d1180      14.537 -12.212  -4.009  0.00  0.00     0.104 H 
ATOM    146  H   BDP d1180      11.229 -14.014  -3.019  0.00  0.00     0.094 H 
ATOM    147  H   BDP d1180      14.085 -14.710  -3.504  0.00  0.00     0.091 H 
ATOM    148  H   BDP d1180      13.520 -12.462  -1.895  0.00  0.00     0.133 H 
ATOM    149  H   BDP d1180      12.242 -13.407  -5.477  0.00  0.00     0.092 H 
ATOM    150  C3  BDP d1176      15.048 -11.988  14.160  0.00  0.00     0.092 C 
ATOM    151  O4  BDP d1176      13.893 -11.658  12.003  0.00  0.00    -0.348 OA
ATOM    152  O3  BDP d1176      16.076 -11.031  13.938  0.00  0.00    -0.390 OA
ATOM    153  O5  BDP d1176      14.168 -14.709  14.086  0.00  0.00    -0.340 OA
ATOM    154  O2  BDP d1176      15.846 -12.473  16.380  0.00  0.00    -0.388 OA
ATOM    155  C1  BDP d1176      14.596 -14.218  15.338  0.00  0.00     0.160 C 
ATOM    156  O6B BDP d1176      11.998 -14.535  11.640  0.00  0.00    -0.646 OA
ATOM    157  C5  BDP d1176      13.585 -13.741  13.209  0.00  0.00     0.152 C 
ATOM    158  O6A BDP d1176      14.112 -15.183  11.381  0.00  0.00    -0.646 OA
ATOM    159  C6  BDP d1176      13.211 -14.536  11.979  0.00  0.00     0.206 C 
ATOM    160  C4  BDP d1176      14.540 -12.601  12.844  0.00  0.00     0.103 C 
ATOM    161  C2  BDP d1176      15.575 -13.063  15.119  0.00  0.00     0.110 C 
ATOM    162  H   BDP d1176      14.204 -11.501  14.603  0.00  0.00     0.091 H 
ATOM    163  H   BDP d1176      16.843 -11.467  13.536  0.00  0.00     0.210 HD
ATOM    164  H   BDP d1176      16.466 -11.736  16.265  0.00  0.00     0.210 HD
ATOM    165  H   BDP d1176      13.740 -13.893  15.892  0.00  0.00     0.133 H 
ATOM    166  H   BDP d1176      12.753 -13.254  13.673  0.00  0.00     0.104 H 
ATOM    167  H   BDP d1176      15.379 -12.957  12.283  0.00  0.00     0.092 H 
ATOM    168  H   BDP d1176      16.458 -13.465  14.668  0.00  0.00     0.094 H 
ENDROOT
TORSDOF 43
ENDMDL
MODEL 46
REMARK VINA RESULT:      -5.9      5.034      6.548
REMARK  0 active torsions:
REMARK  status: ('A' for Active; 'I' for Inactive)
REMARK       I    between atoms: C3_1  and  O3_90 
REMARK       I    between atoms: O1_4  and  C1_76 
REMARK       I    between atoms: C2_5  and  N2_21 
REMARK       I    between atoms: C8_6  and  C7_66 
REMARK       I    between atoms: C4_7  and  O4_24 
REMARK       I    between atoms: N2_9  and  C2_60 
REMARK       I    between atoms: N2_9  and  C7_69 
REMARK       I    between atoms: O4_12  and  C4_26 
REMARK       I    between atoms: O3_13  and  C3_65 
REMARK       I    between atoms: O3_13  and  C1_61 
REMARK       I    between atoms: C3_14  and  O3_35 
REMARK       I    between atoms: C6_15  and  C5_53 
REMARK       I    between atoms: C6_15  and  O6_46 
REMARK       I    between atoms: O6_16  and  C6_54 
REMARK       I    between atoms: C4_17  and  O4_49 
REMARK       I    between atoms: O4_18  and  C4_28 
REMARK       I    between atoms: O4_18  and  C1_47 
REMARK       I    between atoms: C3_19  and  O3_43 
REMARK       I    between atoms: C1_20  and  O4_91 
REMARK       I    between atoms: N2_21  and  C7_66 
REMARK       I    between atoms: O3_22  and  C3_82 
REMARK       I    between atoms: C7_23  and  C8_62 
REMARK       I    between atoms: C7_23  and  N2_51 
REMARK       I    between atoms: C2_25  and  N2_41 
REMARK       I    between atoms: C1_27  and  O3_90 
REMARK       I    between atoms: O6_29  and  C6_74 
REMARK       I    between atoms: O2_30  and  C2_37 
REMARK       I    between atoms: C2_31  and  O2_42 
REMARK       I    between atoms: O3_32  and  C3_45 
REMARK       I    between atoms: O4_33  and  C4_73 
REMARK       I    between atoms: O4_34  and  C4_84 
REMARK       I    between atoms: O4_34  and  C1_85 
REMARK       I    between atoms: C5_36  and  C6_48 
REMARK       I    between atoms: C6_38  and  C5_40 
REMARK       I    between atoms: C6_38  and  O6_89 
REMARK       I    between atoms: N2_41  and  C7_50 
REMARK       I    between atoms: C5_44  and  C6_74 
REMARK       I    between atoms: C7_50  and  C8_75 
REMARK       I    between atoms: N2_51  and  C2_58 
REMARK       I    between atoms: C1_52  and  O3_87 
REMARK       I    between atoms: C6_54  and  C5_86 
REMARK       I    between atoms: O2_59  and  C2_93 
REMARK       I    between atoms: C8_64  and  C7_69 
REMARK       I    between atoms: C6_70  and  C5_80 
REMARK       I    between atoms: C4_72  and  O4_91 
REMARK       I    between atoms: C5_77  and  C6_79 
REMARK       I    between atoms: C3_83  and  O3_87 
ROOT
ATOM      1  C3  NAG d1177      13.298  -9.472   9.385  0.00  0.00     0.093 C 
ATOM      2  O7  NAG d1177       9.870  -9.628  11.191  0.00  0.00    -0.274 OA
ATOM      3  C4  NAG d1177      14.450  -8.453   9.422  0.00  0.00     0.089 C 
ATOM      4  C2  NAG d1177      12.744  -9.696  10.783  0.00  0.00     0.087 C 
ATOM      5  C6  NAG d1177      16.565  -7.738  10.657  0.00  0.00     0.043 C 
ATOM      6  C5  NAG d1177      15.465  -8.801  10.498  0.00  0.00     0.089 C 
ATOM      7  N2  NAG d1177      11.808 -10.834  10.831  0.00  0.00    -0.349 N 
ATOM      8  O4  NAG d1177      15.097  -8.387   8.166  0.00  0.00    -0.390 OA
ATOM      9  C7  NAG d1177      10.489 -10.725  11.010  0.00  0.00     0.214 C 
ATOM     10  O5  NAG d1177      14.811  -8.950  11.753  0.00  0.00    -0.349 OA
ATOM     11  C8  NAG d1177       9.805 -12.067  11.037  0.00  0.00    -0.003 C 
ATOM     12  C1  NAG d1177      13.869  -9.997  11.772  0.00  0.00     0.154 C 
ATOM     13  O6  NAG d1177      16.018  -6.500  11.075  0.00  0.00    -0.398 OA
ATOM     14  O3  NAG d1177      12.248  -8.966   8.607  0.00  0.00    -0.348 OA
ATOM     15  H   NAG d1177      13.679 -10.387   8.980  0.00  0.00     0.091 H 
ATOM     16  H   NAG d1177      14.024  -7.498   9.652  0.00  0.00     0.091 H 
ATOM     17  H   NAG d1177      12.233  -8.793  11.046  0.00  0.00     0.084 H 
ATOM     18  H   NAG d1177      17.059  -7.603   9.717  0.00  0.00     0.078 H 
ATOM     19  H   NAG d1177      17.258  -8.073  11.399  0.00  0.00     0.078 H 
ATOM     20  H   NAG d1177      15.928  -9.715  10.189  0.00  0.00     0.090 H 
ATOM     21  H   NAG d1177      12.182 -11.739  10.724  0.00  0.00     0.163 HD
ATOM     22  H   NAG d1177      15.483  -9.252   7.956  0.00  0.00     0.210 HD
ATOM     23  H   NAG d1177       8.754 -11.928  11.181  0.00  0.00     0.040 H 
ATOM     24  H   NAG d1177      10.201 -12.653  11.840  0.00  0.00     0.040 H 
ATOM     25  H   NAG d1177       9.974 -12.573  10.109  0.00  0.00     0.040 H 
ATOM     26  H   NAG d1177      14.369 -10.900  11.491  0.00  0.00     0.132 H 
ATOM     27  H   NAG d1177      15.386  -6.184  10.410  0.00  0.00     0.209 HD
ATOM     28  O6A BDP d1178      14.341  -9.833   4.391  0.00  0.00    -0.646 OA
ATOM     29  O4  BDP d1178      10.760 -11.629   4.100  0.00  0.00    -0.348 OA
ATOM     30  O3  BDP d1178       9.062  -9.613   5.175  0.00  0.00    -0.390 OA
ATOM     31  C1  BDP d1178      11.854  -9.864   7.560  0.00  0.00     0.160 C 
ATOM     32  C4  BDP d1178      11.230 -10.547   4.869  0.00  0.00     0.103 C 
ATOM     33  C2  BDP d1178      10.600  -9.291   6.934  0.00  0.00     0.110 C 
ATOM     34  O2  BDP d1178       9.599  -9.125   7.905  0.00  0.00    -0.388 OA
ATOM     35  O6B BDP d1178      13.932 -11.967   3.882  0.00  0.00    -0.646 OA
ATOM     36  O5  BDP d1178      12.850  -9.978   6.559  0.00  0.00    -0.340 OA
ATOM     37  C6  BDP d1178      13.693 -10.908   4.528  0.00  0.00     0.206 C 
ATOM     38  C5  BDP d1178      12.543 -10.911   5.544  0.00  0.00     0.152 C 
ATOM     39  C3  BDP d1178      10.110 -10.248   5.885  0.00  0.00     0.092 C 
ATOM     40  H   BDP d1178       8.728 -10.212   4.488  0.00  0.00     0.210 HD
ATOM     41  H   BDP d1178      11.697 -10.839   7.971  0.00  0.00     0.133 H 
ATOM     42  H   BDP d1178      11.441  -9.681   4.276  0.00  0.00     0.092 H 
ATOM     43  H   BDP d1178      10.825  -8.337   6.503  0.00  0.00     0.094 H 
ATOM     44  H   BDP d1178       9.388  -9.985   8.303  0.00  0.00     0.210 HD
ATOM     45  H   BDP d1178      12.432 -11.889   5.964  0.00  0.00     0.104 H 
ATOM     46  H   BDP d1178       9.792 -11.155   6.355  0.00  0.00     0.091 H 
ATOM     47  O1  NAG d1175      15.911 -13.948  22.217  0.00  0.00    -0.369 OA
ATOM     48  O3  NAG d1175      15.274 -12.348  17.862  0.00  0.00    -0.348 OA
ATOM     49  O6  NAG d1175      12.969 -17.499  20.255  0.00  0.00    -0.398 OA
ATOM     50  C7  NAG d1175      17.003 -11.048  20.060  0.00  0.00     0.214 C 
ATOM     51  O4  NAG d1175      13.301 -14.560  17.439  0.00  0.00    -0.390 OA
ATOM     52  N2  NAG d1175      16.034 -11.832  20.549  0.00  0.00    -0.349 N 
ATOM     53  C6  NAG d1175      13.685 -16.826  19.254  0.00  0.00     0.043 C 
ATOM     54  C2  NAG d1175      15.644 -13.148  20.018  0.00  0.00     0.087 C 
ATOM     55  C8  NAG d1175      18.062 -11.659  19.201  0.00  0.00    -0.003 C 
ATOM     56  O7  NAG d1175      17.042  -9.832  20.305  0.00  0.00    -0.274 OA
ATOM     57  C3  NAG d1175      14.629 -13.076  18.888  0.00  0.00     0.093 C 
ATOM     58  C4  NAG d1175      14.284 -14.514  18.474  0.00  0.00     0.089 C 
ATOM     59  C1  NAG d1175      15.016 -13.963  21.141  0.00  0.00     0.151 C 
ATOM     60  C5  NAG d1175      13.860 -15.374  19.671  0.00  0.00     0.089 C 
ATOM     61  O5  NAG d1175      14.802 -15.304  20.725  0.00  0.00    -0.349 OA
ATOM     62  H   NAG d1175      16.059 -13.033  22.502  0.00  0.00     0.212 HD
ATOM     63  H   NAG d1175      12.851 -18.427  19.999  0.00  0.00     0.209 HD
ATOM     64  H   NAG d1175      13.590 -14.009  16.693  0.00  0.00     0.210 HD
ATOM     65  H   NAG d1175      15.539 -11.499  21.331  0.00  0.00     0.163 HD
ATOM     66  H   NAG d1175      13.144 -16.874  18.332  0.00  0.00     0.078 H 
ATOM     67  H   NAG d1175      14.643 -17.285  19.121  0.00  0.00     0.078 H 
ATOM     68  H   NAG d1175      16.536 -13.593  19.630  0.00  0.00     0.084 H 
ATOM     69  H   NAG d1175      17.875 -12.707  19.095  0.00  0.00     0.040 H 
ATOM     70  H   NAG d1175      19.020 -11.512  19.656  0.00  0.00     0.040 H 
ATOM     71  H   NAG d1175      18.051 -11.195  18.237  0.00  0.00     0.040 H 
ATOM     72  H   NAG d1175      13.708 -12.597  19.145  0.00  0.00     0.091 H 
ATOM     73  H   NAG d1175      15.185 -14.933  18.077  0.00  0.00     0.091 H 
ATOM     74  H   NAG d1175      14.071 -13.544  21.414  0.00  0.00     0.132 H 
ATOM     75  H   NAG d1175      12.927 -14.984  20.020  0.00  0.00     0.090 H 
ATOM     76  C2  NAG d1181      14.179 -18.135  -5.533  0.00  0.00     0.087 C 
ATOM     77  C8  NAG d1181      17.034 -17.433  -5.551  0.00  0.00    -0.003 C 
ATOM     78  O5  NAG d1181      12.309 -19.075  -4.258  0.00  0.00    -0.349 OA
ATOM     79  O4  NAG d1181      13.183 -21.375  -6.993  0.00  0.00    -0.390 OA
ATOM     80  C3  NAG d1181      13.867 -19.092  -6.672  0.00  0.00     0.086 C 
ATOM     81  C1  NAG d1181      12.946 -17.873  -4.666  0.00  0.00     0.154 C 
ATOM     82  N2  NAG d1181      14.705 -16.879  -6.038  0.00  0.00    -0.349 N 
ATOM     83  C4  NAG d1181      13.342 -20.366  -6.020  0.00  0.00     0.089 C 
ATOM     84  O6  NAG d1181      11.548 -21.495  -3.452  0.00  0.00    -0.398 OA
ATOM     85  O3  NAG d1181      15.002 -19.331  -7.486  0.00  0.00    -0.391 OA
ATOM     86  C5  NAG d1181      12.027 -19.993  -5.311  0.00  0.00     0.089 C 
ATOM     87  O7  NAG d1181      16.185 -15.229  -5.627  0.00  0.00    -0.274 OA
ATOM     88  C7  NAG d1181      15.933 -16.427  -5.740  0.00  0.00     0.214 C 
ATOM     89  C6  NAG d1181      11.220 -21.192  -4.793  0.00  0.00     0.043 C 
ATOM     90  H   NAG d1181      14.925 -18.603  -4.924  0.00  0.00     0.084 H 
ATOM     91  H   NAG d1181      16.643 -18.420  -5.684  0.00  0.00     0.040 H 
ATOM     92  H   NAG d1181      17.438 -17.339  -4.565  0.00  0.00     0.040 H 
ATOM     93  H   NAG d1181      17.806 -17.255  -6.271  0.00  0.00     0.040 H 
ATOM     94  H   NAG d1181      14.041 -21.566  -7.403  0.00  0.00     0.210 HD
ATOM     95  H   NAG d1181      13.136 -18.679  -7.335  0.00  0.00     0.090 H 
ATOM     96  H   NAG d1181      12.188 -17.338  -5.198  0.00  0.00     0.132 H 
ATOM     97  H   NAG d1181      14.133 -16.333  -6.626  0.00  0.00     0.163 HD
ATOM     98  H   NAG d1181      14.024 -20.764  -5.298  0.00  0.00     0.091 H 
ATOM     99  H   NAG d1181      11.022 -22.254  -3.155  0.00  0.00     0.209 HD
ATOM    100  H   NAG d1181      15.713 -19.710  -6.947  0.00  0.00     0.210 HD
ATOM    101  H   NAG d1181      11.398 -19.539  -6.048  0.00  0.00     0.090 H 
ATOM    102  H   NAG d1181      10.177 -20.960  -4.852  0.00  0.00     0.078 H 
ATOM    103  H   NAG d1181      11.457 -22.042  -5.397  0.00  0.00     0.078 H 
ATOM    104  C4  NAG d1179       9.787 -12.270   0.101  0.00  0.00     0.089 C 
ATOM    105  N2  NAG d1179      12.001 -13.705   2.858  0.00  0.00    -0.349 N 
ATOM    106  C6  NAG d1179       8.703  -9.986   0.244  0.00  0.00     0.043 C 
ATOM    107  O4  NAG d1179       9.950 -12.200  -1.312  0.00  0.00    -0.390 OA
ATOM    108  O6  NAG d1179       7.488 -10.455   0.795  0.00  0.00    -0.398 OA
ATOM    109  C1  NAG d1179      10.891 -11.558   2.677  0.00  0.00     0.154 C 
ATOM    110  C5  NAG d1179       9.854 -10.867   0.699  0.00  0.00     0.089 C 
ATOM    111  O5  NAG d1179       9.776 -10.938   2.111  0.00  0.00    -0.349 OA
ATOM    112  C2  NAG d1179      10.890 -13.015   2.229  0.00  0.00     0.087 C 
ATOM    113  C8  NAG d1179      13.045 -15.403   4.175  0.00  0.00    -0.003 C 
ATOM    114  C7  NAG d1179      11.853 -14.897   3.436  0.00  0.00     0.214 C 
ATOM    115  C3  NAG d1179      10.891 -13.135   0.696  0.00  0.00     0.093 C 
ATOM    116  O3  NAG d1179      10.664 -14.484   0.315  0.00  0.00    -0.348 OA
ATOM    117  O7  NAG d1179      10.825 -15.563   3.371  0.00  0.00    -0.274 OA
ATOM    118  H   NAG d1179       8.834 -12.702   0.327  0.00  0.00     0.091 H 
ATOM    119  H   NAG d1179      12.889 -13.281   2.859  0.00  0.00     0.163 HD
ATOM    120  H   NAG d1179       8.639 -10.010  -0.824  0.00  0.00     0.078 H 
ATOM    121  H   NAG d1179       8.875  -8.984   0.575  0.00  0.00     0.078 H 
ATOM    122  H   NAG d1179      10.814 -11.809  -1.520  0.00  0.00     0.210 HD
ATOM    123  H   NAG d1179       7.328 -11.364   0.497  0.00  0.00     0.209 HD
ATOM    124  H   NAG d1179      11.762 -11.008   2.388  0.00  0.00     0.132 H 
ATOM    125  H   NAG d1179      10.781 -10.447   0.369  0.00  0.00     0.090 H 
ATOM    126  H   NAG d1179       9.984 -13.489   2.546  0.00  0.00     0.084 H 
ATOM    127  H   NAG d1179      13.834 -14.683   4.116  0.00  0.00     0.040 H 
ATOM    128  H   NAG d1179      13.370 -16.325   3.738  0.00  0.00     0.040 H 
ATOM    129  H   NAG d1179      12.786 -15.566   5.200  0.00  0.00     0.040 H 
ATOM    130  H   NAG d1179      11.842 -12.808   0.333  0.00  0.00     0.091 H 
ATOM    131  O5  BDP d1180      11.661 -14.557  -1.762  0.00  0.00    -0.340 OA
ATOM    132  O6A BDP d1180      13.621 -13.873  -4.391  0.00  0.00    -0.646 OA
ATOM    133  O2  BDP d1180      12.017 -16.975   0.919  0.00  0.00    -0.388 OA
ATOM    134  O3  BDP d1180      12.049 -18.613  -1.525  0.00  0.00    -0.390 OA
ATOM    135  C5  BDP d1180      12.647 -15.097  -2.614  0.00  0.00     0.152 C 
ATOM    136  C2  BDP d1180      11.628 -16.555  -0.372  0.00  0.00     0.110 C 
ATOM    137  C3  BDP d1180      12.506 -17.279  -1.389  0.00  0.00     0.092 C 
ATOM    138  C6  BDP d1180      12.565 -14.375  -3.951  0.00  0.00     0.206 C 
ATOM    139  C1  BDP d1180      11.752 -15.033  -0.442  0.00  0.00     0.160 C 
ATOM    140  C4  BDP d1180      12.438 -16.598  -2.745  0.00  0.00     0.103 C 
ATOM    141  O6B BDP d1180      11.441 -14.310  -4.515  0.00  0.00    -0.646 OA
ATOM    142  O4  BDP d1180      13.458 -17.132  -3.545  0.00  0.00    -0.348 OA
ATOM    143  H   BDP d1180      11.471 -16.526   1.583  0.00  0.00     0.210 HD
ATOM    144  H   BDP d1180      12.088 -19.057  -0.663  0.00  0.00     0.210 HD
ATOM    145  H   BDP d1180      13.630 -14.954  -2.217  0.00  0.00     0.104 H 
ATOM    146  H   BDP d1180      10.610 -16.800  -0.592  0.00  0.00     0.094 H 
ATOM    147  H   BDP d1180      13.518 -17.258  -1.042  0.00  0.00     0.091 H 
ATOM    148  H   BDP d1180      12.707 -14.742  -0.056  0.00  0.00     0.133 H 
ATOM    149  H   BDP d1180      11.474 -16.765  -3.178  0.00  0.00     0.092 H 
ATOM    150  C3  BDP d1176      14.558  -9.769  15.181  0.00  0.00     0.092 C 
ATOM    151  O4  BDP d1176      13.318 -10.173  13.085  0.00  0.00    -0.348 OA
ATOM    152  O3  BDP d1176      15.448  -8.792  14.653  0.00  0.00    -0.390 OA
ATOM    153  O5  BDP d1176      14.038 -12.492  15.882  0.00  0.00    -0.340 OA
ATOM    154  O2  BDP d1176      15.467  -9.537  17.398  0.00  0.00    -0.388 OA
ATOM    155  C1  BDP d1176      14.430 -11.634  16.932  0.00  0.00     0.160 C 
ATOM    156  O6B BDP d1176      11.803 -13.244  13.609  0.00  0.00    -0.646 OA
ATOM    157  C5  BDP d1176      13.312 -11.873  14.815  0.00  0.00     0.152 C 
ATOM    158  O6A BDP d1176      13.977 -13.683  13.408  0.00  0.00    -0.646 OA
ATOM    159  C6  BDP d1176      13.015 -13.010  13.865  0.00  0.00     0.206 C 
ATOM    160  C4  BDP d1176      14.102 -10.770  14.106  0.00  0.00     0.103 C 
ATOM    161  C2  BDP d1176      15.245 -10.473  16.358  0.00  0.00     0.110 C 
ATOM    162  H   BDP d1176      13.670  -9.283  15.528  0.00  0.00     0.091 H 
ATOM    163  H   BDP d1176      16.255  -9.227  14.337  0.00  0.00     0.210 HD
ATOM    164  H   BDP d1176      15.983  -8.790  17.057  0.00  0.00     0.210 HD
ATOM    165  H   BDP d1176      13.552 -11.275  17.429  0.00  0.00     0.133 H 
ATOM    166  H   BDP d1176      12.436 -11.381  15.183  0.00  0.00     0.104 H 
ATOM    167  H   BDP d1176      14.966 -11.162  13.612  0.00  0.00     0.092 H 
ATOM    168  H   BDP d1176      16.161 -10.876  15.978  0.00  0.00     0.094 H 
ENDROOT
TORSDOF 43
ENDMDL
MODEL 47
REMARK VINA RESULT:      -5.8      4.548     18.859
REMARK  0 active torsions:
REMARK  status: ('A' for Active; 'I' for Inactive)
REMARK       I    between atoms: C3_1  and  O3_90 
REMARK       I    between atoms: O1_4  and  C1_76 
REMARK       I    between atoms: C2_5  and  N2_21 
REMARK       I    between atoms: C8_6  and  C7_66 
REMARK       I    between atoms: C4_7  and  O4_24 
REMARK       I    between atoms: N2_9  and  C2_60 
REMARK       I    between atoms: N2_9  and  C7_69 
REMARK       I    between atoms: O4_12  and  C4_26 
REMARK       I    between atoms: O3_13  and  C3_65 
REMARK       I    between atoms: O3_13  and  C1_61 
REMARK       I    between atoms: C3_14  and  O3_35 
REMARK       I    between atoms: C6_15  and  C5_53 
REMARK       I    between atoms: C6_15  and  O6_46 
REMARK       I    between atoms: O6_16  and  C6_54 
REMARK       I    between atoms: C4_17  and  O4_49 
REMARK       I    between atoms: O4_18  and  C4_28 
REMARK       I    between atoms: O4_18  and  C1_47 
REMARK       I    between atoms: C3_19  and  O3_43 
REMARK       I    between atoms: C1_20  and  O4_91 
REMARK       I    between atoms: N2_21  and  C7_66 
REMARK       I    between atoms: O3_22  and  C3_82 
REMARK       I    between atoms: C7_23  and  C8_62 
REMARK       I    between atoms: C7_23  and  N2_51 
REMARK       I    between atoms: C2_25  and  N2_41 
REMARK       I    between atoms: C1_27  and  O3_90 
REMARK       I    between atoms: O6_29  and  C6_74 
REMARK       I    between atoms: O2_30  and  C2_37 
REMARK       I    between atoms: C2_31  and  O2_42 
REMARK       I    between atoms: O3_32  and  C3_45 
REMARK       I    between atoms: O4_33  and  C4_73 
REMARK       I    between atoms: O4_34  and  C4_84 
REMARK       I    between atoms: O4_34  and  C1_85 
REMARK       I    between atoms: C5_36  and  C6_48 
REMARK       I    between atoms: C6_38  and  C5_40 
REMARK       I    between atoms: C6_38  and  O6_89 
REMARK       I    between atoms: N2_41  and  C7_50 
REMARK       I    between atoms: C5_44  and  C6_74 
REMARK       I    between atoms: C7_50  and  C8_75 
REMARK       I    between atoms: N2_51  and  C2_58 
REMARK       I    between atoms: C1_52  and  O3_87 
REMARK       I    between atoms: C6_54  and  C5_86 
REMARK       I    between atoms: O2_59  and  C2_93 
REMARK       I    between atoms: C8_64  and  C7_69 
REMARK       I    between atoms: C6_70  and  C5_80 
REMARK       I    between atoms: C4_72  and  O4_91 
REMARK       I    between atoms: C5_77  and  C6_79 
REMARK       I    between atoms: C3_83  and  O3_87 
ROOT
ATOM      1  C3  NAG d1177      12.970  -8.387   5.763  0.00  0.00     0.093 C 
ATOM      2  O7  NAG d1177      16.821  -8.798   5.953  0.00  0.00    -0.274 OA
ATOM      3  C4  NAG d1177      12.064  -7.389   5.022  0.00  0.00     0.089 C 
ATOM      4  C2  NAG d1177      14.125  -8.816   4.874  0.00  0.00     0.087 C 
ATOM      5  C6  NAG d1177      10.895  -6.876   2.813  0.00  0.00     0.043 C 
ATOM      6  C5  NAG d1177      11.692  -7.899   3.638  0.00  0.00     0.089 C 
ATOM      7  N2  NAG d1177      14.879  -9.944   5.450  0.00  0.00    -0.349 N 
ATOM      8  O4  NAG d1177      10.886  -7.139   5.764  0.00  0.00    -0.390 OA
ATOM      9  C7  NAG d1177      16.117  -9.858   5.943  0.00  0.00     0.214 C 
ATOM     10  O5  NAG d1177      12.869  -8.232   2.911  0.00  0.00    -0.349 OA
ATOM     11  C8  NAG d1177      16.627 -11.186   6.439  0.00  0.00    -0.003 C 
ATOM     12  C1  NAG d1177      13.619  -9.266   3.504  0.00  0.00     0.154 C 
ATOM     13  O6  NAG d1177      11.664  -5.712   2.565  0.00  0.00    -0.398 OA
ATOM     14  O3  NAG d1177      13.530  -7.766   6.888  0.00  0.00    -0.348 OA
ATOM     15  H   NAG d1177      12.374  -9.232   6.040  0.00  0.00     0.091 H 
ATOM     16  H   NAG d1177      12.615  -6.478   4.912  0.00  0.00     0.091 H 
ATOM     17  H   NAG d1177      14.763  -7.961   4.786  0.00  0.00     0.084 H 
ATOM     18  H   NAG d1177      10.011  -6.604   3.352  0.00  0.00     0.078 H 
ATOM     19  H   NAG d1177      10.638  -7.321   1.874  0.00  0.00     0.078 H 
ATOM     20  H   NAG d1177      11.073  -8.758   3.792  0.00  0.00     0.090 H 
ATOM     21  H   NAG d1177      14.437 -10.824   5.474  0.00  0.00     0.163 HD
ATOM     22  H   NAG d1177      10.386  -7.964   5.865  0.00  0.00     0.210 HD
ATOM     23  H   NAG d1177      17.618 -11.066   6.823  0.00  0.00     0.040 H 
ATOM     24  H   NAG d1177      16.639 -11.888   5.631  0.00  0.00     0.040 H 
ATOM     25  H   NAG d1177      15.985 -11.548   7.215  0.00  0.00     0.040 H 
ATOM     26  H   NAG d1177      12.983 -10.118   3.613  0.00  0.00     0.132 H 
ATOM     27  H   NAG d1177      11.904  -5.298   3.409  0.00  0.00     0.209 HD
ATOM     28  O6A BDP d1178       9.568  -8.000   9.563  0.00  0.00    -0.646 OA
ATOM     29  O4  BDP d1178      12.396  -9.718  11.840  0.00  0.00    -0.348 OA
ATOM     30  O3  BDP d1178      14.542  -7.879  11.504  0.00  0.00    -0.390 OA
ATOM     31  C1  BDP d1178      13.288  -8.496   8.099  0.00  0.00     0.160 C 
ATOM     32  C4  BDP d1178      12.447  -8.766  10.804  0.00  0.00     0.103 C 
ATOM     33  C2  BDP d1178      14.105  -7.830   9.186  0.00  0.00     0.110 C 
ATOM     34  O2  BDP d1178      15.465  -7.808   8.835  0.00  0.00    -0.388 OA
ATOM     35  O6B BDP d1178       9.518 -10.032  10.484  0.00  0.00    -0.646 OA
ATOM     36  O5  BDP d1178      11.923  -8.462   8.473  0.00  0.00    -0.340 OA
ATOM     37  C6  BDP d1178      10.120  -9.081   9.912  0.00  0.00     0.206 C 
ATOM     38  C5  BDP d1178      11.618  -9.232   9.618  0.00  0.00     0.152 C 
ATOM     39  C3  BDP d1178      13.941  -8.617  10.456  0.00  0.00     0.092 C 
ATOM     40  H   BDP d1178      14.450  -8.367  12.338  0.00  0.00     0.210 HD
ATOM     41  H   BDP d1178      13.558  -9.520   7.954  0.00  0.00     0.133 H 
ATOM     42  H   BDP d1178      12.033  -7.822  11.092  0.00  0.00     0.092 H 
ATOM     43  H   BDP d1178      13.766  -6.824   9.318  0.00  0.00     0.094 H 
ATOM     44  H   BDP d1178      15.782  -8.716   8.713  0.00  0.00     0.210 HD
ATOM     45  H   BDP d1178      11.853 -10.261   9.443  0.00  0.00     0.104 H 
ATOM     46  H   BDP d1178      14.385  -9.583  10.332  0.00  0.00     0.091 H 
ATOM     47  O1  NAG d1175      16.740 -14.745  -5.936  0.00  0.00    -0.369 OA
ATOM     48  O3  NAG d1175      15.250 -12.507  -2.102  0.00  0.00    -0.348 OA
ATOM     49  O6  NAG d1175      18.062 -17.950  -2.318  0.00  0.00    -0.398 OA
ATOM     50  C7  NAG d1175      14.934 -11.558  -5.019  0.00  0.00     0.214 C 
ATOM     51  O4  NAG d1175      16.591 -14.623  -0.461  0.00  0.00    -0.390 OA
ATOM     52  N2  NAG d1175      15.959 -12.403  -4.849  0.00  0.00    -0.349 N 
ATOM     53  C6  NAG d1175      16.996 -17.138  -1.908  0.00  0.00     0.043 C 
ATOM     54  C2  NAG d1175      15.941 -13.623  -4.026  0.00  0.00     0.087 C 
ATOM     55  C8  NAG d1175      13.548 -12.038  -4.733  0.00  0.00    -0.003 C 
ATOM     56  O7  NAG d1175      15.109 -10.393  -5.408  0.00  0.00    -0.274 OA
ATOM     57  C3  NAG d1175      16.264 -13.379  -2.561  0.00  0.00     0.093 C 
ATOM     58  C4  NAG d1175      16.256 -14.737  -1.844  0.00  0.00     0.089 C 
ATOM     59  C1  NAG d1175      16.981 -14.594  -4.566  0.00  0.00     0.151 C 
ATOM     60  C5  NAG d1175      17.154 -15.765  -2.544  0.00  0.00     0.089 C 
ATOM     61  O5  NAG d1175      16.865 -15.858  -3.926  0.00  0.00    -0.349 OA
ATOM     62  H   NAG d1175      16.819 -13.883  -6.375  0.00  0.00     0.212 HD
ATOM     63  H   NAG d1175      17.971 -18.829  -1.918  0.00  0.00     0.209 HD
ATOM     64  H   NAG d1175      16.011 -13.969  -0.040  0.00  0.00     0.210 HD
ATOM     65  H   NAG d1175      16.799 -12.189  -5.315  0.00  0.00     0.163 HD
ATOM     66  H   NAG d1175      17.003 -17.044  -0.843  0.00  0.00     0.078 H 
ATOM     67  H   NAG d1175      16.067 -17.575  -2.213  0.00  0.00     0.078 H 
ATOM     68  H   NAG d1175      14.944 -14.008  -4.082  0.00  0.00     0.084 H 
ATOM     69  H   NAG d1175      13.583 -13.058  -4.411  0.00  0.00     0.040 H 
ATOM     70  H   NAG d1175      12.955 -11.965  -5.621  0.00  0.00     0.040 H 
ATOM     71  H   NAG d1175      13.114 -11.435  -3.963  0.00  0.00     0.040 H 
ATOM     72  H   NAG d1175      17.224 -12.940  -2.384  0.00  0.00     0.091 H 
ATOM     73  H   NAG d1175      15.249 -15.095  -1.900  0.00  0.00     0.091 H 
ATOM     74  H   NAG d1175      17.966 -14.218  -4.382  0.00  0.00     0.132 H 
ATOM     75  H   NAG d1175      18.162 -15.428  -2.427  0.00  0.00     0.090 H 
ATOM     76  C2  NAG d1181       4.201 -14.722  19.230  0.00  0.00     0.087 C 
ATOM     77  C8  NAG d1181       1.770 -14.036  17.725  0.00  0.00    -0.003 C 
ATOM     78  O5  NAG d1181       6.384 -15.835  19.198  0.00  0.00    -0.349 OA
ATOM     79  O4  NAG d1181       4.109 -17.702  21.404  0.00  0.00    -0.390 OA
ATOM     80  C3  NAG d1181       3.840 -15.497  20.487  0.00  0.00     0.086 C 
ATOM     81  C1  NAG d1181       5.717 -14.587  19.070  0.00  0.00     0.154 C 
ATOM     82  N2  NAG d1181       3.586 -13.406  19.234  0.00  0.00    -0.349 N 
ATOM     83  C4  NAG d1181       4.526 -16.851  20.359  0.00  0.00     0.089 C 
ATOM     84  O6  NAG d1181       7.270 -18.345  19.207  0.00  0.00    -0.398 OA
ATOM     85  O3  NAG d1181       2.436 -15.616  20.647  0.00  0.00    -0.391 OA
ATOM     86  C5  NAG d1181       6.041 -16.583  20.361  0.00  0.00     0.089 C 
ATOM     87  O7  NAG d1181       2.625 -11.843  17.925  0.00  0.00    -0.274 OA
ATOM     88  C7  NAG d1181       2.702 -13.010  18.305  0.00  0.00     0.214 C 
ATOM     89  C6  NAG d1181       6.911 -17.843  20.479  0.00  0.00     0.043 C 
ATOM     90  H   NAG d1181       3.824 -15.279  18.398  0.00  0.00     0.084 H 
ATOM     91  H   NAG d1181       1.973 -14.991  18.164  0.00  0.00     0.040 H 
ATOM     92  H   NAG d1181       1.915 -14.093  16.666  0.00  0.00     0.040 H 
ATOM     93  H   NAG d1181       0.758 -13.756  17.932  0.00  0.00     0.040 H 
ATOM     94  H   NAG d1181       3.149 -17.833  21.351  0.00  0.00     0.210 HD
ATOM     95  H   NAG d1181       4.173 -14.986  21.366  0.00  0.00     0.090 H 
ATOM     96  H   NAG d1181       6.148 -13.976  19.835  0.00  0.00     0.132 H 
ATOM     97  H   NAG d1181       3.828 -12.776  19.951  0.00  0.00     0.163 HD
ATOM     98  H   NAG d1181       4.263 -17.356  19.453  0.00  0.00     0.091 H 
ATOM     99  H   NAG d1181       7.817 -19.138  19.316  0.00  0.00     0.209 HD
ATOM    100  H   NAG d1181       2.060 -16.074  19.880  0.00  0.00     0.210 HD
ATOM    101  H   NAG d1181       6.254 -16.022  21.247  0.00  0.00     0.090 H 
ATOM    102  H   NAG d1181       7.801 -17.602  21.021  0.00  0.00     0.078 H 
ATOM    103  H   NAG d1181       6.346 -18.595  20.989  0.00  0.00     0.078 H 
ATOM    104  C4  NAG d1179      11.213  -9.749  15.834  0.00  0.00     0.089 C 
ATOM    105  N2  NAG d1179      10.559 -11.590  12.555  0.00  0.00    -0.349 N 
ATOM    106  C6  NAG d1179      12.386  -7.509  15.953  0.00  0.00     0.043 C 
ATOM    107  O4  NAG d1179      10.377  -9.469  16.952  0.00  0.00    -0.390 OA
ATOM    108  O6  NAG d1179      13.677  -8.049  16.150  0.00  0.00    -0.398 OA
ATOM    109  C1  NAG d1179      11.584  -9.435  12.983  0.00  0.00     0.154 C 
ATOM    110  C5  NAG d1179      11.551  -8.452  15.104  0.00  0.00     0.089 C 
ATOM    111  O5  NAG d1179      12.314  -8.733  13.943  0.00  0.00    -0.349 OA
ATOM    112  C2  NAG d1179      11.258 -10.809  13.559  0.00  0.00     0.087 C 
ATOM    113  C8  NAG d1179      10.185 -13.470  11.130  0.00  0.00    -0.003 C 
ATOM    114  C7  NAG d1179      10.887 -12.854  12.292  0.00  0.00     0.214 C 
ATOM    115  C3  NAG d1179      10.490 -10.698  14.886  0.00  0.00     0.093 C 
ATOM    116  O3  NAG d1179      10.402 -11.974  15.503  0.00  0.00    -0.348 OA
ATOM    117  O7  NAG d1179      11.698 -13.499  12.949  0.00  0.00    -0.274 OA
ATOM    118  H   NAG d1179      12.119 -10.206  16.174  0.00  0.00     0.091 H 
ATOM    119  H   NAG d1179       9.820 -11.174  12.055  0.00  0.00     0.163 HD
ATOM    120  H   NAG d1179      11.911  -7.371  16.901  0.00  0.00     0.078 H 
ATOM    121  H   NAG d1179      12.472  -6.568  15.451  0.00  0.00     0.078 H 
ATOM    122  H   NAG d1179       9.555  -9.055  16.646  0.00  0.00     0.210 HD
ATOM    123  H   NAG d1179      13.603  -8.903  16.605  0.00  0.00     0.209 HD
ATOM    124  H   NAG d1179      10.725  -8.852  12.722  0.00  0.00     0.132 H 
ATOM    125  H   NAG d1179      10.615  -7.991  14.867  0.00  0.00     0.090 H 
ATOM    126  H   NAG d1179      12.166 -11.322  13.802  0.00  0.00     0.084 H 
ATOM    127  H   NAG d1179       9.524 -12.752  10.690  0.00  0.00     0.040 H 
ATOM    128  H   NAG d1179       9.622 -14.317  11.462  0.00  0.00     0.040 H 
ATOM    129  H   NAG d1179      10.905 -13.783  10.403  0.00  0.00     0.040 H 
ATOM    130  H   NAG d1179       9.510 -10.324  14.678  0.00  0.00     0.091 H 
ATOM    131  O5  BDP d1180       8.504 -11.739  16.792  0.00  0.00    -0.340 OA
ATOM    132  O6A BDP d1180       5.555 -10.677  17.971  0.00  0.00    -0.646 OA
ATOM    133  O2  BDP d1180       9.351 -14.532  14.638  0.00  0.00    -0.388 OA
ATOM    134  O3  BDP d1180       7.996 -15.786  16.928  0.00  0.00    -0.390 OA
ATOM    135  C5  BDP d1180       7.190 -12.149  17.099  0.00  0.00     0.152 C 
ATOM    136  C2  BDP d1180       9.078 -13.922  15.881  0.00  0.00     0.110 C 
ATOM    137  C3  BDP d1180       7.763 -14.489  16.408  0.00  0.00     0.092 C 
ATOM    138  C6  BDP d1180       6.651 -11.235  18.189  0.00  0.00     0.206 C 
ATOM    139  C1  BDP d1180       9.045 -12.407  15.679  0.00  0.00     0.160 C 
ATOM    140  C4  BDP d1180       7.199 -13.613  17.513  0.00  0.00     0.103 C 
ATOM    141  O6B BDP d1180       7.349 -11.082  19.225  0.00  0.00    -0.646 OA
ATOM    142  O4  BDP d1180       5.882 -14.025  17.758  0.00  0.00    -0.348 OA
ATOM    143  H   BDP d1180      10.185 -14.186  14.283  0.00  0.00     0.210 HD
ATOM    144  H   BDP d1180       8.357 -16.354  16.230  0.00  0.00     0.210 HD
ATOM    145  H   BDP d1180       6.546 -12.072  16.248  0.00  0.00     0.104 H 
ATOM    146  H   BDP d1180       9.834 -14.127  16.611  0.00  0.00     0.094 H 
ATOM    147  H   BDP d1180       7.060 -14.525  15.602  0.00  0.00     0.091 H 
ATOM    148  H   BDP d1180       8.430 -12.181  14.833  0.00  0.00     0.133 H 
ATOM    149  H   BDP d1180       7.808 -13.709  18.388  0.00  0.00     0.092 H 
ATOM    150  C3  BDP d1176      14.727  -9.553   0.212  0.00  0.00     0.092 C 
ATOM    151  O4  BDP d1176      14.734  -9.634   2.680  0.00  0.00    -0.348 OA
ATOM    152  O3  BDP d1176      13.765  -8.512   0.090  0.00  0.00    -0.390 OA
ATOM    153  O5  BDP d1176      15.330 -12.349   0.231  0.00  0.00    -0.340 OA
ATOM    154  O2  BDP d1176      15.054  -9.660  -2.171  0.00  0.00    -0.388 OA
ATOM    155  C1  BDP d1176      15.572 -11.659  -0.977  0.00  0.00     0.160 C 
ATOM    156  O6B BDP d1176      16.086 -12.743   3.392  0.00  0.00    -0.646 OA
ATOM    157  C5  BDP d1176      15.475 -11.574   1.425  0.00  0.00     0.152 C 
ATOM    158  O6A BDP d1176      14.073 -13.155   2.535  0.00  0.00    -0.646 OA
ATOM    159  C6  BDP d1176      15.180 -12.555   2.536  0.00  0.00     0.206 C 
ATOM    160  C4  BDP d1176      14.519 -10.380   1.492  0.00  0.00     0.103 C 
ATOM    161  C2  BDP d1176      14.665 -10.429  -1.046  0.00  0.00     0.110 C 
ATOM    162  H   BDP d1176      15.702  -9.122   0.295  0.00  0.00     0.091 H 
ATOM    163  H   BDP d1176      12.878  -8.898   0.014  0.00  0.00     0.210 HD
ATOM    164  H   BDP d1176      14.492  -8.873  -2.235  0.00  0.00     0.210 HD
ATOM    165  H   BDP d1176      16.604 -11.375  -1.011  0.00  0.00     0.133 H 
ATOM    166  H   BDP d1176      16.450 -11.139   1.484  0.00  0.00     0.104 H 
ATOM    167  H   BDP d1176      13.497 -10.698   1.534  0.00  0.00     0.092 H 
ATOM    168  H   BDP d1176      13.655 -10.773  -1.126  0.00  0.00     0.094 H 
ENDROOT
TORSDOF 43
ENDMDL
MODEL 48
REMARK VINA RESULT:      -5.8      4.201     18.924
REMARK  0 active torsions:
REMARK  status: ('A' for Active; 'I' for Inactive)
REMARK       I    between atoms: C3_1  and  O3_90 
REMARK       I    between atoms: O1_4  and  C1_76 
REMARK       I    between atoms: C2_5  and  N2_21 
REMARK       I    between atoms: C8_6  and  C7_66 
REMARK       I    between atoms: C4_7  and  O4_24 
REMARK       I    between atoms: N2_9  and  C2_60 
REMARK       I    between atoms: N2_9  and  C7_69 
REMARK       I    between atoms: O4_12  and  C4_26 
REMARK       I    between atoms: O3_13  and  C3_65 
REMARK       I    between atoms: O3_13  and  C1_61 
REMARK       I    between atoms: C3_14  and  O3_35 
REMARK       I    between atoms: C6_15  and  C5_53 
REMARK       I    between atoms: C6_15  and  O6_46 
REMARK       I    between atoms: O6_16  and  C6_54 
REMARK       I    between atoms: C4_17  and  O4_49 
REMARK       I    between atoms: O4_18  and  C4_28 
REMARK       I    between atoms: O4_18  and  C1_47 
REMARK       I    between atoms: C3_19  and  O3_43 
REMARK       I    between atoms: C1_20  and  O4_91 
REMARK       I    between atoms: N2_21  and  C7_66 
REMARK       I    between atoms: O3_22  and  C3_82 
REMARK       I    between atoms: C7_23  and  C8_62 
REMARK       I    between atoms: C7_23  and  N2_51 
REMARK       I    between atoms: C2_25  and  N2_41 
REMARK       I    between atoms: C1_27  and  O3_90 
REMARK       I    between atoms: O6_29  and  C6_74 
REMARK       I    between atoms: O2_30  and  C2_37 
REMARK       I    between atoms: C2_31  and  O2_42 
REMARK       I    between atoms: O3_32  and  C3_45 
REMARK       I    between atoms: O4_33  and  C4_73 
REMARK       I    between atoms: O4_34  and  C4_84 
REMARK       I    between atoms: O4_34  and  C1_85 
REMARK       I    between atoms: C5_36  and  C6_48 
REMARK       I    between atoms: C6_38  and  C5_40 
REMARK       I    between atoms: C6_38  and  O6_89 
REMARK       I    between atoms: N2_41  and  C7_50 
REMARK       I    between atoms: C5_44  and  C6_74 
REMARK       I    between atoms: C7_50  and  C8_75 
REMARK       I    between atoms: N2_51  and  C2_58 
REMARK       I    between atoms: C1_52  and  O3_87 
REMARK       I    between atoms: C6_54  and  C5_86 
REMARK       I    between atoms: O2_59  and  C2_93 
REMARK       I    between atoms: C8_64  and  C7_69 
REMARK       I    between atoms: C6_70  and  C5_80 
REMARK       I    between atoms: C4_72  and  O4_91 
REMARK       I    between atoms: C5_77  and  C6_79 
REMARK       I    between atoms: C3_83  and  O3_87 
ROOT
ATOM      1  C3  NAG d1177      13.196 -10.071  10.666  0.00  0.00     0.093 C 
ATOM      2  O7  NAG d1177      15.747 -12.568   9.151  0.00  0.00    -0.274 OA
ATOM      3  C4  NAG d1177      13.242  -8.552  10.907  0.00  0.00     0.089 C 
ATOM      4  C2  NAG d1177      13.809 -10.412   9.317  0.00  0.00     0.087 C 
ATOM      5  C6  NAG d1177      12.851  -6.260   9.858  0.00  0.00     0.043 C 
ATOM      6  C5  NAG d1177      12.703  -7.783   9.712  0.00  0.00     0.089 C 
ATOM      7  N2  NAG d1177      13.572 -11.817   8.941  0.00  0.00    -0.349 N 
ATOM      8  O4  NAG d1177      12.501  -8.209  12.062  0.00  0.00    -0.390 OA
ATOM      9  C7  NAG d1177      14.514 -12.762   8.900  0.00  0.00     0.214 C 
ATOM     10  O5  NAG d1177      13.387  -8.182   8.530  0.00  0.00    -0.349 OA
ATOM     11  C8  NAG d1177      13.968 -14.094   8.456  0.00  0.00    -0.003 C 
ATOM     12  C1  NAG d1177      13.210  -9.542   8.213  0.00  0.00     0.154 C 
ATOM     13  O6  NAG d1177      14.215  -5.886   9.931  0.00  0.00    -0.398 OA
ATOM     14  O3  NAG d1177      13.964 -10.724  11.639  0.00  0.00    -0.348 OA
ATOM     15  H   NAG d1177      12.173 -10.381  10.703  0.00  0.00     0.091 H 
ATOM     16  H   NAG d1177      14.268  -8.282  11.051  0.00  0.00     0.091 H 
ATOM     17  H   NAG d1177      14.860 -10.235   9.418  0.00  0.00     0.084 H 
ATOM     18  H   NAG d1177      12.353  -5.944  10.751  0.00  0.00     0.078 H 
ATOM     19  H   NAG d1177      12.415  -5.791   9.001  0.00  0.00     0.078 H 
ATOM     20  H   NAG d1177      11.660  -8.012   9.655  0.00  0.00     0.090 H 
ATOM     21  H   NAG d1177      12.652 -12.078   8.703  0.00  0.00     0.163 HD
ATOM     22  H   NAG d1177      11.571  -8.453  11.934  0.00  0.00     0.210 HD
ATOM     23  H   NAG d1177      14.757 -14.815   8.439  0.00  0.00     0.040 H 
ATOM     24  H   NAG d1177      13.550 -13.999   7.475  0.00  0.00     0.040 H 
ATOM     25  H   NAG d1177      13.207 -14.413   9.138  0.00  0.00     0.040 H 
ATOM     26  H   NAG d1177      12.161  -9.731   8.130  0.00  0.00     0.132 H 
ATOM     27  H   NAG d1177      14.624  -6.305  10.705  0.00  0.00     0.209 HD
ATOM     28  O6A BDP d1178      10.736 -10.280  15.145  0.00  0.00    -0.646 OA
ATOM     29  O4  BDP d1178      11.535 -14.215  15.036  0.00  0.00    -0.348 OA
ATOM     30  O3  BDP d1178      14.375 -14.178  14.841  0.00  0.00    -0.390 OA
ATOM     31  C1  BDP d1178      13.226 -11.739  12.335  0.00  0.00     0.160 C 
ATOM     32  C4  BDP d1178      12.272 -13.076  14.659  0.00  0.00     0.103 C 
ATOM     33  C2  BDP d1178      14.216 -12.488  13.202  0.00  0.00     0.110 C 
ATOM     34  O2  BDP d1178      15.252 -13.020  12.418  0.00  0.00    -0.388 OA
ATOM     35  O6B BDP d1178       9.279 -11.953  14.911  0.00  0.00    -0.646 OA
ATOM     36  O5  BDP d1178      12.222 -11.186  13.166  0.00  0.00    -0.340 OA
ATOM     37  C6  BDP d1178      10.395 -11.407  14.689  0.00  0.00     0.206 C 
ATOM     38  C5  BDP d1178      11.414 -12.148  13.813  0.00  0.00     0.152 C 
ATOM     39  C3  BDP d1178      13.493 -13.614  13.887  0.00  0.00     0.092 C 
ATOM     40  H   BDP d1178      13.931 -14.910  15.298  0.00  0.00     0.210 HD
ATOM     41  H   BDP d1178      12.743 -12.374  11.623  0.00  0.00     0.133 H 
ATOM     42  H   BDP d1178      12.587 -12.492  15.499  0.00  0.00     0.092 H 
ATOM     43  H   BDP d1178      14.636 -11.815  13.921  0.00  0.00     0.094 H 
ATOM     44  H   BDP d1178      14.881 -13.631  11.763  0.00  0.00     0.210 HD
ATOM     45  H   BDP d1178      10.904 -12.748  13.090  0.00  0.00     0.104 H 
ATOM     46  H   BDP d1178      13.177 -14.327  13.154  0.00  0.00     0.091 H 
ATOM     47  O1  NAG d1175      12.350  -8.575  -3.066  0.00  0.00    -0.369 OA
ATOM     48  O3  NAG d1175      12.543  -8.837   1.606  0.00  0.00    -0.348 OA
ATOM     49  O6  NAG d1175      10.962 -13.323  -2.261  0.00  0.00    -0.398 OA
ATOM     50  C7  NAG d1175      13.114  -6.344  -0.117  0.00  0.00     0.214 C 
ATOM     51  O4  NAG d1175      12.014 -11.775   1.369  0.00  0.00    -0.390 OA
ATOM     52  N2  NAG d1175      13.291  -7.494  -0.781  0.00  0.00    -0.349 N 
ATOM     53  C6  NAG d1175      10.700 -12.523  -1.140  0.00  0.00     0.043 C 
ATOM     54  C2  NAG d1175      12.409  -8.670  -0.714  0.00  0.00     0.087 C 
ATOM     55  C8  NAG d1175      11.753  -6.014   0.405  0.00  0.00    -0.003 C 
ATOM     56  O7  NAG d1175      14.049  -5.551   0.072  0.00  0.00    -0.274 OA
ATOM     57  C3  NAG d1175      12.730  -9.611   0.437  0.00  0.00     0.093 C 
ATOM     58  C4  NAG d1175      11.768 -10.805   0.350  0.00  0.00     0.089 C 
ATOM     59  C1  NAG d1175      12.552  -9.464  -2.004  0.00  0.00     0.151 C 
ATOM     60  C5  NAG d1175      11.777 -11.453  -1.039  0.00  0.00     0.089 C 
ATOM     61  O5  NAG d1175      11.579 -10.498  -2.065  0.00  0.00    -0.349 OA
ATOM     62  H   NAG d1175      13.013  -7.868  -3.026  0.00  0.00     0.212 HD
ATOM     63  H   NAG d1175      10.281 -14.008  -2.336  0.00  0.00     0.209 HD
ATOM     64  H   NAG d1175      12.004 -11.342   2.237  0.00  0.00     0.210 HD
ATOM     65  H   NAG d1175      14.081  -7.557  -1.365  0.00  0.00     0.163 HD
ATOM     66  H   NAG d1175      10.709 -13.127  -0.258  0.00  0.00     0.078 H 
ATOM     67  H   NAG d1175       9.738 -12.062  -1.238  0.00  0.00     0.078 H 
ATOM     68  H   NAG d1175      11.418  -8.295  -0.564  0.00  0.00     0.084 H 
ATOM     69  H   NAG d1175      11.074  -6.801   0.154  0.00  0.00     0.040 H 
ATOM     70  H   NAG d1175      11.415  -5.098  -0.034  0.00  0.00     0.040 H 
ATOM     71  H   NAG d1175      11.796  -5.905   1.469  0.00  0.00     0.040 H 
ATOM     72  H   NAG d1175      13.723 -10.009   0.423  0.00  0.00     0.091 H 
ATOM     73  H   NAG d1175      10.788 -10.408   0.517  0.00  0.00     0.091 H 
ATOM     74  H   NAG d1175      13.521  -9.916  -2.052  0.00  0.00     0.132 H 
ATOM     75  H   NAG d1175      12.740 -11.899  -1.169  0.00  0.00     0.090 H 
ATOM     76  C2  NAG d1181       1.710 -16.963  21.571  0.00  0.00     0.087 C 
ATOM     77  C8  NAG d1181       0.465 -14.300  21.641  0.00  0.00    -0.003 C 
ATOM     78  O5  NAG d1181       2.571 -18.786  20.178  0.00  0.00    -0.349 OA
ATOM     79  O4  NAG d1181      -0.488 -19.911  21.884  0.00  0.00    -0.390 OA
ATOM     80  C3  NAG d1181       0.851 -17.964  22.327  0.00  0.00     0.086 C 
ATOM     81  C1  NAG d1181       2.927 -17.636  20.933  0.00  0.00     0.154 C 
ATOM     82  N2  NAG d1181       2.142 -15.885  22.444  0.00  0.00    -0.349 N 
ATOM     83  C4  NAG d1181       0.451 -19.028  21.311  0.00  0.00     0.089 C 
ATOM     84  O6  NAG d1181       1.532 -20.692  18.637  0.00  0.00    -0.398 OA
ATOM     85  O3  NAG d1181      -0.273 -17.345  22.931  0.00  0.00    -0.391 OA
ATOM     86  C5  NAG d1181       1.748 -19.725  20.865  0.00  0.00     0.089 C 
ATOM     87  O7  NAG d1181       2.561 -13.672  22.531  0.00  0.00    -0.274 OA
ATOM     88  C7  NAG d1181       1.811 -14.601  22.239  0.00  0.00     0.214 C 
ATOM     89  C6  NAG d1181       1.534 -20.989  20.019  0.00  0.00     0.043 C 
ATOM     90  H   NAG d1181       1.103 -16.554  20.790  0.00  0.00     0.084 H 
ATOM     91  H   NAG d1181      -0.053 -15.217  21.450  0.00  0.00     0.040 H 
ATOM     92  H   NAG d1181       0.593 -13.765  20.723  0.00  0.00     0.040 H 
ATOM     93  H   NAG d1181      -0.104 -13.705  22.324  0.00  0.00     0.040 H 
ATOM     94  H   NAG d1181      -1.280 -19.416  22.144  0.00  0.00     0.210 HD
ATOM     95  H   NAG d1181       1.391 -18.402  23.140  0.00  0.00     0.090 H 
ATOM     96  H   NAG d1181       3.613 -18.003  21.667  0.00  0.00     0.132 H 
ATOM     97  H   NAG d1181       2.705 -16.107  23.221  0.00  0.00     0.163 HD
ATOM     98  H   NAG d1181      -0.031 -18.609  20.453  0.00  0.00     0.091 H 
ATOM     99  H   NAG d1181       1.395 -21.508  18.132  0.00  0.00     0.209 HD
ATOM    100  H   NAG d1181      -0.815 -16.922  22.247  0.00  0.00     0.210 HD
ATOM    101  H   NAG d1181       2.233 -20.072  21.754  0.00  0.00     0.090 H 
ATOM    102  H   NAG d1181       2.322 -21.682  20.224  0.00  0.00     0.078 H 
ATOM    103  H   NAG d1181       0.583 -21.406  20.274  0.00  0.00     0.078 H 
ATOM    104  C4  NAG d1179      10.418 -16.016  18.622  0.00  0.00     0.089 C 
ATOM    105  N2  NAG d1179       8.880 -14.675  15.396  0.00  0.00    -0.349 N 
ATOM    106  C6  NAG d1179      12.785 -15.490  19.350  0.00  0.00     0.043 C 
ATOM    107  O4  NAG d1179       9.927 -16.077  19.957  0.00  0.00    -0.390 OA
ATOM    108  O6  NAG d1179      13.361 -16.634  18.753  0.00  0.00    -0.398 OA
ATOM    109  C1  NAG d1179      11.063 -14.302  16.383  0.00  0.00     0.154 C 
ATOM    110  C5  NAG d1179      11.582 -15.032  18.542  0.00  0.00     0.089 C 
ATOM    111  O5  NAG d1179      12.020 -14.905  17.202  0.00  0.00    -0.349 OA
ATOM    112  C2  NAG d1179       9.865 -15.242  16.299  0.00  0.00     0.087 C 
ATOM    113  C8  NAG d1179       7.418 -14.646  13.507  0.00  0.00    -0.003 C 
ATOM    114  C7  NAG d1179       8.286 -15.405  14.454  0.00  0.00     0.214 C 
ATOM    115  C3  NAG d1179       9.299 -15.564  17.692  0.00  0.00     0.093 C 
ATOM    116  O3  NAG d1179       8.340 -16.606  17.596  0.00  0.00    -0.348 OA
ATOM    117  O7  NAG d1179       8.411 -16.621  14.352  0.00  0.00    -0.274 OA
ATOM    118  H   NAG d1179      10.758 -16.986  18.324  0.00  0.00     0.091 H 
ATOM    119  H   NAG d1179       8.644 -13.723  15.484  0.00  0.00     0.163 HD
ATOM    120  H   NAG d1179      12.474 -15.728  20.345  0.00  0.00     0.078 H 
ATOM    121  H   NAG d1179      13.510 -14.704  19.375  0.00  0.00     0.078 H 
ATOM    122  H   NAG d1179       9.618 -15.198  20.229  0.00  0.00     0.210 HD
ATOM    123  H   NAG d1179      12.706 -17.350  18.728  0.00  0.00     0.209 HD
ATOM    124  H   NAG d1179      10.837 -13.337  16.786  0.00  0.00     0.132 H 
ATOM    125  H   NAG d1179      11.216 -14.106  18.935  0.00  0.00     0.090 H 
ATOM    126  H   NAG d1179      10.175 -16.185  15.898  0.00  0.00     0.084 H 
ATOM    127  H   NAG d1179       7.439 -13.606  13.759  0.00  0.00     0.040 H 
ATOM    128  H   NAG d1179       6.414 -15.009  13.575  0.00  0.00     0.040 H 
ATOM    129  H   NAG d1179       7.779 -14.779  12.509  0.00  0.00     0.040 H 
ATOM    130  H   NAG d1179       8.840 -14.679  18.081  0.00  0.00     0.091 H 
ATOM    131  O5  BDP d1180       7.027 -16.204  19.449  0.00  0.00    -0.340 OA
ATOM    132  O6A BDP d1180       5.503 -14.684  22.015  0.00  0.00    -0.646 OA
ATOM    133  O2  BDP d1180       5.891 -16.922  16.080  0.00  0.00    -0.388 OA
ATOM    134  O3  BDP d1180       3.919 -18.269  17.797  0.00  0.00    -0.390 OA
ATOM    135  C5  BDP d1180       5.765 -15.887  19.994  0.00  0.00     0.152 C 
ATOM    136  C2  BDP d1180       6.031 -17.189  17.458  0.00  0.00     0.110 C 
ATOM    137  C3  BDP d1180       4.650 -17.095  18.101  0.00  0.00     0.092 C 
ATOM    138  C6  BDP d1180       5.923 -15.742  21.499  0.00  0.00     0.206 C 
ATOM    139  C1  BDP d1180       7.039 -16.199  18.043  0.00  0.00     0.160 C 
ATOM    140  C4  BDP d1180       4.763 -16.965  19.611  0.00  0.00     0.103 C 
ATOM    141  O6B BDP d1180       6.482 -16.680  22.125  0.00  0.00    -0.646 OA
ATOM    142  O4  BDP d1180       3.500 -16.611  20.106  0.00  0.00    -0.348 OA
ATOM    143  H   BDP d1180       6.759 -16.977  15.649  0.00  0.00     0.210 HD
ATOM    144  H   BDP d1180       3.842 -18.362  16.835  0.00  0.00     0.210 HD
ATOM    145  H   BDP d1180       5.391 -14.963  19.605  0.00  0.00     0.104 H 
ATOM    146  H   BDP d1180       6.409 -18.173  17.648  0.00  0.00     0.094 H 
ATOM    147  H   BDP d1180       4.153 -16.228  17.717  0.00  0.00     0.091 H 
ATOM    148  H   BDP d1180       6.785 -15.211  17.718  0.00  0.00     0.133 H 
ATOM    149  H   BDP d1180       5.097 -17.894  20.023  0.00  0.00     0.092 H 
ATOM    150  C3  BDP d1176      14.017  -8.307   5.055  0.00  0.00     0.092 C 
ATOM    151  O4  BDP d1176      13.830  -9.867   6.960  0.00  0.00    -0.348 OA
ATOM    152  O3  BDP d1176      14.017  -7.112   5.828  0.00  0.00    -0.390 OA
ATOM    153  O5  BDP d1176      12.577 -10.220   3.492  0.00  0.00    -0.340 OA
ATOM    154  O2  BDP d1176      14.321  -7.091   2.999  0.00  0.00    -0.388 OA
ATOM    155  C1  BDP d1176      13.289  -9.230   2.779  0.00  0.00     0.160 C 
ATOM    156  O6B BDP d1176      12.692 -12.798   5.508  0.00  0.00    -0.646 OA
ATOM    157  C5  BDP d1176      13.139 -10.599   4.752  0.00  0.00     0.152 C 
ATOM    158  O6A BDP d1176      10.978 -11.381   5.399  0.00  0.00    -0.646 OA
ATOM    159  C6  BDP d1176      12.199 -11.664   5.268  0.00  0.00     0.206 C 
ATOM    160  C4  BDP d1176      13.235  -9.437   5.745  0.00  0.00     0.103 C 
ATOM    161  C2  BDP d1176      13.453  -7.993   3.664  0.00  0.00     0.110 C 
ATOM    162  H   BDP d1176      15.023  -8.661   4.958  0.00  0.00     0.091 H 
ATOM    163  H   BDP d1176      13.108  -6.787   5.919  0.00  0.00     0.210 HD
ATOM    164  H   BDP d1176      14.440  -6.297   3.543  0.00  0.00     0.210 HD
ATOM    165  H   BDP d1176      14.242  -9.627   2.497  0.00  0.00     0.133 H 
ATOM    166  H   BDP d1176      14.148 -10.936   4.637  0.00  0.00     0.104 H 
ATOM    167  H   BDP d1176      12.266  -9.071   6.015  0.00  0.00     0.092 H 
ATOM    168  H   BDP d1176      12.481  -7.573   3.819  0.00  0.00     0.094 H 
ENDROOT
TORSDOF 43
ENDMDL
MODEL 49
REMARK VINA RESULT:      -5.8      4.929      6.825
REMARK  0 active torsions:
REMARK  status: ('A' for Active; 'I' for Inactive)
REMARK       I    between atoms: C3_1  and  O3_90 
REMARK       I    between atoms: O1_4  and  C1_76 
REMARK       I    between atoms: C2_5  and  N2_21 
REMARK       I    between atoms: C8_6  and  C7_66 
REMARK       I    between atoms: C4_7  and  O4_24 
REMARK       I    between atoms: N2_9  and  C2_60 
REMARK       I    between atoms: N2_9  and  C7_69 
REMARK       I    between atoms: O4_12  and  C4_26 
REMARK       I    between atoms: O3_13  and  C3_65 
REMARK       I    between atoms: O3_13  and  C1_61 
REMARK       I    between atoms: C3_14  and  O3_35 
REMARK       I    between atoms: C6_15  and  C5_53 
REMARK       I    between atoms: C6_15  and  O6_46 
REMARK       I    between atoms: O6_16  and  C6_54 
REMARK       I    between atoms: C4_17  and  O4_49 
REMARK       I    between atoms: O4_18  and  C4_28 
REMARK       I    between atoms: O4_18  and  C1_47 
REMARK       I    between atoms: C3_19  and  O3_43 
REMARK       I    between atoms: C1_20  and  O4_91 
REMARK       I    between atoms: N2_21  and  C7_66 
REMARK       I    between atoms: O3_22  and  C3_82 
REMARK       I    between atoms: C7_23  and  C8_62 
REMARK       I    between atoms: C7_23  and  N2_51 
REMARK       I    between atoms: C2_25  and  N2_41 
REMARK       I    between atoms: C1_27  and  O3_90 
REMARK       I    between atoms: O6_29  and  C6_74 
REMARK       I    between atoms: O2_30  and  C2_37 
REMARK       I    between atoms: C2_31  and  O2_42 
REMARK       I    between atoms: O3_32  and  C3_45 
REMARK       I    between atoms: O4_33  and  C4_73 
REMARK       I    between atoms: O4_34  and  C4_84 
REMARK       I    between atoms: O4_34  and  C1_85 
REMARK       I    between atoms: C5_36  and  C6_48 
REMARK       I    between atoms: C6_38  and  C5_40 
REMARK       I    between atoms: C6_38  and  O6_89 
REMARK       I    between atoms: N2_41  and  C7_50 
REMARK       I    between atoms: C5_44  and  C6_74 
REMARK       I    between atoms: C7_50  and  C8_75 
REMARK       I    between atoms: N2_51  and  C2_58 
REMARK       I    between atoms: C1_52  and  O3_87 
REMARK       I    between atoms: C6_54  and  C5_86 
REMARK       I    between atoms: O2_59  and  C2_93 
REMARK       I    between atoms: C8_64  and  C7_69 
REMARK       I    between atoms: C6_70  and  C5_80 
REMARK       I    between atoms: C4_72  and  O4_91 
REMARK       I    between atoms: C5_77  and  C6_79 
REMARK       I    between atoms: C3_83  and  O3_87 
ROOT
ATOM      1  C3  NAG d1177      14.910 -17.828   9.348  0.00  0.00     0.093 C 
ATOM      2  O7  NAG d1177      16.867 -14.750  10.665  0.00  0.00    -0.274 OA
ATOM      3  C4  NAG d1177      15.141 -19.344   9.480  0.00  0.00     0.089 C 
ATOM      4  C2  NAG d1177      15.205 -17.131  10.666  0.00  0.00     0.087 C 
ATOM      5  C6  NAG d1177      14.753 -21.393  10.949  0.00  0.00     0.043 C 
ATOM      6  C5  NAG d1177      14.442 -19.907  10.707  0.00  0.00     0.089 C 
ATOM      7  N2  NAG d1177      14.770 -15.722  10.657  0.00  0.00    -0.349 N 
ATOM      8  O4  NAG d1177      14.683 -20.019   8.325  0.00  0.00    -0.390 OA
ATOM      9  C7  NAG d1177      15.596 -14.673  10.642  0.00  0.00     0.214 C 
ATOM     10  O5  NAG d1177      14.835 -19.180  11.865  0.00  0.00    -0.349 OA
ATOM     11  C8  NAG d1177      14.853 -13.363  10.659  0.00  0.00    -0.003 C 
ATOM     12  C1  NAG d1177      14.476 -17.819  11.820  0.00  0.00     0.154 C 
ATOM     13  O6  NAG d1177      16.133 -21.588  11.208  0.00  0.00    -0.398 OA
ATOM     14  O3  NAG d1177      15.797 -17.299   8.401  0.00  0.00    -0.348 OA
ATOM     15  H   NAG d1177      13.892 -17.673   9.060  0.00  0.00     0.091 H 
ATOM     16  H   NAG d1177      16.195 -19.498   9.587  0.00  0.00     0.091 H 
ATOM     17  H   NAG d1177      16.266 -17.183  10.797  0.00  0.00     0.084 H 
ATOM     18  H   NAG d1177      14.477 -21.954  10.081  0.00  0.00     0.078 H 
ATOM     19  H   NAG d1177      14.197 -21.723  11.801  0.00  0.00     0.078 H 
ATOM     20  H   NAG d1177      13.393 -19.812  10.524  0.00  0.00     0.090 H 
ATOM     21  H   NAG d1177      13.802 -15.542  10.661  0.00  0.00     0.163 HD
ATOM     22  H   NAG d1177      13.728 -19.880   8.226  0.00  0.00     0.210 HD
ATOM     23  H   NAG d1177      15.555 -12.555  10.646  0.00  0.00     0.040 H 
ATOM     24  H   NAG d1177      14.256 -13.303  11.545  0.00  0.00     0.040 H 
ATOM     25  H   NAG d1177      14.221 -13.300   9.798  0.00  0.00     0.040 H 
ATOM     26  H   NAG d1177      13.418 -17.758  11.670  0.00  0.00     0.132 H 
ATOM     27  H   NAG d1177      16.650 -21.293  10.442  0.00  0.00     0.209 HD
ATOM     28  O6A BDP d1178      13.398 -18.902   4.582  0.00  0.00    -0.646 OA
ATOM     29  O4  BDP d1178      13.800 -14.962   3.909  0.00  0.00    -0.348 OA
ATOM     30  O3  BDP d1178      16.533 -14.578   4.606  0.00  0.00    -0.390 OA
ATOM     31  C1  BDP d1178      15.127 -16.563   7.368  0.00  0.00     0.160 C 
ATOM     32  C4  BDP d1178      14.545 -15.887   4.666  0.00  0.00     0.103 C 
ATOM     33  C2  BDP d1178      16.199 -15.889   6.539  0.00  0.00     0.110 C 
ATOM     34  O2  BDP d1178      17.004 -15.070   7.347  0.00  0.00    -0.388 OA
ATOM     35  O6B BDP d1178      11.778 -17.426   4.158  0.00  0.00    -0.646 OA
ATOM     36  O5  BDP d1178      14.365 -17.407   6.525  0.00  0.00    -0.340 OA
ATOM     37  C6  BDP d1178      12.871 -17.759   4.695  0.00  0.00     0.206 C 
ATOM     38  C5  BDP d1178      13.622 -16.721   5.539  0.00  0.00     0.152 C 
ATOM     39  C3  BDP d1178      15.532 -15.040   5.494  0.00  0.00     0.092 C 
ATOM     40  H   BDP d1178      16.126 -14.025   3.919  0.00  0.00     0.210 HD
ATOM     41  H   BDP d1178      14.454 -15.861   7.815  0.00  0.00     0.133 H 
ATOM     42  H   BDP d1178      15.075 -16.588   4.054  0.00  0.00     0.092 H 
ATOM     43  H   BDP d1178      16.815 -16.636   6.083  0.00  0.00     0.094 H 
ATOM     44  H   BDP d1178      16.454 -14.389   7.766  0.00  0.00     0.210 HD
ATOM     45  H   BDP d1178      12.923 -16.055   6.001  0.00  0.00     0.104 H 
ATOM     46  H   BDP d1178      15.010 -14.236   5.972  0.00  0.00     0.091 H 
ATOM     47  O1  NAG d1175      11.445 -16.483  22.678  0.00  0.00    -0.369 OA
ATOM     48  O3  NAG d1175      12.554 -17.192  18.184  0.00  0.00    -0.348 OA
ATOM     49  O6  NAG d1175       9.826 -12.241  20.556  0.00  0.00    -0.398 OA
ATOM     50  C7  NAG d1175      12.987 -19.165  20.514  0.00  0.00     0.214 C 
ATOM     51  O4  NAG d1175      11.725 -14.368  17.632  0.00  0.00    -0.390 OA
ATOM     52  N2  NAG d1175      12.921 -17.888  20.912  0.00  0.00    -0.349 N 
ATOM     53  C6  NAG d1175       9.869 -13.288  19.624  0.00  0.00     0.043 C 
ATOM     54  C2  NAG d1175      11.969 -16.881  20.418  0.00  0.00     0.087 C 
ATOM     55  C8  NAG d1175      11.795 -19.777  19.852  0.00  0.00    -0.003 C 
ATOM     56  O7  NAG d1175      14.009 -19.848  20.684  0.00  0.00    -0.274 OA
ATOM     57  C3  NAG d1175      12.429 -16.171  19.154  0.00  0.00     0.093 C 
ATOM     58  C4  NAG d1175      11.366 -15.125  18.789  0.00  0.00     0.089 C 
ATOM     59  C1  NAG d1175      11.776 -15.820  21.491  0.00  0.00     0.151 C 
ATOM     60  C5  NAG d1175      11.036 -14.201  19.968  0.00  0.00     0.089 C 
ATOM     61  O5  NAG d1175      10.722 -14.935  21.136  0.00  0.00    -0.349 OA
ATOM     62  H   NAG d1175      12.163 -17.087  22.922  0.00  0.00     0.212 HD
ATOM     63  H   NAG d1175       9.084 -11.653  20.347  0.00  0.00     0.209 HD
ATOM     64  H   NAG d1175      11.929 -14.972  16.901  0.00  0.00     0.210 HD
ATOM     65  H   NAG d1175      13.568 -17.597  21.595  0.00  0.00     0.163 HD
ATOM     66  H   NAG d1175      10.001 -12.889  18.641  0.00  0.00     0.078 H 
ATOM     67  H   NAG d1175       8.953 -13.841  19.656  0.00  0.00     0.078 H 
ATOM     68  H   NAG d1175      11.067 -17.408  20.187  0.00  0.00     0.084 H 
ATOM     69  H   NAG d1175      11.010 -19.052  19.789  0.00  0.00     0.040 H 
ATOM     70  H   NAG d1175      11.459 -20.616  20.426  0.00  0.00     0.040 H 
ATOM     71  H   NAG d1175      12.061 -20.102  18.868  0.00  0.00     0.040 H 
ATOM     72  H   NAG d1175      13.359 -15.650  19.250  0.00  0.00     0.091 H 
ATOM     73  H   NAG d1175      10.480 -15.674  18.549  0.00  0.00     0.091 H 
ATOM     74  H   NAG d1175      12.670 -15.243  21.603  0.00  0.00     0.132 H 
ATOM     75  H   NAG d1175      11.909 -13.614  20.158  0.00  0.00     0.090 H 
ATOM     76  C2  NAG d1181       5.291 -14.995  -4.717  0.00  0.00     0.087 C 
ATOM     77  C8  NAG d1181       4.331 -17.754  -4.382  0.00  0.00    -0.003 C 
ATOM     78  O5  NAG d1181       5.686 -12.821  -3.658  0.00  0.00    -0.349 OA
ATOM     79  O4  NAG d1181       2.946 -12.500  -6.092  0.00  0.00    -0.390 OA
ATOM     80  C3  NAG d1181       4.516 -14.300  -5.824  0.00  0.00     0.086 C 
ATOM     81  C1  NAG d1181       6.288 -14.046  -4.049  0.00  0.00     0.154 C 
ATOM     82  N2  NAG d1181       5.987 -16.166  -5.223  0.00  0.00    -0.349 N 
ATOM     83  C4  NAG d1181       3.825 -13.109  -5.172  0.00  0.00     0.089 C 
ATOM     84  O6  NAG d1181       4.189 -10.788  -2.813  0.00  0.00    -0.398 OA
ATOM     85  O3  NAG d1181       3.598 -15.177  -6.456  0.00  0.00    -0.391 OA
ATOM     86  C5  NAG d1181       4.937 -12.166  -4.679  0.00  0.00     0.089 C 
ATOM     87  O7  NAG d1181       6.612 -18.271  -4.716  0.00  0.00    -0.274 OA
ATOM     88  C7  NAG d1181       5.738 -17.410  -4.786  0.00  0.00     0.214 C 
ATOM     89  C6  NAG d1181       4.444 -10.792  -4.202  0.00  0.00     0.043 C 
ATOM     90  H   NAG d1181       4.579 -15.306  -3.981  0.00  0.00     0.084 H 
ATOM     91  H   NAG d1181       3.705 -16.895  -4.504  0.00  0.00     0.040 H 
ATOM     92  H   NAG d1181       4.320 -18.061  -3.356  0.00  0.00     0.040 H 
ATOM     93  H   NAG d1181       3.969 -18.551  -4.997  0.00  0.00     0.040 H 
ATOM     94  H   NAG d1181       2.270 -13.140  -6.365  0.00  0.00     0.210 HD
ATOM     95  H   NAG d1181       5.168 -13.976  -6.609  0.00  0.00     0.090 H 
ATOM     96  H   NAG d1181       7.073 -13.755  -4.715  0.00  0.00     0.132 H 
ATOM     97  H   NAG d1181       6.673 -16.041  -5.919  0.00  0.00     0.163 HD
ATOM     98  H   NAG d1181       3.219 -13.397  -4.339  0.00  0.00     0.091 H 
ATOM     99  H   NAG d1181       3.880  -9.909  -2.544  0.00  0.00     0.209 HD
ATOM    100  H   NAG d1181       2.970 -15.514  -5.799  0.00  0.00     0.210 HD
ATOM    101  H   NAG d1181       5.559 -11.954  -5.524  0.00  0.00     0.090 H 
ATOM    102  H   NAG d1181       5.191 -10.059  -4.422  0.00  0.00     0.078 H 
ATOM    103  H   NAG d1181       3.530 -10.569  -4.712  0.00  0.00     0.078 H 
ATOM    104  C4  NAG d1179      13.273 -14.127  -0.137  0.00  0.00     0.089 C 
ATOM    105  N2  NAG d1179      11.242 -14.948   2.988  0.00  0.00    -0.349 N 
ATOM    106  C6  NAG d1179      15.776 -14.475  -0.293  0.00  0.00     0.043 C 
ATOM    107  O4  NAG d1179      13.059 -14.416  -1.515  0.00  0.00    -0.390 OA
ATOM    108  O6  NAG d1179      16.114 -13.163   0.113  0.00  0.00    -0.398 OA
ATOM    109  C1  NAG d1179      13.604 -15.226   2.517  0.00  0.00     0.154 C 
ATOM    110  C5  NAG d1179      14.481 -14.907   0.374  0.00  0.00     0.089 C 
ATOM    111  O5  NAG d1179      14.648 -14.688   1.763  0.00  0.00    -0.349 OA
ATOM    112  C2  NAG d1179      12.334 -14.457   2.167  0.00  0.00     0.087 C 
ATOM    113  C8  NAG d1179       9.437 -14.770   4.543  0.00  0.00    -0.003 C 
ATOM    114  C7  NAG d1179      10.406 -14.121   3.614  0.00  0.00     0.214 C 
ATOM    115  C3  NAG d1179      12.035 -14.517   0.660  0.00  0.00     0.093 C 
ATOM    116  O3  NAG d1179      10.986 -13.615   0.339  0.00  0.00    -0.348 OA
ATOM    117  O7  NAG d1179      10.399 -12.905   3.450  0.00  0.00    -0.274 OA
ATOM    118  H   NAG d1179      13.457 -13.079  -0.019  0.00  0.00     0.091 H 
ATOM    119  H   NAG d1179      11.115 -15.919   3.085  0.00  0.00     0.163 HD
ATOM    120  H   NAG d1179      15.652 -14.496  -1.355  0.00  0.00     0.078 H 
ATOM    121  H   NAG d1179      16.559 -15.144  -0.005  0.00  0.00     0.078 H 
ATOM    122  H   NAG d1179      12.891 -15.365  -1.625  0.00  0.00     0.210 HD
ATOM    123  H   NAG d1179      15.406 -12.553  -0.146  0.00  0.00     0.209 HD
ATOM    124  H   NAG d1179      13.552 -16.276   2.318  0.00  0.00     0.132 H 
ATOM    125  H   NAG d1179      14.287 -15.935   0.150  0.00  0.00     0.090 H 
ATOM    126  H   NAG d1179      12.470 -13.418   2.385  0.00  0.00     0.084 H 
ATOM    127  H   NAG d1179       9.603 -15.828   4.549  0.00  0.00     0.040 H 
ATOM    128  H   NAG d1179       8.439 -14.567   4.216  0.00  0.00     0.040 H 
ATOM    129  H   NAG d1179       9.575 -14.383   5.531  0.00  0.00     0.040 H 
ATOM    130  H   NAG d1179      11.746 -15.517   0.413  0.00  0.00     0.091 H 
ATOM    131  O5  BDP d1180      10.117 -14.572  -1.571  0.00  0.00    -0.340 OA
ATOM    132  O6A BDP d1180       9.285 -16.790  -3.939  0.00  0.00    -0.646 OA
ATOM    133  O2  BDP d1180       8.263 -13.315   1.283  0.00  0.00    -0.388 OA
ATOM    134  O3  BDP d1180       6.565 -12.637  -1.023  0.00  0.00    -0.390 OA
ATOM    135  C5  BDP d1180       9.024 -15.162  -2.241  0.00  0.00     0.152 C 
ATOM    136  C2  BDP d1180       8.654 -13.329  -0.073  0.00  0.00     0.110 C 
ATOM    137  C3  BDP d1180       7.446 -13.741  -0.910  0.00  0.00     0.092 C 
ATOM    138  C6  BDP d1180       9.496 -15.601  -3.619  0.00  0.00     0.206 C 
ATOM    139  C1  BDP d1180       9.844 -14.277  -0.223  0.00  0.00     0.160 C 
ATOM    140  C4  BDP d1180       7.872 -14.171  -2.303  0.00  0.00     0.103 C 
ATOM    141  O6B BDP d1180      10.083 -14.750  -4.337  0.00  0.00    -0.646 OA
ATOM    142  O4  BDP d1180       6.773 -14.787  -2.917  0.00  0.00    -0.348 OA
ATOM    143  H   BDP d1180       9.017 -13.055   1.835  0.00  0.00     0.210 HD
ATOM    144  H   BDP d1180       6.287 -12.354  -0.137  0.00  0.00     0.210 HD
ATOM    145  H   BDP d1180       8.664 -16.024  -1.720  0.00  0.00     0.104 H 
ATOM    146  H   BDP d1180       8.972 -12.366  -0.417  0.00  0.00     0.094 H 
ATOM    147  H   BDP d1180       6.962 -14.565  -0.428  0.00  0.00     0.091 H 
ATOM    148  H   BDP d1180       9.620 -15.199   0.273  0.00  0.00     0.133 H 
ATOM    149  H   BDP d1180       8.198 -13.314  -2.855  0.00  0.00     0.092 H 
ATOM    150  C3  BDP d1176      14.736 -18.239  15.270  0.00  0.00     0.092 C 
ATOM    151  O4  BDP d1176      14.798 -17.157  13.052  0.00  0.00    -0.348 OA
ATOM    152  O3  BDP d1176      15.000 -19.559  14.810  0.00  0.00    -0.390 OA
ATOM    153  O5  BDP d1176      12.843 -16.247  16.064  0.00  0.00    -0.340 OA
ATOM    154  O2  BDP d1176      14.726 -18.941  17.573  0.00  0.00    -0.388 OA
ATOM    155  C1  BDP d1176      13.482 -16.961  17.102  0.00  0.00     0.160 C 
ATOM    156  O6B BDP d1176      13.130 -14.163  13.555  0.00  0.00    -0.646 OA
ATOM    157  C5  BDP d1176      13.612 -16.073  14.870  0.00  0.00     0.152 C 
ATOM    158  O6A BDP d1176      11.565 -15.741  13.687  0.00  0.00    -0.646 OA
ATOM    159  C6  BDP d1176      12.703 -15.277  13.962  0.00  0.00     0.206 C 
ATOM    160  C4  BDP d1176      14.011 -17.395  14.208  0.00  0.00     0.103 C 
ATOM    161  C2  BDP d1176      13.933 -18.324  16.574  0.00  0.00     0.110 C 
ATOM    162  H   BDP d1176      15.665 -17.741  15.458  0.00  0.00     0.091 H 
ATOM    163  H   BDP d1176      14.161 -20.015  14.638  0.00  0.00     0.210 HD
ATOM    164  H   BDP d1176      15.024 -19.809  17.260  0.00  0.00     0.210 HD
ATOM    165  H   BDP d1176      14.319 -16.390  17.448  0.00  0.00     0.133 H 
ATOM    166  H   BDP d1176      14.542 -15.587  15.079  0.00  0.00     0.104 H 
ATOM    167  H   BDP d1176      13.154 -17.936  13.865  0.00  0.00     0.092 H 
ATOM    168  H   BDP d1176      13.054 -18.893  16.352  0.00  0.00     0.094 H 
ENDROOT
TORSDOF 43
ENDMDL
MODEL 50
REMARK VINA RESULT:      -5.7      5.714      7.988
REMARK  0 active torsions:
REMARK  status: ('A' for Active; 'I' for Inactive)
REMARK       I    between atoms: C3_1  and  O3_90 
REMARK       I    between atoms: O1_4  and  C1_76 
REMARK       I    between atoms: C2_5  and  N2_21 
REMARK       I    between atoms: C8_6  and  C7_66 
REMARK       I    between atoms: C4_7  and  O4_24 
REMARK       I    between atoms: N2_9  and  C2_60 
REMARK       I    between atoms: N2_9  and  C7_69 
REMARK       I    between atoms: O4_12  and  C4_26 
REMARK       I    between atoms: O3_13  and  C3_65 
REMARK       I    between atoms: O3_13  and  C1_61 
REMARK       I    between atoms: C3_14  and  O3_35 
REMARK       I    between atoms: C6_15  and  C5_53 
REMARK       I    between atoms: C6_15  and  O6_46 
REMARK       I    between atoms: O6_16  and  C6_54 
REMARK       I    between atoms: C4_17  and  O4_49 
REMARK       I    between atoms: O4_18  and  C4_28 
REMARK       I    between atoms: O4_18  and  C1_47 
REMARK       I    between atoms: C3_19  and  O3_43 
REMARK       I    between atoms: C1_20  and  O4_91 
REMARK       I    between atoms: N2_21  and  C7_66 
REMARK       I    between atoms: O3_22  and  C3_82 
REMARK       I    between atoms: C7_23  and  C8_62 
REMARK       I    between atoms: C7_23  and  N2_51 
REMARK       I    between atoms: C2_25  and  N2_41 
REMARK       I    between atoms: C1_27  and  O3_90 
REMARK       I    between atoms: O6_29  and  C6_74 
REMARK       I    between atoms: O2_30  and  C2_37 
REMARK       I    between atoms: C2_31  and  O2_42 
REMARK       I    between atoms: O3_32  and  C3_45 
REMARK       I    between atoms: O4_33  and  C4_73 
REMARK       I    between atoms: O4_34  and  C4_84 
REMARK       I    between atoms: O4_34  and  C1_85 
REMARK       I    between atoms: C5_36  and  C6_48 
REMARK       I    between atoms: C6_38  and  C5_40 
REMARK       I    between atoms: C6_38  and  O6_89 
REMARK       I    between atoms: N2_41  and  C7_50 
REMARK       I    between atoms: C5_44  and  C6_74 
REMARK       I    between atoms: C7_50  and  C8_75 
REMARK       I    between atoms: N2_51  and  C2_58 
REMARK       I    between atoms: C1_52  and  O3_87 
REMARK       I    between atoms: C6_54  and  C5_86 
REMARK       I    between atoms: O2_59  and  C2_93 
REMARK       I    between atoms: C8_64  and  C7_69 
REMARK       I    between atoms: C6_70  and  C5_80 
REMARK       I    between atoms: C4_72  and  O4_91 
REMARK       I    between atoms: C5_77  and  C6_79 
REMARK       I    between atoms: C3_83  and  O3_87 
ROOT
ATOM      1  C3  NAG d1177      13.928 -18.901   8.100  0.00  0.00     0.093 C 
ATOM      2  O7  NAG d1177      17.106 -16.707   8.448  0.00  0.00    -0.274 OA
ATOM      3  C4  NAG d1177      13.574 -20.311   8.605  0.00  0.00     0.089 C 
ATOM      4  C2  NAG d1177      14.678 -18.127   9.171  0.00  0.00     0.087 C 
ATOM      5  C6  NAG d1177      12.670 -21.654  10.577  0.00  0.00     0.043 C 
ATOM      6  C5  NAG d1177      12.921 -20.260   9.978  0.00  0.00     0.089 C 
ATOM      7  N2  NAG d1177      14.825 -16.702   8.823  0.00  0.00    -0.349 N 
ATOM      8  O4  NAG d1177      12.710 -20.963   7.696  0.00  0.00    -0.390 OA
ATOM      9  C7  NAG d1177      15.978 -16.118   8.485  0.00  0.00     0.214 C 
ATOM     10  O5  NAG d1177      13.746 -19.533  10.881  0.00  0.00    -0.349 OA
ATOM     11  C8  NAG d1177      15.811 -14.646   8.208  0.00  0.00    -0.003 C 
ATOM     12  C1  NAG d1177      13.938 -18.190  10.506  0.00  0.00     0.154 C 
ATOM     13  O6  NAG d1177      13.889 -22.342  10.791  0.00  0.00    -0.398 OA
ATOM     14  O3  NAG d1177      14.783 -19.000   6.994  0.00  0.00    -0.348 OA
ATOM     15  H   NAG d1177      13.016 -18.403   7.844  0.00  0.00     0.091 H 
ATOM     16  H   NAG d1177      14.488 -20.861   8.684  0.00  0.00     0.091 H 
ATOM     17  H   NAG d1177      15.643 -18.584   9.245  0.00  0.00     0.084 H 
ATOM     18  H   NAG d1177      12.061 -22.219   9.903  0.00  0.00     0.078 H 
ATOM     19  H   NAG d1177      12.175 -21.535  11.518  0.00  0.00     0.078 H 
ATOM     20  H   NAG d1177      11.975 -19.781   9.842  0.00  0.00     0.090 H 
ATOM     21  H   NAG d1177      14.016 -16.141   8.840  0.00  0.00     0.163 HD
ATOM     22  H   NAG d1177      11.880 -20.466   7.624  0.00  0.00     0.210 HD
ATOM     23  H   NAG d1177      16.758 -14.224   7.943  0.00  0.00     0.040 H 
ATOM     24  H   NAG d1177      15.436 -14.159   9.083  0.00  0.00     0.040 H 
ATOM     25  H   NAG d1177      15.121 -14.511   7.401  0.00  0.00     0.040 H 
ATOM     26  H   NAG d1177      12.976 -17.730  10.411  0.00  0.00     0.132 H 
ATOM     27  H   NAG d1177      14.349 -22.457   9.944  0.00  0.00     0.209 HD
ATOM     28  O6A BDP d1178      11.366 -20.235   3.878  0.00  0.00    -0.646 OA
ATOM     29  O4  BDP d1178      13.143 -17.055   2.183  0.00  0.00    -0.348 OA
ATOM     30  O3  BDP d1178      15.886 -17.699   2.585  0.00  0.00    -0.390 OA
ATOM     31  C1  BDP d1178      14.291 -18.289   5.850  0.00  0.00     0.160 C 
ATOM     32  C4  BDP d1178      13.585 -18.022   3.106  0.00  0.00     0.103 C 
ATOM     33  C2  BDP d1178      15.390 -18.312   4.809  0.00  0.00     0.110 C 
ATOM     34  O2  BDP d1178      16.568 -17.749   5.326  0.00  0.00    -0.388 OA
ATOM     35  O6B BDP d1178      10.396 -18.348   3.187  0.00  0.00    -0.646 OA
ATOM     36  O5  BDP d1178      13.136 -18.900   5.304  0.00  0.00    -0.340 OA
ATOM     37  C6  BDP d1178      11.347 -18.981   3.724  0.00  0.00     0.206 C 
ATOM     38  C5  BDP d1178      12.566 -18.193   4.221  0.00  0.00     0.152 C 
ATOM     39  C3  BDP d1178      14.942 -17.505   3.623  0.00  0.00     0.092 C 
ATOM     40  H   BDP d1178      15.618 -17.187   1.806  0.00  0.00     0.210 HD
ATOM     41  H   BDP d1178      14.024 -17.295   6.140  0.00  0.00     0.133 H 
ATOM     42  H   BDP d1178      13.696 -18.992   2.666  0.00  0.00     0.092 H 
ATOM     43  H   BDP d1178      15.587 -19.325   4.525  0.00  0.00     0.094 H 
ATOM     44  H   BDP d1178      16.400 -16.830   5.587  0.00  0.00     0.210 HD
ATOM     45  H   BDP d1178      12.264 -17.217   4.537  0.00  0.00     0.104 H 
ATOM     46  H   BDP d1178      14.856 -16.477   3.908  0.00  0.00     0.091 H 
ATOM     47  O1  NAG d1175      13.462 -13.454  20.812  0.00  0.00    -0.369 OA
ATOM     48  O3  NAG d1175      13.466 -15.492  16.597  0.00  0.00    -0.348 OA
ATOM     49  O6  NAG d1175      13.284  -9.477  17.767  0.00  0.00    -0.398 OA
ATOM     50  C7  NAG d1175      13.477 -16.925  19.327  0.00  0.00     0.214 C 
ATOM     51  O4  NAG d1175      13.713 -12.765  15.383  0.00  0.00    -0.390 OA
ATOM     52  N2  NAG d1175      13.974 -15.683  19.383  0.00  0.00    -0.349 N 
ATOM     53  C6  NAG d1175      12.768 -10.619  17.138  0.00  0.00     0.043 C 
ATOM     54  C2  NAG d1175      13.417 -14.502  18.705  0.00  0.00     0.087 C 
ATOM     55  C8  NAG d1175      12.050 -17.113  18.921  0.00  0.00    -0.003 C 
ATOM     56  O7  NAG d1175      14.168 -17.917  19.604  0.00  0.00    -0.274 OA
ATOM     57  C3  NAG d1175      13.905 -14.331  17.274  0.00  0.00     0.093 C 
ATOM     58  C4  NAG d1175      13.284 -13.042  16.717  0.00  0.00     0.089 C 
ATOM     59  C1  NAG d1175      13.826 -13.255  19.476  0.00  0.00     0.151 C 
ATOM     60  C5  NAG d1175      13.531 -11.838  17.634  0.00  0.00     0.089 C 
ATOM     61  O5  NAG d1175      13.152 -12.111  18.970  0.00  0.00    -0.349 OA
ATOM     62  H   NAG d1175      13.921 -14.234  21.160  0.00  0.00     0.212 HD
ATOM     63  H   NAG d1175      12.803  -8.694  17.459  0.00  0.00     0.209 HD
ATOM     64  H   NAG d1175      13.548 -13.540  14.822  0.00  0.00     0.210 HD
ATOM     65  H   NAG d1175      14.784 -15.548  19.926  0.00  0.00     0.163 HD
ATOM     66  H   NAG d1175      12.882 -10.529  16.079  0.00  0.00     0.078 H 
ATOM     67  H   NAG d1175      11.727 -10.724  17.369  0.00  0.00     0.078 H 
ATOM     68  H   NAG d1175      12.357 -14.644  18.675  0.00  0.00     0.084 H 
ATOM     69  H   NAG d1175      11.608 -16.160  18.721  0.00  0.00     0.040 H 
ATOM     70  H   NAG d1175      11.515 -17.596  19.713  0.00  0.00     0.040 H 
ATOM     71  H   NAG d1175      12.007 -17.720  18.041  0.00  0.00     0.040 H 
ATOM     72  H   NAG d1175      14.966 -14.234  17.174  0.00  0.00     0.091 H 
ATOM     73  H   NAG d1175      12.228 -13.213  16.683  0.00  0.00     0.091 H 
ATOM     74  H   NAG d1175      14.879 -13.091  19.379  0.00  0.00     0.132 H 
ATOM     75  H   NAG d1175      14.582 -11.639  17.610  0.00  0.00     0.090 H 
ATOM     76  C2  NAG d1181       4.002 -15.389  -5.594  0.00  0.00     0.087 C 
ATOM     77  C8  NAG d1181       2.121 -17.363  -4.497  0.00  0.00    -0.003 C 
ATOM     78  O5  NAG d1181       5.371 -13.403  -5.162  0.00  0.00    -0.349 OA
ATOM     79  O4  NAG d1181       2.611 -12.500  -7.421  0.00  0.00    -0.390 OA
ATOM     80  C3  NAG d1181       3.387 -14.688  -6.794  0.00  0.00     0.086 C 
ATOM     81  C1  NAG d1181       5.382 -14.820  -5.259  0.00  0.00     0.154 C 
ATOM     82  N2  NAG d1181       4.100 -16.820  -5.822  0.00  0.00    -0.349 N 
ATOM     83  C4  NAG d1181       3.325 -13.208  -6.432  0.00  0.00     0.089 C 
ATOM     84  O6  NAG d1181       4.934 -10.805  -4.782  0.00  0.00    -0.398 OA
ATOM     85  O3  NAG d1181       2.112 -15.218  -7.118  0.00  0.00    -0.391 OA
ATOM     86  C5  NAG d1181       4.779 -12.730  -6.270  0.00  0.00     0.089 C 
ATOM     87  O7  NAG d1181       3.938 -18.836  -4.826  0.00  0.00    -0.274 OA
ATOM     88  C7  NAG d1181       3.465 -17.726  -5.063  0.00  0.00     0.214 C 
ATOM     89  C6  NAG d1181       4.938 -11.208  -6.137  0.00  0.00     0.043 C 
ATOM     90  H   NAG d1181       3.355 -15.214  -4.761  0.00  0.00     0.084 H 
ATOM     91  H   NAG d1181       1.863 -16.369  -4.798  0.00  0.00     0.040 H 
ATOM     92  H   NAG d1181       2.158 -17.413  -3.428  0.00  0.00     0.040 H 
ATOM     93  H   NAG d1181       1.384 -18.049  -4.860  0.00  0.00     0.040 H 
ATOM     94  H   NAG d1181       1.707 -12.845  -7.477  0.00  0.00     0.210 HD
ATOM     95  H   NAG d1181       3.976 -14.836  -7.674  0.00  0.00     0.090 H 
ATOM     96  H   NAG d1181       6.100 -15.028  -6.025  0.00  0.00     0.132 H 
ATOM     97  H   NAG d1181       4.659 -17.141  -6.567  0.00  0.00     0.163 HD
ATOM     98  H   NAG d1181       2.799 -13.036  -5.516  0.00  0.00     0.091 H 
ATOM     99  H   NAG d1181       5.035  -9.841  -4.732  0.00  0.00     0.209 HD
ATOM    100  H   NAG d1181       1.518 -15.117  -6.359  0.00  0.00     0.210 HD
ATOM    101  H   NAG d1181       5.287 -12.978  -7.178  0.00  0.00     0.090 H 
ATOM    102  H   NAG d1181       5.864 -10.915  -6.584  0.00  0.00     0.078 H 
ATOM    103  H   NAG d1181       4.111 -10.740  -6.629  0.00  0.00     0.078 H 
ATOM    104  C4  NAG d1179      12.329 -16.954  -1.901  0.00  0.00     0.089 C 
ATOM    105  N2  NAG d1179      10.675 -16.179   1.450  0.00  0.00    -0.349 N 
ATOM    106  C6  NAG d1179      14.443 -18.331  -2.116  0.00  0.00     0.043 C 
ATOM    107  O4  NAG d1179      11.800 -17.414  -3.141  0.00  0.00    -0.390 OA
ATOM    108  O6  NAG d1179      15.321 -17.224  -2.086  0.00  0.00    -0.398 OA
ATOM    109  C1  NAG d1179      12.637 -17.503   0.922  0.00  0.00     0.154 C 
ATOM    110  C5  NAG d1179      13.208 -18.037  -1.281  0.00  0.00     0.089 C 
ATOM    111  O5  NAG d1179      13.670 -17.618  -0.009  0.00  0.00    -0.349 OA
ATOM    112  C2  NAG d1179      11.723 -16.371   0.464  0.00  0.00     0.087 C 
ATOM    113  C8  NAG d1179       9.357 -14.946   3.015  0.00  0.00    -0.003 C 
ATOM    114  C7  NAG d1179      10.337 -14.968   1.891  0.00  0.00     0.214 C 
ATOM    115  C3  NAG d1179      11.184 -16.618  -0.955  0.00  0.00     0.093 C 
ATOM    116  O3  NAG d1179      10.527 -15.454  -1.433  0.00  0.00    -0.348 OA
ATOM    117  O7  NAG d1179      10.772 -13.923   1.418  0.00  0.00    -0.274 OA
ATOM    118  H   NAG d1179      12.920 -16.078  -2.070  0.00  0.00     0.091 H 
ATOM    119  H   NAG d1179      10.201 -16.966   1.804  0.00  0.00     0.163 HD
ATOM    120  H   NAG d1179      14.150 -18.524  -3.126  0.00  0.00     0.078 H 
ATOM    121  H   NAG d1179      14.943 -19.187  -1.714  0.00  0.00     0.078 H 
ATOM    122  H   NAG d1179      11.263 -18.207  -2.989  0.00  0.00     0.210 HD
ATOM    123  H   NAG d1179      14.872 -16.445  -2.450  0.00  0.00     0.209 HD
ATOM    124  H   NAG d1179      12.152 -18.453   1.005  0.00  0.00     0.132 H 
ATOM    125  H   NAG d1179      12.599 -18.914  -1.218  0.00  0.00     0.090 H 
ATOM    126  H   NAG d1179      12.283 -15.461   0.396  0.00  0.00     0.084 H 
ATOM    127  H   NAG d1179       9.100 -15.949   3.285  0.00  0.00     0.040 H 
ATOM    128  H   NAG d1179       8.476 -14.422   2.709  0.00  0.00     0.040 H 
ATOM    129  H   NAG d1179       9.792 -14.450   3.857  0.00  0.00     0.040 H 
ATOM    130  H   NAG d1179      10.495 -17.436  -0.916  0.00  0.00     0.091 H 
ATOM    131  O5  BDP d1180       9.058 -16.345  -2.971  0.00  0.00    -0.340 OA
ATOM    132  O6A BDP d1180       7.064 -18.467  -4.627  0.00  0.00    -0.646 OA
ATOM    133  O2  BDP d1180       8.323 -13.861  -0.432  0.00  0.00    -0.388 OA
ATOM    134  O3  BDP d1180       6.669 -13.047  -2.725  0.00  0.00    -0.390 OA
ATOM    135  C5  BDP d1180       7.730 -16.558  -3.396  0.00  0.00     0.152 C 
ATOM    136  C2  BDP d1180       8.453 -14.323  -1.760  0.00  0.00     0.110 C 
ATOM    137  C3  BDP d1180       7.061 -14.365  -2.384  0.00  0.00     0.092 C 
ATOM    138  C6  BDP d1180       7.765 -17.433  -4.640  0.00  0.00     0.206 C 
ATOM    139  C1  BDP d1180       9.143 -15.686  -1.732  0.00  0.00     0.160 C 
ATOM    140  C4  BDP d1180       7.056 -15.217  -3.642  0.00  0.00     0.103 C 
ATOM    141  O6B BDP d1180       8.510 -17.075  -5.589  0.00  0.00    -0.646 OA
ATOM    142  O4  BDP d1180       5.720 -15.438  -4.006  0.00  0.00    -0.348 OA
ATOM    143  H   BDP d1180       9.197 -13.827  -0.015  0.00  0.00     0.210 HD
ATOM    144  H   BDP d1180       6.669 -12.493  -1.928  0.00  0.00     0.210 HD
ATOM    145  H   BDP d1180       7.155 -17.062  -2.648  0.00  0.00     0.104 H 
ATOM    146  H   BDP d1180       9.057 -13.675  -2.361  0.00  0.00     0.094 H 
ATOM    147  H   BDP d1180       6.381 -14.791  -1.676  0.00  0.00     0.091 H 
ATOM    148  H   BDP d1180       8.665 -16.305  -1.001  0.00  0.00     0.133 H 
ATOM    149  H   BDP d1180       7.593 -14.709  -4.416  0.00  0.00     0.092 H 
ATOM    150  C3  BDP d1176      14.572 -17.939  13.924  0.00  0.00     0.092 C 
ATOM    151  O4  BDP d1176      14.685 -17.476  11.502  0.00  0.00    -0.348 OA
ATOM    152  O3  BDP d1176      14.227 -19.314  13.807  0.00  0.00    -0.390 OA
ATOM    153  O5  BDP d1176      13.750 -15.224  14.290  0.00  0.00    -0.340 OA
ATOM    154  O2  BDP d1176      14.666 -18.069  16.327  0.00  0.00    -0.388 OA
ATOM    155  C1  BDP d1176      14.224 -15.900  15.436  0.00  0.00     0.160 C 
ATOM    156  O6B BDP d1176      14.407 -14.028  11.314  0.00  0.00    -0.646 OA
ATOM    157  C5  BDP d1176      14.321 -15.641  13.046  0.00  0.00     0.152 C 
ATOM    158  O6A BDP d1176      12.398 -14.750  11.947  0.00  0.00    -0.646 OA
ATOM    159  C6  BDP d1176      13.656 -14.752  12.021  0.00  0.00     0.206 C 
ATOM    160  C4  BDP d1176      14.066 -17.116  12.727  0.00  0.00     0.103 C 
ATOM    161  C2  BDP d1176      14.021 -17.406  15.253  0.00  0.00     0.110 C 
ATOM    162  H   BDP d1176      15.638 -17.843  13.919  0.00  0.00     0.091 H 
ATOM    163  H   BDP d1176      13.261 -19.407  13.811  0.00  0.00     0.210 HD
ATOM    164  H   BDP d1176      14.550 -19.027  16.231  0.00  0.00     0.210 HD
ATOM    165  H   BDP d1176      15.260 -15.668  15.569  0.00  0.00     0.133 H 
ATOM    166  H   BDP d1176      15.387 -15.551  13.064  0.00  0.00     0.104 H 
ATOM    167  H   BDP d1176      13.023 -17.313  12.590  0.00  0.00     0.092 H 
ATOM    168  H   BDP d1176      12.967 -17.593  15.241  0.00  0.00     0.094 H 
ENDROOT
TORSDOF 43
ENDMDL
MODEL 51
REMARK VINA RESULT:      -5.7      4.699      6.219
REMARK  0 active torsions:
REMARK  status: ('A' for Active; 'I' for Inactive)
REMARK       I    between atoms: C3_1  and  O3_90 
REMARK       I    between atoms: O1_4  and  C1_76 
REMARK       I    between atoms: C2_5  and  N2_21 
REMARK       I    between atoms: C8_6  and  C7_66 
REMARK       I    between atoms: C4_7  and  O4_24 
REMARK       I    between atoms: N2_9  and  C2_60 
REMARK       I    between atoms: N2_9  and  C7_69 
REMARK       I    between atoms: O4_12  and  C4_26 
REMARK       I    between atoms: O3_13  and  C3_65 
REMARK       I    between atoms: O3_13  and  C1_61 
REMARK       I    between atoms: C3_14  and  O3_35 
REMARK       I    between atoms: C6_15  and  C5_53 
REMARK       I    between atoms: C6_15  and  O6_46 
REMARK       I    between atoms: O6_16  and  C6_54 
REMARK       I    between atoms: C4_17  and  O4_49 
REMARK       I    between atoms: O4_18  and  C4_28 
REMARK       I    between atoms: O4_18  and  C1_47 
REMARK       I    between atoms: C3_19  and  O3_43 
REMARK       I    between atoms: C1_20  and  O4_91 
REMARK       I    between atoms: N2_21  and  C7_66 
REMARK       I    between atoms: O3_22  and  C3_82 
REMARK       I    between atoms: C7_23  and  C8_62 
REMARK       I    between atoms: C7_23  and  N2_51 
REMARK       I    between atoms: C2_25  and  N2_41 
REMARK       I    between atoms: C1_27  and  O3_90 
REMARK       I    between atoms: O6_29  and  C6_74 
REMARK       I    between atoms: O2_30  and  C2_37 
REMARK       I    between atoms: C2_31  and  O2_42 
REMARK       I    between atoms: O3_32  and  C3_45 
REMARK       I    between atoms: O4_33  and  C4_73 
REMARK       I    between atoms: O4_34  and  C4_84 
REMARK       I    between atoms: O4_34  and  C1_85 
REMARK       I    between atoms: C5_36  and  C6_48 
REMARK       I    between atoms: C6_38  and  C5_40 
REMARK       I    between atoms: C6_38  and  O6_89 
REMARK       I    between atoms: N2_41  and  C7_50 
REMARK       I    between atoms: C5_44  and  C6_74 
REMARK       I    between atoms: C7_50  and  C8_75 
REMARK       I    between atoms: N2_51  and  C2_58 
REMARK       I    between atoms: C1_52  and  O3_87 
REMARK       I    between atoms: C6_54  and  C5_86 
REMARK       I    between atoms: O2_59  and  C2_93 
REMARK       I    between atoms: C8_64  and  C7_69 
REMARK       I    between atoms: C6_70  and  C5_80 
REMARK       I    between atoms: C4_72  and  O4_91 
REMARK       I    between atoms: C5_77  and  C6_79 
REMARK       I    between atoms: C3_83  and  O3_87 
ROOT
ATOM      1  C3  NAG d1177      13.100  -9.700   9.840  0.00  0.00     0.093 C 
ATOM      2  O7  NAG d1177       9.595  -9.427  11.476  0.00  0.00    -0.274 OA
ATOM      3  C4  NAG d1177      14.339  -8.787   9.870  0.00  0.00     0.089 C 
ATOM      4  C2  NAG d1177      12.466  -9.779  11.219  0.00  0.00     0.087 C 
ATOM      5  C6  NAG d1177      16.454  -8.182  11.163  0.00  0.00     0.043 C 
ATOM      6  C5  NAG d1177      15.269  -9.151  11.017  0.00  0.00     0.089 C 
ATOM      7  N2  NAG d1177      11.428 -10.823  11.292  0.00  0.00    -0.349 N 
ATOM      8  O4  NAG d1177      15.044  -8.865   8.647  0.00  0.00    -0.390 OA
ATOM      9  C7  NAG d1177      10.118 -10.585  11.396  0.00  0.00     0.214 C 
ATOM     10  O5  NAG d1177      14.548  -9.157  12.243  0.00  0.00    -0.349 OA
ATOM     11  C8  NAG d1177       9.312 -11.855  11.473  0.00  0.00    -0.003 C 
ATOM     12  C1  NAG d1177      13.514 -10.111  12.281  0.00  0.00     0.154 C 
ATOM     13  O6  NAG d1177      16.005  -6.875  11.474  0.00  0.00    -0.398 OA
ATOM     14  O3  NAG d1177      12.137  -9.156   8.980  0.00  0.00    -0.348 OA
ATOM     15  H   NAG d1177      13.413 -10.670   9.513  0.00  0.00     0.091 H 
ATOM     16  H   NAG d1177      13.993  -7.785  10.018  0.00  0.00     0.091 H 
ATOM     17  H   NAG d1177      12.029  -8.818  11.398  0.00  0.00     0.084 H 
ATOM     18  H   NAG d1177      16.999  -8.156  10.243  0.00  0.00     0.078 H 
ATOM     19  H   NAG d1177      17.079  -8.527  11.959  0.00  0.00     0.078 H 
ATOM     20  H   NAG d1177      15.658 -10.121  10.789  0.00  0.00     0.090 H 
ATOM     21  H   NAG d1177      11.721 -11.762  11.261  0.00  0.00     0.163 HD
ATOM     22  H   NAG d1177      15.358  -9.772   8.512  0.00  0.00     0.210 HD
ATOM     23  H   NAG d1177       8.273 -11.614  11.555  0.00  0.00     0.040 H 
ATOM     24  H   NAG d1177       9.616 -12.419  12.331  0.00  0.00     0.040 H 
ATOM     25  H   NAG d1177       9.475 -12.436  10.589  0.00  0.00     0.040 H 
ATOM     26  H   NAG d1177      13.940 -11.072  12.083  0.00  0.00     0.132 H 
ATOM     27  H   NAG d1177      15.436  -6.549  10.759  0.00  0.00     0.209 HD
ATOM     28  O6A BDP d1178      14.328 -10.489   4.938  0.00  0.00    -0.646 OA
ATOM     29  O4  BDP d1178      10.613 -11.974   4.579  0.00  0.00    -0.348 OA
ATOM     30  O3  BDP d1178       9.063  -9.747   5.437  0.00  0.00    -0.390 OA
ATOM     31  C1  BDP d1178      11.710 -10.084   7.972  0.00  0.00     0.160 C 
ATOM     32  C4  BDP d1178      11.147 -10.889   5.302  0.00  0.00     0.103 C 
ATOM     33  C2  BDP d1178      10.543  -9.445   7.249  0.00  0.00     0.110 C 
ATOM     34  O2  BDP d1178       9.519  -9.125   8.155  0.00  0.00    -0.388 OA
ATOM     35  O6B BDP d1178      13.747 -12.607   4.545  0.00  0.00    -0.646 OA
ATOM     36  O5  BDP d1178      12.734 -10.353   7.032  0.00  0.00    -0.340 OA
ATOM     37  C6  BDP d1178      13.578 -11.491   5.109  0.00  0.00     0.206 C 
ATOM     38  C5  BDP d1178      12.389 -11.323   6.064  0.00  0.00     0.152 C 
ATOM     39  C3  BDP d1178      10.015 -10.423   6.238  0.00  0.00     0.092 C 
ATOM     40  H   BDP d1178       8.705 -10.358   4.774  0.00  0.00     0.210 HD
ATOM     41  H   BDP d1178      11.445 -11.011   8.436  0.00  0.00     0.133 H 
ATOM     42  H   BDP d1178      11.463 -10.088   4.667  0.00  0.00     0.092 H 
ATOM     43  H   BDP d1178      10.874  -8.547   6.771  0.00  0.00     0.094 H 
ATOM     44  H   BDP d1178       9.213  -9.934   8.595  0.00  0.00     0.210 HD
ATOM     45  H   BDP d1178      12.169 -12.255   6.539  0.00  0.00     0.104 H 
ATOM     46  H   BDP d1178       9.593 -11.264   6.748  0.00  0.00     0.091 H 
ATOM     47  O1  NAG d1175      14.713 -13.514  23.044  0.00  0.00    -0.369 OA
ATOM     48  O3  NAG d1175      14.422 -12.161  18.571  0.00  0.00    -0.348 OA
ATOM     49  O6  NAG d1175      11.546 -16.913  21.165  0.00  0.00    -0.398 OA
ATOM     50  C7  NAG d1175      16.163 -10.875  20.767  0.00  0.00     0.214 C 
ATOM     51  O4  NAG d1175      12.274 -14.212  18.189  0.00  0.00    -0.390 OA
ATOM     52  N2  NAG d1175      15.105 -11.535  21.254  0.00  0.00    -0.349 N 
ATOM     53  C6  NAG d1175      12.365 -16.375  20.161  0.00  0.00     0.043 C 
ATOM     54  C2  NAG d1175      14.619 -12.844  20.789  0.00  0.00     0.087 C 
ATOM     55  C8  NAG d1175      17.199 -11.635  20.003  0.00  0.00    -0.003 C 
ATOM     56  O7  NAG d1175      16.304  -9.654  20.936  0.00  0.00    -0.274 OA
ATOM     57  C3  NAG d1175      13.667 -12.758  19.606  0.00  0.00     0.093 C 
ATOM     58  C4  NAG d1175      13.209 -14.184  19.267  0.00  0.00     0.089 C 
ATOM     59  C1  NAG d1175      13.870 -13.521  21.928  0.00  0.00     0.151 C 
ATOM     60  C5  NAG d1175      12.655 -14.920  20.493  0.00  0.00     0.089 C 
ATOM     61  O5  NAG d1175      13.551 -14.864  21.587  0.00  0.00    -0.349 OA
ATOM     62  H   NAG d1175      14.932 -12.598  23.279  0.00  0.00     0.212 HD
ATOM     63  H   NAG d1175      11.355 -17.842  20.963  0.00  0.00     0.209 HD
ATOM     64  H   NAG d1175      12.645 -13.741  17.426  0.00  0.00     0.210 HD
ATOM     65  H   NAG d1175      14.609 -11.107  21.988  0.00  0.00     0.163 HD
ATOM     66  H   NAG d1175      11.865 -16.437  19.218  0.00  0.00     0.078 H 
ATOM     67  H   NAG d1175      13.282 -16.925  20.106  0.00  0.00     0.078 H 
ATOM     68  H   NAG d1175      15.483 -13.391  20.475  0.00  0.00     0.084 H 
ATOM     69  H   NAG d1175      16.921 -12.667  19.955  0.00  0.00     0.040 H 
ATOM     70  H   NAG d1175      18.145 -11.544  20.496  0.00  0.00     0.040 H 
ATOM     71  H   NAG d1175      17.274 -11.238  19.012  0.00  0.00     0.040 H 
ATOM     72  H   NAG d1175      12.784 -12.182  19.786  0.00  0.00     0.091 H 
ATOM     73  H   NAG d1175      14.085 -14.707  18.944  0.00  0.00     0.091 H 
ATOM     74  H   NAG d1175      12.956 -13.003  22.126  0.00  0.00     0.132 H 
ATOM     75  H   NAG d1175      11.748 -14.426  20.769  0.00  0.00     0.090 H 
ATOM     76  C2  NAG d1181      13.844 -19.395  -4.436  0.00  0.00     0.087 C 
ATOM     77  C8  NAG d1181      16.749 -18.953  -4.355  0.00  0.00    -0.003 C 
ATOM     78  O5  NAG d1181      11.840 -20.076  -3.201  0.00  0.00    -0.349 OA
ATOM     79  O4  NAG d1181      12.619 -22.624  -5.738  0.00  0.00    -0.390 OA
ATOM     80  C3  NAG d1181      13.495 -20.395  -5.527  0.00  0.00     0.086 C 
ATOM     81  C1  NAG d1181      12.603 -18.966  -3.652  0.00  0.00     0.154 C 
ATOM     82  N2  NAG d1181      14.505 -18.228  -4.993  0.00  0.00    -0.349 N 
ATOM     83  C4  NAG d1181      12.826 -21.570  -4.823  0.00  0.00     0.089 C 
ATOM     84  O6  NAG d1181      10.823 -22.358  -2.283  0.00  0.00    -0.398 OA
ATOM     85  O3  NAG d1181      14.639 -20.789  -6.267  0.00  0.00    -0.391 OA
ATOM     86  C5  NAG d1181      11.522 -21.034  -4.207  0.00  0.00     0.089 C 
ATOM     87  O7  NAG d1181      16.112 -16.693  -4.613  0.00  0.00    -0.274 OA
ATOM     88  C7  NAG d1181      15.755 -17.869  -4.662  0.00  0.00     0.214 C 
ATOM     89  C6  NAG d1181      10.585 -22.118  -3.655  0.00  0.00     0.043 C 
ATOM     90  H   NAG d1181      14.515 -19.885  -3.763  0.00  0.00     0.084 H 
ATOM     91  H   NAG d1181      16.275 -19.908  -4.444  0.00  0.00     0.040 H 
ATOM     92  H   NAG d1181      17.116 -18.829  -3.357  0.00  0.00     0.040 H 
ATOM     93  H   NAG d1181      17.565 -18.894  -5.044  0.00  0.00     0.040 H 
ATOM     94  H   NAG d1181      13.473 -22.918  -6.091  0.00  0.00     0.210 HD
ATOM     95  H   NAG d1181      12.837 -19.964  -6.252  0.00  0.00     0.090 H 
ATOM     96  H   NAG d1181      11.922 -18.402  -4.254  0.00  0.00     0.132 H 
ATOM     97  H   NAG d1181      14.014 -17.674  -5.643  0.00  0.00     0.163 HD
ATOM     98  H   NAG d1181      13.436 -21.978  -4.045  0.00  0.00     0.091 H 
ATOM     99  H   NAG d1181      10.217 -23.046  -1.966  0.00  0.00     0.209 HD
ATOM    100  H   NAG d1181      15.287 -21.193  -5.669  0.00  0.00     0.210 HD
ATOM    101  H   NAG d1181      10.971 -20.577  -5.002  0.00  0.00     0.090 H 
ATOM    102  H   NAG d1181       9.572 -21.800  -3.782  0.00  0.00     0.078 H 
ATOM    103  H   NAG d1181      10.769 -23.026  -4.192  0.00  0.00     0.078 H 
ATOM    104  C4  NAG d1179       9.765 -12.794   0.585  0.00  0.00     0.089 C 
ATOM    105  N2  NAG d1179      11.711 -14.232   3.537  0.00  0.00    -0.349 N 
ATOM    106  C6  NAG d1179       8.890 -10.419   0.529  0.00  0.00     0.043 C 
ATOM    107  O4  NAG d1179       9.997 -12.835  -0.820  0.00  0.00    -0.390 OA
ATOM    108  O6  NAG d1179       7.615 -10.738   1.046  0.00  0.00    -0.398 OA
ATOM    109  C1  NAG d1179      10.813 -12.011   3.164  0.00  0.00     0.154 C 
ATOM    110  C5  NAG d1179       9.934 -11.366   1.096  0.00  0.00     0.089 C 
ATOM    111  O5  NAG d1179       9.786 -11.333   2.504  0.00  0.00    -0.349 OA
ATOM    112  C2  NAG d1179      10.698 -13.489   2.809  0.00  0.00     0.087 C 
ATOM    113  C8  NAG d1179      12.534 -15.923   5.009  0.00  0.00    -0.003 C 
ATOM    114  C7  NAG d1179      11.428 -15.363   4.180  0.00  0.00     0.214 C 
ATOM    115  C3  NAG d1179      10.756 -13.712   1.289  0.00  0.00     0.093 C 
ATOM    116  O3  NAG d1179      10.423 -15.058   0.983  0.00  0.00    -0.348 OA
ATOM    117  O7  NAG d1179      10.347 -15.939   4.106  0.00  0.00    -0.274 OA
ATOM    118  H   NAG d1179       8.767 -13.123   0.789  0.00  0.00     0.091 H 
ATOM    119  H   NAG d1179      12.634 -13.889   3.555  0.00  0.00     0.163 HD
ATOM    120  H   NAG d1179       8.873 -10.508  -0.537  0.00  0.00     0.078 H 
ATOM    121  H   NAG d1179       9.140  -9.416   0.804  0.00  0.00     0.078 H 
ATOM    122  H   NAG d1179      10.901 -12.537  -1.007  0.00  0.00     0.210 HD
ATOM    123  H   NAG d1179       7.384 -11.648   0.798  0.00  0.00     0.209 HD
ATOM    124  H   NAG d1179      11.744 -11.562   2.885  0.00  0.00     0.132 H 
ATOM    125  H   NAG d1179      10.910 -11.053   0.787  0.00  0.00     0.090 H 
ATOM    126  H   NAG d1179       9.739 -13.859   3.110  0.00  0.00     0.084 H 
ATOM    127  H   NAG d1179      13.388 -15.282   4.945  0.00  0.00     0.040 H 
ATOM    128  H   NAG d1179      12.792 -16.897   4.648  0.00  0.00     0.040 H 
ATOM    129  H   NAG d1179      12.216 -15.992   6.028  0.00  0.00     0.040 H 
ATOM    130  H   NAG d1179      11.749 -13.497   0.954  0.00  0.00     0.091 H 
ATOM    131  O5  BDP d1180      11.501 -15.360  -1.033  0.00  0.00    -0.340 OA
ATOM    132  O6A BDP d1180      13.631 -15.033  -3.596  0.00  0.00    -0.646 OA
ATOM    133  O2  BDP d1180      11.511 -17.613   1.811  0.00  0.00    -0.388 OA
ATOM    134  O3  BDP d1180      11.502 -19.409  -0.519  0.00  0.00    -0.390 OA
ATOM    135  C5  BDP d1180      12.470 -16.042  -1.798  0.00  0.00     0.152 C 
ATOM    136  C2  BDP d1180      11.221 -17.248   0.478  0.00  0.00     0.110 C 
ATOM    137  C3  BDP d1180      12.073 -18.115  -0.445  0.00  0.00     0.092 C 
ATOM    138  C6  BDP d1180      12.514 -15.408  -3.179  0.00  0.00     0.206 C 
ATOM    139  C1  BDP d1180      11.488 -15.752   0.318  0.00  0.00     0.160 C 
ATOM    140  C4  BDP d1180      12.129 -17.524  -1.844  0.00  0.00     0.103 C 
ATOM    141  O6B BDP d1180      11.428 -15.281  -3.802  0.00  0.00    -0.646 OA
ATOM    142  O4  BDP d1180      13.130 -18.200  -2.556  0.00  0.00    -0.348 OA
ATOM    143  H   BDP d1180      10.980 -17.074   2.417  0.00  0.00     0.210 HD
ATOM    144  H   BDP d1180      11.461 -19.796   0.369  0.00  0.00     0.210 HD
ATOM    145  H   BDP d1180      13.443 -15.961  -1.361  0.00  0.00     0.104 H 
ATOM    146  H   BDP d1180      10.195 -17.416   0.223  0.00  0.00     0.094 H 
ATOM    147  H   BDP d1180      13.066 -18.161  -0.050  0.00  0.00     0.091 H 
ATOM    148  H   BDP d1180      12.447 -15.522   0.733  0.00  0.00     0.133 H 
ATOM    149  H   BDP d1180      11.174 -17.633  -2.313  0.00  0.00     0.092 H 
ATOM    150  C3  BDP d1176      14.068  -9.716  15.699  0.00  0.00     0.092 C 
ATOM    151  O4  BDP d1176      12.890 -10.148  13.573  0.00  0.00    -0.348 OA
ATOM    152  O3  BDP d1176      15.066  -8.860  15.156  0.00  0.00    -0.390 OA
ATOM    153  O5  BDP d1176      13.268 -12.328  16.544  0.00  0.00    -0.340 OA
ATOM    154  O2  BDP d1176      14.895  -9.417  17.941  0.00  0.00    -0.388 OA
ATOM    155  C1  BDP d1176      13.690 -11.439  17.556  0.00  0.00     0.160 C 
ATOM    156  O6B BDP d1176      11.077 -13.029  14.213  0.00  0.00    -0.646 OA
ATOM    157  C5  BDP d1176      12.650 -11.720  15.405  0.00  0.00     0.152 C 
ATOM    158  O6A BDP d1176      13.207 -13.673  14.150  0.00  0.00    -0.646 OA
ATOM    159  C6  BDP d1176      12.292 -12.888  14.515  0.00  0.00     0.206 C 
ATOM    160  C4  BDP d1176      13.569 -10.742  14.668  0.00  0.00     0.103 C 
ATOM    161  C2  BDP d1176      14.633 -10.398  16.951  0.00  0.00     0.110 C 
ATOM    162  H   BDP d1176      13.214  -9.130  15.969  0.00  0.00     0.091 H 
ATOM    163  H   BDP d1176      15.844  -9.386  14.909  0.00  0.00     0.210 HD
ATOM    164  H   BDP d1176      15.492  -8.744  17.579  0.00  0.00     0.210 HD
ATOM    165  H   BDP d1176      12.828 -10.971  17.984  0.00  0.00     0.133 H 
ATOM    166  H   BDP d1176      11.808 -11.128  15.695  0.00  0.00     0.104 H 
ATOM    167  H   BDP d1176      14.415 -11.243  14.244  0.00  0.00     0.092 H 
ATOM    168  H   BDP d1176      15.524 -10.905  16.644  0.00  0.00     0.094 H 
ENDROOT
TORSDOF 43
ENDMDL
MODEL 52
REMARK VINA RESULT:      -5.7      5.298     19.158
REMARK  0 active torsions:
REMARK  status: ('A' for Active; 'I' for Inactive)
REMARK       I    between atoms: C3_1  and  O3_90 
REMARK       I    between atoms: O1_4  and  C1_76 
REMARK       I    between atoms: C2_5  and  N2_21 
REMARK       I    between atoms: C8_6  and  C7_66 
REMARK       I    between atoms: C4_7  and  O4_24 
REMARK       I    between atoms: N2_9  and  C2_60 
REMARK       I    between atoms: N2_9  and  C7_69 
REMARK       I    between atoms: O4_12  and  C4_26 
REMARK       I    between atoms: O3_13  and  C3_65 
REMARK       I    between atoms: O3_13  and  C1_61 
REMARK       I    between atoms: C3_14  and  O3_35 
REMARK       I    between atoms: C6_15  and  C5_53 
REMARK       I    between atoms: C6_15  and  O6_46 
REMARK       I    between atoms: O6_16  and  C6_54 
REMARK       I    between atoms: C4_17  and  O4_49 
REMARK       I    between atoms: O4_18  and  C4_28 
REMARK       I    between atoms: O4_18  and  C1_47 
REMARK       I    between atoms: C3_19  and  O3_43 
REMARK       I    between atoms: C1_20  and  O4_91 
REMARK       I    between atoms: N2_21  and  C7_66 
REMARK       I    between atoms: O3_22  and  C3_82 
REMARK       I    between atoms: C7_23  and  C8_62 
REMARK       I    between atoms: C7_23  and  N2_51 
REMARK       I    between atoms: C2_25  and  N2_41 
REMARK       I    between atoms: C1_27  and  O3_90 
REMARK       I    between atoms: O6_29  and  C6_74 
REMARK       I    between atoms: O2_30  and  C2_37 
REMARK       I    between atoms: C2_31  and  O2_42 
REMARK       I    between atoms: O3_32  and  C3_45 
REMARK       I    between atoms: O4_33  and  C4_73 
REMARK       I    between atoms: O4_34  and  C4_84 
REMARK       I    between atoms: O4_34  and  C1_85 
REMARK       I    between atoms: C5_36  and  C6_48 
REMARK       I    between atoms: C6_38  and  C5_40 
REMARK       I    between atoms: C6_38  and  O6_89 
REMARK       I    between atoms: N2_41  and  C7_50 
REMARK       I    between atoms: C5_44  and  C6_74 
REMARK       I    between atoms: C7_50  and  C8_75 
REMARK       I    between atoms: N2_51  and  C2_58 
REMARK       I    between atoms: C1_52  and  O3_87 
REMARK       I    between atoms: C6_54  and  C5_86 
REMARK       I    between atoms: O2_59  and  C2_93 
REMARK       I    between atoms: C8_64  and  C7_69 
REMARK       I    between atoms: C6_70  and  C5_80 
REMARK       I    between atoms: C4_72  and  O4_91 
REMARK       I    between atoms: C5_77  and  C6_79 
REMARK       I    between atoms: C3_83  and  O3_87 
ROOT
ATOM      1  C3  NAG d1177      14.794 -17.090   8.885  0.00  0.00     0.093 C 
ATOM      2  O7  NAG d1177      14.261 -20.930   8.821  0.00  0.00    -0.274 OA
ATOM      3  C4  NAG d1177      15.938 -16.188   8.387  0.00  0.00     0.089 C 
ATOM      4  C2  NAG d1177      14.516 -18.195   7.879  0.00  0.00     0.087 C 
ATOM      5  C6  NAG d1177      16.892 -14.951   6.370  0.00  0.00     0.043 C 
ATOM      6  C5  NAG d1177      15.711 -15.746   6.950  0.00  0.00     0.089 C 
ATOM      7  N2  NAG d1177      13.280 -18.933   8.197  0.00  0.00    -0.349 N 
ATOM      8  O4  NAG d1177      16.070 -15.050   9.216  0.00  0.00    -0.390 OA
ATOM      9  C7  NAG d1177      13.240 -20.192   8.641  0.00  0.00     0.214 C 
ATOM     10  O5  NAG d1177      15.495 -16.882   6.122  0.00  0.00    -0.349 OA
ATOM     11  C8  NAG d1177      11.829 -20.677   8.852  0.00  0.00    -0.003 C 
ATOM     12  C1  NAG d1177      14.349 -17.621   6.473  0.00  0.00     0.154 C 
ATOM     13  O6  NAG d1177      18.062 -15.747   6.314  0.00  0.00    -0.398 OA
ATOM     14  O3  NAG d1177      15.175 -17.714  10.080  0.00  0.00    -0.348 OA
ATOM     15  H   NAG d1177      13.927 -16.478   9.022  0.00  0.00     0.091 H 
ATOM     16  H   NAG d1177      16.839 -16.764   8.428  0.00  0.00     0.091 H 
ATOM     17  H   NAG d1177      15.356 -18.856   7.927  0.00  0.00     0.084 H 
ATOM     18  H   NAG d1177      17.078 -14.099   6.990  0.00  0.00     0.078 H 
ATOM     19  H   NAG d1177      16.641 -14.644   5.377  0.00  0.00     0.078 H 
ATOM     20  H   NAG d1177      14.854 -15.106   6.966  0.00  0.00     0.090 H 
ATOM     21  H   NAG d1177      12.422 -18.464   8.072  0.00  0.00     0.163 HD
ATOM     22  H   NAG d1177      15.254 -14.527   9.180  0.00  0.00     0.210 HD
ATOM     23  H   NAG d1177      11.849 -21.686   9.207  0.00  0.00     0.040 H 
ATOM     24  H   NAG d1177      11.295 -20.635   7.926  0.00  0.00     0.040 H 
ATOM     25  H   NAG d1177      11.341 -20.054   9.573  0.00  0.00     0.040 H 
ATOM     26  H   NAG d1177      13.507 -16.962   6.446  0.00  0.00     0.132 H 
ATOM     27  H   NAG d1177      18.302 -16.034   7.210  0.00  0.00     0.209 HD
ATOM     28  O6A BDP d1178      14.532 -13.854  12.836  0.00  0.00    -0.646 OA
ATOM     29  O4  BDP d1178      12.341 -16.711  14.618  0.00  0.00    -0.348 OA
ATOM     30  O3  BDP d1178      14.157 -18.901  14.541  0.00  0.00    -0.390 OA
ATOM     31  C1  BDP d1178      14.234 -17.495  11.141  0.00  0.00     0.160 C 
ATOM     32  C4  BDP d1178      13.472 -16.752  13.780  0.00  0.00     0.103 C 
ATOM     33  C2  BDP d1178      14.659 -18.376  12.297  0.00  0.00     0.110 C 
ATOM     34  O2  BDP d1178      14.715 -19.720  11.896  0.00  0.00    -0.388 OA
ATOM     35  O6B BDP d1178      12.363 -13.773  13.356  0.00  0.00    -0.646 OA
ATOM     36  O5  BDP d1178      14.229 -16.147  11.574  0.00  0.00    -0.340 OA
ATOM     37  C6  BDP d1178      13.390 -14.383  12.949  0.00  0.00     0.206 C 
ATOM     38  C5  BDP d1178      13.262 -15.863  12.565  0.00  0.00     0.152 C 
ATOM     39  C3  BDP d1178      13.648 -18.236  13.400  0.00  0.00     0.092 C 
ATOM     40  H   BDP d1178      13.521 -18.826  15.270  0.00  0.00     0.210 HD
ATOM     41  H   BDP d1178      13.249 -17.726  10.792  0.00  0.00     0.133 H 
ATOM     42  H   BDP d1178      14.354 -16.381  14.260  0.00  0.00     0.092 H 
ATOM     43  H   BDP d1178      15.629 -18.075  12.632  0.00  0.00     0.094 H 
ATOM     44  H   BDP d1178      13.839 -20.003  11.589  0.00  0.00     0.210 HD
ATOM     45  H   BDP d1178      12.280 -16.057  12.187  0.00  0.00     0.104 H 
ATOM     46  H   BDP d1178      12.713 -18.643  13.075  0.00  0.00     0.091 H 
ATOM     47  O1  NAG d1175      10.700 -20.190  -3.966  0.00  0.00    -0.369 OA
ATOM     48  O3  NAG d1175      12.199 -18.925   0.286  0.00  0.00    -0.348 OA
ATOM     49  O6  NAG d1175       6.831 -21.548  -1.085  0.00  0.00    -0.398 OA
ATOM     50  C7  NAG d1175      13.696 -18.526  -2.380  0.00  0.00     0.214 C 
ATOM     51  O4  NAG d1175       9.776 -20.259   1.434  0.00  0.00    -0.390 OA
ATOM     52  N2  NAG d1175      12.809 -19.529  -2.420  0.00  0.00    -0.349 N 
ATOM     53  C6  NAG d1175       7.576 -20.525  -0.482  0.00  0.00     0.043 C 
ATOM     54  C2  NAG d1175      11.455 -19.503  -1.844  0.00  0.00     0.087 C 
ATOM     55  C8  NAG d1175      13.204 -17.137  -2.129  0.00  0.00    -0.003 C 
ATOM     56  O7  NAG d1175      14.910 -18.723  -2.548  0.00  0.00    -0.274 OA
ATOM     57  C3  NAG d1175      11.407 -19.892  -0.375  0.00  0.00     0.093 C 
ATOM     58  C4  NAG d1175       9.937 -19.866   0.070  0.00  0.00     0.089 C 
ATOM     59  C1  NAG d1175      10.580 -20.489  -2.604  0.00  0.00     0.151 C 
ATOM     60  C5  NAG d1175       9.041 -20.702  -0.851  0.00  0.00     0.089 C 
ATOM     61  O5  NAG d1175       9.221 -20.357  -2.212  0.00  0.00    -0.349 OA
ATOM     62  H   NAG d1175      11.628 -20.280  -4.236  0.00  0.00     0.212 HD
ATOM     63  H   NAG d1175       5.895 -21.444  -0.856  0.00  0.00     0.209 HD
ATOM     64  H   NAG d1175      10.352 -19.718   1.997  0.00  0.00     0.210 HD
ATOM     65  H   NAG d1175      13.088 -20.357  -2.873  0.00  0.00     0.163 HD
ATOM     66  H   NAG d1175       7.464 -20.577   0.581  0.00  0.00     0.078 H 
ATOM     67  H   NAG d1175       7.228 -19.571  -0.822  0.00  0.00     0.078 H 
ATOM     68  H   NAG d1175      11.112 -18.493  -1.927  0.00  0.00     0.084 H 
ATOM     69  H   NAG d1175      12.141 -17.152  -2.009  0.00  0.00     0.040 H 
ATOM     70  H   NAG d1175      13.461 -16.513  -2.959  0.00  0.00     0.040 H 
ATOM     71  H   NAG d1175      13.659 -16.754  -1.240  0.00  0.00     0.040 H 
ATOM     72  H   NAG d1175      11.780 -20.871  -0.160  0.00  0.00     0.091 H 
ATOM     73  H   NAG d1175       9.621 -18.847  -0.008  0.00  0.00     0.091 H 
ATOM     74  H   NAG d1175      10.890 -21.492  -2.396  0.00  0.00     0.132 H 
ATOM     75  H   NAG d1175       9.324 -21.725  -0.718  0.00  0.00     0.090 H 
ATOM     76  C2  NAG d1181       6.219  -8.653  21.280  0.00  0.00     0.087 C 
ATOM     77  C8  NAG d1181       7.240  -6.188  20.043  0.00  0.00    -0.003 C 
ATOM     78  O5  NAG d1181       5.080 -10.796  20.940  0.00  0.00    -0.349 OA
ATOM     79  O4  NAG d1181       2.881  -8.548  22.851  0.00  0.00    -0.390 OA
ATOM     80  C3  NAG d1181       5.228  -8.316  22.382  0.00  0.00     0.086 C 
ATOM     81  C1  NAG d1181       6.345 -10.165  21.082  0.00  0.00     0.154 C 
ATOM     82  N2  NAG d1181       7.525  -8.081  21.562  0.00  0.00    -0.349 N 
ATOM     83  C4  NAG d1181       3.906  -8.952  21.969  0.00  0.00     0.089 C 
ATOM     84  O6  NAG d1181       2.593 -11.599  20.433  0.00  0.00    -0.398 OA
ATOM     85  O3  NAG d1181       5.115  -6.916  22.580  0.00  0.00    -0.391 OA
ATOM     86  C5  NAG d1181       4.131 -10.474  21.954  0.00  0.00     0.089 C 
ATOM     87  O7  NAG d1181       9.332  -7.122  20.617  0.00  0.00    -0.274 OA
ATOM     88  C7  NAG d1181       8.113  -7.175  20.765  0.00  0.00     0.214 C 
ATOM     89  C6  NAG d1181       2.851 -11.307  21.791  0.00  0.00     0.043 C 
ATOM     90  H   NAG d1181       5.841  -8.225  20.375  0.00  0.00     0.084 H 
ATOM     91  H   NAG d1181       6.214  -6.377  20.283  0.00  0.00     0.040 H 
ATOM     92  H   NAG d1181       7.383  -6.290  18.987  0.00  0.00     0.040 H 
ATOM     93  H   NAG d1181       7.500  -5.195  20.344  0.00  0.00     0.040 H 
ATOM     94  H   NAG d1181       2.786  -7.584  22.817  0.00  0.00     0.210 HD
ATOM     95  H   NAG d1181       5.553  -8.699  23.326  0.00  0.00     0.090 H 
ATOM     96  H   NAG d1181       6.788 -10.645  21.928  0.00  0.00     0.132 H 
ATOM     97  H   NAG d1181       8.000  -8.372  22.374  0.00  0.00     0.163 HD
ATOM     98  H   NAG d1181       3.590  -8.638  20.996  0.00  0.00     0.091 H 
ATOM     99  H   NAG d1181       1.781 -12.124  20.364  0.00  0.00     0.209 HD
ATOM    100  H   NAG d1181       4.821  -6.496  21.757  0.00  0.00     0.210 HD
ATOM    101  H   NAG d1181       4.508 -10.739  22.920  0.00  0.00     0.090 H 
ATOM    102  H   NAG d1181       2.963 -12.224  22.329  0.00  0.00     0.078 H 
ATOM    103  H   NAG d1181       2.030 -10.738  22.175  0.00  0.00     0.078 H 
ATOM    104  C4  NAG d1179      11.576 -15.684  18.581  0.00  0.00     0.089 C 
ATOM    105  N2  NAG d1179      10.412 -14.843  15.045  0.00  0.00    -0.349 N 
ATOM    106  C6  NAG d1179      13.723 -16.934  19.071  0.00  0.00     0.043 C 
ATOM    107  O4  NAG d1179      11.658 -14.902  19.769  0.00  0.00    -0.390 OA
ATOM    108  O6  NAG d1179      13.123 -18.213  19.105  0.00  0.00    -0.398 OA
ATOM    109  C1  NAG d1179      12.420 -15.954  15.828  0.00  0.00     0.154 C 
ATOM    110  C5  NAG d1179      12.980 -16.036  18.096  0.00  0.00     0.089 C 
ATOM    111  O5  NAG d1179      12.908 -16.743  16.871  0.00  0.00    -0.349 OA
ATOM    112  C2  NAG d1179      10.970 -15.607  16.147  0.00  0.00     0.087 C 
ATOM    113  C8  NAG d1179       8.849 -14.353  13.306  0.00  0.00    -0.003 C 
ATOM    114  C7  NAG d1179       9.215 -15.120  14.532  0.00  0.00     0.214 C 
ATOM    115  C3  NAG d1179      10.844 -14.895  17.504  0.00  0.00     0.093 C 
ATOM    116  O3  NAG d1179       9.476 -14.789  17.870  0.00  0.00    -0.348 OA
ATOM    117  O7  NAG d1179       8.436 -15.934  15.018  0.00  0.00    -0.274 OA
ATOM    118  H   NAG d1179      11.040 -16.588  18.787  0.00  0.00     0.091 H 
ATOM    119  H   NAG d1179      10.934 -14.099  14.666  0.00  0.00     0.163 HD
ATOM    120  H   NAG d1179      13.688 -16.501  20.049  0.00  0.00     0.078 H 
ATOM    121  H   NAG d1179      14.740 -17.031  18.754  0.00  0.00     0.078 H 
ATOM    122  H   NAG d1179      12.143 -14.083  19.584  0.00  0.00     0.210 HD
ATOM    123  H   NAG d1179      12.200 -18.130  19.392  0.00  0.00     0.209 HD
ATOM    124  H   NAG d1179      13.063 -15.105  15.722  0.00  0.00     0.132 H 
ATOM    125  H   NAG d1179      13.501 -15.107  17.994  0.00  0.00     0.090 H 
ATOM    126  H   NAG d1179      10.398 -16.505  16.248  0.00  0.00     0.084 H 
ATOM    127  H   NAG d1179       9.654 -13.699  13.041  0.00  0.00     0.040 H 
ATOM    128  H   NAG d1179       7.969 -13.775  13.497  0.00  0.00     0.040 H 
ATOM    129  H   NAG d1179       8.663 -15.033  12.502  0.00  0.00     0.040 H 
ATOM    130  H   NAG d1179      11.275 -13.920  17.415  0.00  0.00     0.091 H 
ATOM    131  O5  BDP d1180       9.507 -12.952  19.264  0.00  0.00    -0.340 OA
ATOM    132  O6A BDP d1180      10.396 -10.087  20.754  0.00  0.00    -0.646 OA
ATOM    133  O2  BDP d1180       7.157 -13.622  16.582  0.00  0.00    -0.388 OA
ATOM    134  O3  BDP d1180       5.522 -12.318  18.651  0.00  0.00    -0.390 OA
ATOM    135  C5  BDP d1180       9.078 -11.638  19.545  0.00  0.00     0.152 C 
ATOM    136  C2  BDP d1180       7.524 -13.419  17.930  0.00  0.00     0.110 C 
ATOM    137  C3  BDP d1180       6.900 -12.107  18.398  0.00  0.00     0.092 C 
ATOM    138  C6  BDP d1180       9.780 -11.173  20.812  0.00  0.00     0.206 C 
ATOM    139  C1  BDP d1180       9.050 -13.427  18.021  0.00  0.00     0.160 C 
ATOM    140  C4  BDP d1180       7.562 -11.616  19.673  0.00  0.00     0.103 C 
ATOM    141  O6B BDP d1180       9.715 -11.915  21.826  0.00  0.00    -0.646 OA
ATOM    142  O4  BDP d1180       7.143 -10.296  19.894  0.00  0.00    -0.348 OA
ATOM    143  H   BDP d1180       7.544 -14.452  16.263  0.00  0.00     0.210 HD
ATOM    144  H   BDP d1180       5.089 -12.633  17.842  0.00  0.00     0.210 HD
ATOM    145  H   BDP d1180       9.333 -10.964  18.755  0.00  0.00     0.104 H 
ATOM    146  H   BDP d1180       7.165 -14.195  18.574  0.00  0.00     0.094 H 
ATOM    147  H   BDP d1180       7.036 -11.372  17.632  0.00  0.00     0.091 H 
ATOM    148  H   BDP d1180       9.449 -12.787  17.262  0.00  0.00     0.133 H 
ATOM    149  H   BDP d1180       7.286 -12.255  20.486  0.00  0.00     0.092 H 
ATOM    150  C3  BDP d1176      14.668 -18.589   3.140  0.00  0.00     0.092 C 
ATOM    151  O4  BDP d1176      14.117 -18.691   5.544  0.00  0.00    -0.348 OA
ATOM    152  O3  BDP d1176      15.737 -17.658   3.261  0.00  0.00    -0.390 OA
ATOM    153  O5  BDP d1176      11.907 -19.101   2.600  0.00  0.00    -0.340 OA
ATOM    154  O2  BDP d1176      15.011 -18.819   0.768  0.00  0.00    -0.388 OA
ATOM    155  C1  BDP d1176      12.809 -19.318   1.536  0.00  0.00     0.160 C 
ATOM    156  O6B BDP d1176      10.897 -19.967   5.593  0.00  0.00    -0.646 OA
ATOM    157  C5  BDP d1176      12.435 -19.317   3.912  0.00  0.00     0.152 C 
ATOM    158  O6A BDP d1176      10.706 -17.909   4.764  0.00  0.00    -0.646 OA
ATOM    159  C6  BDP d1176      11.268 -19.035   4.829  0.00  0.00     0.206 C 
ATOM    160  C4  BDP d1176      13.617 -18.404   4.247  0.00  0.00     0.103 C 
ATOM    161  C2  BDP d1176      14.051 -18.449   1.742  0.00  0.00     0.110 C 
ATOM    162  H   BDP d1176      15.052 -19.581   3.260  0.00  0.00     0.091 H 
ATOM    163  H   BDP d1176      15.394 -16.757   3.153  0.00  0.00     0.210 HD
ATOM    164  H   BDP d1176      15.810 -18.281   0.880  0.00  0.00     0.210 HD
ATOM    165  H   BDP d1176      13.068 -20.356   1.511  0.00  0.00     0.133 H 
ATOM    166  H   BDP d1176      12.826 -20.308   4.009  0.00  0.00     0.104 H 
ATOM    167  H   BDP d1176      13.323 -17.376   4.275  0.00  0.00     0.092 H 
ATOM    168  H   BDP d1176      13.753 -17.426   1.644  0.00  0.00     0.094 H 
ENDROOT
TORSDOF 43
ENDMDL
MODEL 53
REMARK VINA RESULT:      -5.7      4.860      7.277
REMARK  0 active torsions:
REMARK  status: ('A' for Active; 'I' for Inactive)
REMARK       I    between atoms: C3_1  and  O3_90 
REMARK       I    between atoms: O1_4  and  C1_76 
REMARK       I    between atoms: C2_5  and  N2_21 
REMARK       I    between atoms: C8_6  and  C7_66 
REMARK       I    between atoms: C4_7  and  O4_24 
REMARK       I    between atoms: N2_9  and  C2_60 
REMARK       I    between atoms: N2_9  and  C7_69 
REMARK       I    between atoms: O4_12  and  C4_26 
REMARK       I    between atoms: O3_13  and  C3_65 
REMARK       I    between atoms: O3_13  and  C1_61 
REMARK       I    between atoms: C3_14  and  O3_35 
REMARK       I    between atoms: C6_15  and  C5_53 
REMARK       I    between atoms: C6_15  and  O6_46 
REMARK       I    between atoms: O6_16  and  C6_54 
REMARK       I    between atoms: C4_17  and  O4_49 
REMARK       I    between atoms: O4_18  and  C4_28 
REMARK       I    between atoms: O4_18  and  C1_47 
REMARK       I    between atoms: C3_19  and  O3_43 
REMARK       I    between atoms: C1_20  and  O4_91 
REMARK       I    between atoms: N2_21  and  C7_66 
REMARK       I    between atoms: O3_22  and  C3_82 
REMARK       I    between atoms: C7_23  and  C8_62 
REMARK       I    between atoms: C7_23  and  N2_51 
REMARK       I    between atoms: C2_25  and  N2_41 
REMARK       I    between atoms: C1_27  and  O3_90 
REMARK       I    between atoms: O6_29  and  C6_74 
REMARK       I    between atoms: O2_30  and  C2_37 
REMARK       I    between atoms: C2_31  and  O2_42 
REMARK       I    between atoms: O3_32  and  C3_45 
REMARK       I    between atoms: O4_33  and  C4_73 
REMARK       I    between atoms: O4_34  and  C4_84 
REMARK       I    between atoms: O4_34  and  C1_85 
REMARK       I    between atoms: C5_36  and  C6_48 
REMARK       I    between atoms: C6_38  and  C5_40 
REMARK       I    between atoms: C6_38  and  O6_89 
REMARK       I    between atoms: N2_41  and  C7_50 
REMARK       I    between atoms: C5_44  and  C6_74 
REMARK       I    between atoms: C7_50  and  C8_75 
REMARK       I    between atoms: N2_51  and  C2_58 
REMARK       I    between atoms: C1_52  and  O3_87 
REMARK       I    between atoms: C6_54  and  C5_86 
REMARK       I    between atoms: O2_59  and  C2_93 
REMARK       I    between atoms: C8_64  and  C7_69 
REMARK       I    between atoms: C6_70  and  C5_80 
REMARK       I    between atoms: C4_72  and  O4_91 
REMARK       I    between atoms: C5_77  and  C6_79 
REMARK       I    between atoms: C3_83  and  O3_87 
ROOT
ATOM      1  C3  NAG d1177       9.957 -12.624  16.196  0.00  0.00     0.093 C 
ATOM      2  O7  NAG d1177       8.054  -9.591  17.685  0.00  0.00    -0.274 OA
ATOM      3  C4  NAG d1177      10.817 -13.729  16.833  0.00  0.00     0.089 C 
ATOM      4  C2  NAG d1177       8.735 -12.343  17.055  0.00  0.00     0.087 C 
ATOM      5  C6  NAG d1177      10.773 -16.010  17.975  0.00  0.00     0.043 C 
ATOM      6  C5  NAG d1177       9.975 -14.935  17.218  0.00  0.00     0.089 C 
ATOM      7  N2  NAG d1177       7.766 -11.469  16.370  0.00  0.00    -0.349 N 
ATOM      8  O4  NAG d1177      11.844 -14.133  15.948  0.00  0.00    -0.390 OA
ATOM      9  C7  NAG d1177       7.513 -10.202  16.708  0.00  0.00     0.214 C 
ATOM     10  O5  NAG d1177       8.891 -14.527  18.042  0.00  0.00    -0.349 OA
ATOM     11  C8  NAG d1177       6.456  -9.578  15.835  0.00  0.00    -0.003 C 
ATOM     12  C1  NAG d1177       8.005 -13.639  17.403  0.00  0.00     0.154 C 
ATOM     13  O6  NAG d1177      11.255 -15.509  19.209  0.00  0.00    -0.398 OA
ATOM     14  O3  NAG d1177      10.694 -11.433  16.134  0.00  0.00    -0.348 OA
ATOM     15  H   NAG d1177       9.664 -12.953  15.222  0.00  0.00     0.091 H 
ATOM     16  H   NAG d1177      11.254 -13.322  17.722  0.00  0.00     0.091 H 
ATOM     17  H   NAG d1177       9.099 -11.859  17.938  0.00  0.00     0.084 H 
ATOM     18  H   NAG d1177      11.602 -16.319  17.374  0.00  0.00     0.078 H 
ATOM     19  H   NAG d1177      10.125 -16.838  18.174  0.00  0.00     0.078 H 
ATOM     20  H   NAG d1177       9.629 -15.363  16.301  0.00  0.00     0.090 H 
ATOM     21  H   NAG d1177       7.269 -11.846  15.607  0.00  0.00     0.163 HD
ATOM     22  H   NAG d1177      11.450 -14.502  15.143  0.00  0.00     0.210 HD
ATOM     23  H   NAG d1177       6.289  -8.567  16.144  0.00  0.00     0.040 H 
ATOM     24  H   NAG d1177       5.546 -10.133  15.925  0.00  0.00     0.040 H 
ATOM     25  H   NAG d1177       6.782  -9.591  14.815  0.00  0.00     0.040 H 
ATOM     26  H   NAG d1177       7.651 -14.108  16.509  0.00  0.00     0.132 H 
ATOM     27  H   NAG d1177      11.845 -14.757  19.044  0.00  0.00     0.209 HD
ATOM     28  O6A BDP d1178      13.373 -12.747  12.392  0.00  0.00    -0.646 OA
ATOM     29  O4  BDP d1178      11.778  -9.232  11.276  0.00  0.00    -0.348 OA
ATOM     30  O3  BDP d1178      12.164  -7.696  13.640  0.00  0.00    -0.390 OA
ATOM     31  C1  BDP d1178      10.744 -10.884  14.810  0.00  0.00     0.160 C 
ATOM     32  C4  BDP d1178      12.062  -9.801  12.532  0.00  0.00     0.103 C 
ATOM     33  C2  BDP d1178      11.389  -9.519  14.922  0.00  0.00     0.110 C 
ATOM     34  O2  BDP d1178      10.669  -8.707  15.813  0.00  0.00    -0.388 OA
ATOM     35  O6B BDP d1178      12.184 -12.321  10.552  0.00  0.00    -0.646 OA
ATOM     36  O5  BDP d1178      11.521 -11.682  13.936  0.00  0.00    -0.340 OA
ATOM     37  C6  BDP d1178      12.429 -12.169  11.781  0.00  0.00     0.206 C 
ATOM     38  C5  BDP d1178      11.537 -11.226  12.598  0.00  0.00     0.152 C 
ATOM     39  C3  BDP d1178      11.385  -8.876  13.564  0.00  0.00     0.092 C 
ATOM     40  H   BDP d1178      12.178  -7.261  12.773  0.00  0.00     0.210 HD
ATOM     41  H   BDP d1178       9.753 -10.837  14.409  0.00  0.00     0.133 H 
ATOM     42  H   BDP d1178      13.113  -9.871  12.724  0.00  0.00     0.092 H 
ATOM     43  H   BDP d1178      12.389  -9.629  15.286  0.00  0.00     0.094 H 
ATOM     44  H   BDP d1178       9.759  -8.601  15.492  0.00  0.00     0.210 HD
ATOM     45  H   BDP d1178      10.546 -11.225  12.197  0.00  0.00     0.104 H 
ATOM     46  H   BDP d1178      10.375  -8.679  13.269  0.00  0.00     0.091 H 
ATOM     47  O1  NAG d1175      -1.762 -17.686  21.540  0.00  0.00    -0.369 OA
ATOM     48  O3  NAG d1175       2.310 -16.211  19.759  0.00  0.00    -0.348 OA
ATOM     49  O6  NAG d1175      -3.306 -14.551  17.948  0.00  0.00    -0.398 OA
ATOM     50  C7  NAG d1175       1.937 -18.270  22.024  0.00  0.00     0.214 C 
ATOM     51  O4  NAG d1175       0.766 -14.266  18.086  0.00  0.00    -0.390 OA
ATOM     52  N2  NAG d1175       0.900 -17.432  21.899  0.00  0.00    -0.349 N 
ATOM     53  C6  NAG d1175      -2.026 -15.050  17.668  0.00  0.00     0.043 C 
ATOM     54  C2  NAG d1175       0.297 -16.995  20.630  0.00  0.00     0.087 C 
ATOM     55  C8  NAG d1175       2.278 -19.173  20.884  0.00  0.00    -0.003 C 
ATOM     56  O7  NAG d1175       2.617 -18.313  23.062  0.00  0.00    -0.274 OA
ATOM     57  C3  NAG d1175       0.984 -15.788  20.009  0.00  0.00     0.093 C 
ATOM     58  C4  NAG d1175       0.222 -15.420  18.728  0.00  0.00     0.089 C 
ATOM     59  C1  NAG d1175      -1.154 -16.610  20.882  0.00  0.00     0.151 C 
ATOM     60  C5  NAG d1175      -1.281 -15.251  18.979  0.00  0.00     0.089 C 
ATOM     61  O5  NAG d1175      -1.828 -16.367  19.656  0.00  0.00    -0.349 OA
ATOM     62  H   NAG d1175      -1.303 -17.853  22.378  0.00  0.00     0.212 HD
ATOM     63  H   NAG d1175      -3.790 -14.419  17.118  0.00  0.00     0.209 HD
ATOM     64  H   NAG d1175       1.716 -14.396  17.938  0.00  0.00     0.210 HD
ATOM     65  H   NAG d1175       0.506 -17.078  22.728  0.00  0.00     0.163 HD
ATOM     66  H   NAG d1175      -1.494 -14.352  17.056  0.00  0.00     0.078 H 
ATOM     67  H   NAG d1175      -2.103 -15.981  17.147  0.00  0.00     0.078 H 
ATOM     68  H   NAG d1175       0.398 -17.815  19.950  0.00  0.00     0.084 H 
ATOM     69  H   NAG d1175       1.594 -19.004  20.078  0.00  0.00     0.040 H 
ATOM     70  H   NAG d1175       2.208 -20.192  21.202  0.00  0.00     0.040 H 
ATOM     71  H   NAG d1175       3.276 -18.970  20.554  0.00  0.00     0.040 H 
ATOM     72  H   NAG d1175       0.995 -14.915  20.627  0.00  0.00     0.091 H 
ATOM     73  H   NAG d1175       0.349 -16.247  18.060  0.00  0.00     0.091 H 
ATOM     74  H   NAG d1175      -1.201 -15.717  21.470  0.00  0.00     0.132 H 
ATOM     75  H   NAG d1175      -1.399 -14.386  19.596  0.00  0.00     0.090 H 
ATOM     76  C2  NAG d1181      14.542 -11.041  -0.382  0.00  0.00     0.087 C 
ATOM     77  C8  NAG d1181      15.483 -13.820  -0.188  0.00  0.00    -0.003 C 
ATOM     78  O5  NAG d1181      12.707  -9.467   0.016  0.00  0.00    -0.349 OA
ATOM     79  O4  NAG d1181      13.162  -9.900  -3.609  0.00  0.00    -0.390 OA
ATOM     80  C3  NAG d1181      14.629 -10.556  -1.820  0.00  0.00     0.086 C 
ATOM     81  C1  NAG d1181      13.927  -9.979   0.532  0.00  0.00     0.154 C 
ATOM     82  N2  NAG d1181      15.852 -11.423   0.118  0.00  0.00    -0.349 N 
ATOM     83  C4  NAG d1181      13.205 -10.201  -2.231  0.00  0.00     0.089 C 
ATOM     84  O6  NAG d1181      10.341  -8.945  -1.087  0.00  0.00    -0.398 OA
ATOM     85  O3  NAG d1181      15.209 -11.531  -2.671  0.00  0.00    -0.391 OA
ATOM     86  C5  NAG d1181      12.764  -9.027  -1.338  0.00  0.00     0.089 C 
ATOM     87  O7  NAG d1181      16.938 -12.900   1.430  0.00  0.00    -0.274 OA
ATOM     88  C7  NAG d1181      16.145 -12.670   0.519  0.00  0.00     0.214 C 
ATOM     89  C6  NAG d1181      11.443  -8.368  -1.758  0.00  0.00     0.043 C 
ATOM     90  H   NAG d1181      13.905 -11.900  -0.377  0.00  0.00     0.084 H 
ATOM     91  H   NAG d1181      14.829 -13.443  -0.947  0.00  0.00     0.040 H 
ATOM     92  H   NAG d1181      14.918 -14.394   0.516  0.00  0.00     0.040 H 
ATOM     93  H   NAG d1181      16.230 -14.440  -0.637  0.00  0.00     0.040 H 
ATOM     94  H   NAG d1181      13.449 -10.674  -4.118  0.00  0.00     0.210 HD
ATOM     95  H   NAG d1181      15.270  -9.704  -1.904  0.00  0.00     0.090 H 
ATOM     96  H   NAG d1181      14.556  -9.119   0.629  0.00  0.00     0.132 H 
ATOM     97  H   NAG d1181      16.556 -10.737   0.165  0.00  0.00     0.163 HD
ATOM     98  H   NAG d1181      12.526 -11.017  -2.092  0.00  0.00     0.091 H 
ATOM     99  H   NAG d1181       9.524  -8.508  -1.373  0.00  0.00     0.209 HD
ATOM    100  H   NAG d1181      14.676 -12.340  -2.646  0.00  0.00     0.210 HD
ATOM    101  H   NAG d1181      13.500  -8.259  -1.454  0.00  0.00     0.090 H 
ATOM    102  H   NAG d1181      11.485  -7.325  -1.524  0.00  0.00     0.078 H 
ATOM    103  H   NAG d1181      11.312  -8.518  -2.809  0.00  0.00     0.078 H 
ATOM    104  C4  NAG d1179      13.990  -7.566   8.165  0.00  0.00     0.089 C 
ATOM    105  N2  NAG d1179      11.396 -10.292   8.801  0.00  0.00    -0.349 N 
ATOM    106  C6  NAG d1179      15.310  -6.452  10.016  0.00  0.00     0.043 C 
ATOM    107  O4  NAG d1179      15.056  -7.465   7.226  0.00  0.00    -0.390 OA
ATOM    108  O6  NAG d1179      14.411  -5.375  10.186  0.00  0.00    -0.398 OA
ATOM    109  C1  NAG d1179      12.847  -9.099  10.334  0.00  0.00     0.154 C 
ATOM    110  C5  NAG d1179      14.556  -7.695   9.577  0.00  0.00     0.089 C 
ATOM    111  O5  NAG d1179      13.503  -7.879  10.506  0.00  0.00    -0.349 OA
ATOM    112  C2  NAG d1179      12.148  -9.063   8.979  0.00  0.00     0.087 C 
ATOM    113  C8  NAG d1179       9.452 -11.614   8.379  0.00  0.00    -0.003 C 
ATOM    114  C7  NAG d1179      10.140 -10.291   8.358  0.00  0.00     0.214 C 
ATOM    115  C3  NAG d1179      13.141  -8.787   7.838  0.00  0.00     0.093 C 
ATOM    116  O3  NAG d1179      12.435  -8.538   6.631  0.00  0.00    -0.348 OA
ATOM    117  O7  NAG d1179       9.564  -9.291   7.943  0.00  0.00    -0.274 OA
ATOM    118  H   NAG d1179      13.384  -6.685   8.110  0.00  0.00     0.091 H 
ATOM    119  H   NAG d1179      11.828 -11.151   9.013  0.00  0.00     0.163 HD
ATOM    120  H   NAG d1179      16.034  -6.195   9.272  0.00  0.00     0.078 H 
ATOM    121  H   NAG d1179      15.801  -6.650  10.946  0.00  0.00     0.078 H 
ATOM    122  H   NAG d1179      15.606  -8.263   7.274  0.00  0.00     0.210 HD
ATOM    123  H   NAG d1179      13.963  -5.192   9.345  0.00  0.00     0.209 HD
ATOM    124  H   NAG d1179      13.565  -9.884  10.438  0.00  0.00     0.132 H 
ATOM    125  H   NAG d1179      15.222  -8.532   9.554  0.00  0.00     0.090 H 
ATOM    126  H   NAG d1179      11.456  -8.247   8.952  0.00  0.00     0.084 H 
ATOM    127  H   NAG d1179      10.116 -12.356   8.773  0.00  0.00     0.040 H 
ATOM    128  H   NAG d1179       9.168 -11.884   7.383  0.00  0.00     0.040 H 
ATOM    129  H   NAG d1179       8.580 -11.553   8.995  0.00  0.00     0.040 H 
ATOM    130  H   NAG d1179      13.769  -9.645   7.724  0.00  0.00     0.091 H 
ATOM    131  O5  BDP d1180      13.996  -9.140   5.045  0.00  0.00    -0.340 OA
ATOM    132  O6A BDP d1180      16.619 -10.562   3.522  0.00  0.00    -0.646 OA
ATOM    133  O2  BDP d1180      10.488 -10.059   5.117  0.00  0.00    -0.388 OA
ATOM    134  O3  BDP d1180      11.069  -9.697   2.256  0.00  0.00    -0.390 OA
ATOM    135  C5  BDP d1180      14.370  -9.971   3.968  0.00  0.00     0.152 C 
ATOM    136  C2  BDP d1180      11.626  -9.427   4.571  0.00  0.00     0.110 C 
ATOM    137  C3  BDP d1180      11.971 -10.127   3.260  0.00  0.00     0.092 C 
ATOM    138  C6  BDP d1180      15.798  -9.622   3.575  0.00  0.00     0.206 C 
ATOM    139  C1  BDP d1180      12.752  -9.486   5.603  0.00  0.00     0.160 C 
ATOM    140  C4  BDP d1180      13.387  -9.790   2.822  0.00  0.00     0.103 C 
ATOM    141  O6B BDP d1180      16.066  -8.412   3.351  0.00  0.00    -0.646 OA
ATOM    142  O4  BDP d1180      13.733 -10.663   1.781  0.00  0.00    -0.348 OA
ATOM    143  H   BDP d1180      10.249  -9.630   5.954  0.00  0.00     0.210 HD
ATOM    144  H   BDP d1180      10.161  -9.907   2.526  0.00  0.00     0.210 HD
ATOM    145  H   BDP d1180      14.342 -11.004   4.241  0.00  0.00     0.104 H 
ATOM    146  H   BDP d1180      11.453  -8.394   4.350  0.00  0.00     0.094 H 
ATOM    147  H   BDP d1180      11.898 -11.184   3.407  0.00  0.00     0.091 H 
ATOM    148  H   BDP d1180      12.831 -10.486   5.977  0.00  0.00     0.133 H 
ATOM    149  H   BDP d1180      13.426  -8.769   2.505  0.00  0.00     0.092 H 
ATOM    150  C3  BDP d1176       5.876 -14.933  19.840  0.00  0.00     0.092 C 
ATOM    151  O4  BDP d1176       6.875 -13.343  18.237  0.00  0.00    -0.348 OA
ATOM    152  O3  BDP d1176       7.062 -15.678  20.085  0.00  0.00    -0.390 OA
ATOM    153  O5  BDP d1176       3.410 -14.639  18.421  0.00  0.00    -0.340 OA
ATOM    154  O2  BDP d1176       4.620 -16.224  21.438  0.00  0.00    -0.388 OA
ATOM    155  C1  BDP d1176       3.330 -15.188  19.720  0.00  0.00     0.160 C 
ATOM    156  O6B BDP d1176       4.139 -12.051  16.552  0.00  0.00    -0.646 OA
ATOM    157  C5  BDP d1176       4.478 -13.710  18.208  0.00  0.00     0.152 C 
ATOM    158  O6A BDP d1176       4.310 -14.164  15.871  0.00  0.00    -0.646 OA
ATOM    159  C6  BDP d1176       4.308 -13.281  16.769  0.00  0.00     0.206 C 
ATOM    160  C4  BDP d1176       5.864 -14.320  18.430  0.00  0.00     0.103 C 
ATOM    161  C2  BDP d1176       4.665 -15.846  20.073  0.00  0.00     0.110 C 
ATOM    162  H   BDP d1176       5.833 -14.108  20.520  0.00  0.00     0.091 H 
ATOM    163  H   BDP d1176       7.106 -16.428  19.471  0.00  0.00     0.210 HD
ATOM    164  H   BDP d1176       5.458 -16.645  21.685  0.00  0.00     0.210 HD
ATOM    165  H   BDP d1176       3.095 -14.405  20.411  0.00  0.00     0.133 H 
ATOM    166  H   BDP d1176       4.427 -12.900  18.906  0.00  0.00     0.104 H 
ATOM    167  H   BDP d1176       6.071 -15.091  17.717  0.00  0.00     0.092 H 
ATOM    168  H   BDP d1176       4.793 -16.689  19.426  0.00  0.00     0.094 H 
ENDROOT
TORSDOF 43
ENDMDL
MODEL 54
REMARK VINA RESULT:      -5.6      4.647      6.387
REMARK  0 active torsions:
REMARK  status: ('A' for Active; 'I' for Inactive)
REMARK       I    between atoms: C3_1  and  O3_90 
REMARK       I    between atoms: O1_4  and  C1_76 
REMARK       I    between atoms: C2_5  and  N2_21 
REMARK       I    between atoms: C8_6  and  C7_66 
REMARK       I    between atoms: C4_7  and  O4_24 
REMARK       I    between atoms: N2_9  and  C2_60 
REMARK       I    between atoms: N2_9  and  C7_69 
REMARK       I    between atoms: O4_12  and  C4_26 
REMARK       I    between atoms: O3_13  and  C3_65 
REMARK       I    between atoms: O3_13  and  C1_61 
REMARK       I    between atoms: C3_14  and  O3_35 
REMARK       I    between atoms: C6_15  and  C5_53 
REMARK       I    between atoms: C6_15  and  O6_46 
REMARK       I    between atoms: O6_16  and  C6_54 
REMARK       I    between atoms: C4_17  and  O4_49 
REMARK       I    between atoms: O4_18  and  C4_28 
REMARK       I    between atoms: O4_18  and  C1_47 
REMARK       I    between atoms: C3_19  and  O3_43 
REMARK       I    between atoms: C1_20  and  O4_91 
REMARK       I    between atoms: N2_21  and  C7_66 
REMARK       I    between atoms: O3_22  and  C3_82 
REMARK       I    between atoms: C7_23  and  C8_62 
REMARK       I    between atoms: C7_23  and  N2_51 
REMARK       I    between atoms: C2_25  and  N2_41 
REMARK       I    between atoms: C1_27  and  O3_90 
REMARK       I    between atoms: O6_29  and  C6_74 
REMARK       I    between atoms: O2_30  and  C2_37 
REMARK       I    between atoms: C2_31  and  O2_42 
REMARK       I    between atoms: O3_32  and  C3_45 
REMARK       I    between atoms: O4_33  and  C4_73 
REMARK       I    between atoms: O4_34  and  C4_84 
REMARK       I    between atoms: O4_34  and  C1_85 
REMARK       I    between atoms: C5_36  and  C6_48 
REMARK       I    between atoms: C6_38  and  C5_40 
REMARK       I    between atoms: C6_38  and  O6_89 
REMARK       I    between atoms: N2_41  and  C7_50 
REMARK       I    between atoms: C5_44  and  C6_74 
REMARK       I    between atoms: C7_50  and  C8_75 
REMARK       I    between atoms: N2_51  and  C2_58 
REMARK       I    between atoms: C1_52  and  O3_87 
REMARK       I    between atoms: C6_54  and  C5_86 
REMARK       I    between atoms: O2_59  and  C2_93 
REMARK       I    between atoms: C8_64  and  C7_69 
REMARK       I    between atoms: C6_70  and  C5_80 
REMARK       I    between atoms: C4_72  and  O4_91 
REMARK       I    between atoms: C5_77  and  C6_79 
REMARK       I    between atoms: C3_83  and  O3_87 
ROOT
ATOM      1  C3  NAG d1177      14.757 -16.834   8.635  0.00  0.00     0.093 C 
ATOM      2  O7  NAG d1177      16.621 -13.648   9.823  0.00  0.00    -0.274 OA
ATOM      3  C4  NAG d1177      15.015 -18.335   8.854  0.00  0.00     0.089 C 
ATOM      4  C2  NAG d1177      15.008 -16.061   9.919  0.00  0.00     0.087 C 
ATOM      5  C6  NAG d1177      14.636 -20.310  10.424  0.00  0.00     0.043 C 
ATOM      6  C5  NAG d1177      14.301 -18.846  10.095  0.00  0.00     0.089 C 
ATOM      7  N2  NAG d1177      14.546 -14.664   9.824  0.00  0.00    -0.349 N 
ATOM      8  O4  NAG d1177      14.597 -19.082   7.728  0.00  0.00    -0.390 OA
ATOM      9  C7  NAG d1177      15.351 -13.600   9.769  0.00  0.00     0.214 C 
ATOM     10  O5  NAG d1177      14.653 -18.049  11.220  0.00  0.00    -0.349 OA
ATOM     11  C8  NAG d1177      14.581 -12.307   9.699  0.00  0.00    -0.003 C 
ATOM     12  C1  NAG d1177      14.268 -16.701  11.093  0.00  0.00     0.154 C 
ATOM     13  O6  NAG d1177      16.013 -20.462  10.721  0.00  0.00    -0.398 OA
ATOM     14  O3  NAG d1177      15.654 -16.338   7.679  0.00  0.00    -0.348 OA
ATOM     15  H   NAG d1177      13.742 -16.716   8.317  0.00  0.00     0.091 H 
ATOM     16  H   NAG d1177      16.069 -18.461   8.991  0.00  0.00     0.091 H 
ATOM     17  H   NAG d1177      16.067 -16.083  10.075  0.00  0.00     0.084 H 
ATOM     18  H   NAG d1177      14.390 -20.923   9.582  0.00  0.00     0.078 H 
ATOM     19  H   NAG d1177      14.068 -20.606  11.281  0.00  0.00     0.078 H 
ATOM     20  H   NAG d1177      13.254 -18.784   9.885  0.00  0.00     0.090 H 
ATOM     21  H   NAG d1177      13.574 -14.505   9.797  0.00  0.00     0.163 HD
ATOM     22  H   NAG d1177      13.642 -18.968   7.601  0.00  0.00     0.210 HD
ATOM     23  H   NAG d1177      15.267 -11.486   9.658  0.00  0.00     0.040 H 
ATOM     24  H   NAG d1177      13.964 -12.212  10.568  0.00  0.00     0.040 H 
ATOM     25  H   NAG d1177      13.967 -12.304   8.823  0.00  0.00     0.040 H 
ATOM     26  H   NAG d1177      13.213 -16.671  10.917  0.00  0.00     0.132 H 
ATOM     27  H   NAG d1177      16.542 -20.197   9.952  0.00  0.00     0.209 HD
ATOM     28  O6A BDP d1178      13.373 -18.196   3.903  0.00  0.00    -0.646 OA
ATOM     29  O4  BDP d1178      13.711 -14.290   3.026  0.00  0.00    -0.348 OA
ATOM     30  O3  BDP d1178      16.419 -13.811   3.758  0.00  0.00    -0.390 OA
ATOM     31  C1  BDP d1178      14.992 -15.673   6.594  0.00  0.00     0.160 C 
ATOM     32  C4  BDP d1178      14.458 -15.156   3.847  0.00  0.00     0.103 C 
ATOM     33  C2  BDP d1178      16.069 -15.022   5.752  0.00  0.00     0.110 C 
ATOM     34  O2  BDP d1178      16.839 -14.144   6.532  0.00  0.00    -0.388 OA
ATOM     35  O6B BDP d1178      11.734 -16.780   3.366  0.00  0.00    -0.646 OA
ATOM     36  O5  BDP d1178      14.266 -16.578   5.783  0.00  0.00    -0.340 OA
ATOM     37  C6  BDP d1178      12.821 -17.060   3.943  0.00  0.00     0.206 C 
ATOM     38  C5  BDP d1178      13.531 -15.962   4.745  0.00  0.00     0.152 C 
ATOM     39  C3  BDP d1178      15.408 -14.245   4.649  0.00  0.00     0.092 C 
ATOM     40  H   BDP d1178      16.017 -13.305   3.034  0.00  0.00     0.210 HD
ATOM     41  H   BDP d1178      14.296 -14.963   6.988  0.00  0.00     0.133 H 
ATOM     42  H   BDP d1178      15.014 -15.878   3.286  0.00  0.00     0.092 H 
ATOM     43  H   BDP d1178      16.710 -15.780   5.351  0.00  0.00     0.094 H 
ATOM     44  H   BDP d1178      16.267 -13.453   6.901  0.00  0.00     0.210 HD
ATOM     45  H   BDP d1178      12.810 -15.287   5.155  0.00  0.00     0.104 H 
ATOM     46  H   BDP d1178      14.860 -13.428   5.072  0.00  0.00     0.091 H 
ATOM     47  O1  NAG d1175      10.969 -14.846  21.796  0.00  0.00    -0.369 OA
ATOM     48  O3  NAG d1175      12.192 -15.773  17.371  0.00  0.00    -0.348 OA
ATOM     49  O6  NAG d1175       9.313 -10.760  19.412  0.00  0.00    -0.398 OA
ATOM     50  C7  NAG d1175      12.613 -17.607  19.814  0.00  0.00     0.214 C 
ATOM     51  O4  NAG d1175      11.319 -13.001  16.649  0.00  0.00    -0.390 OA
ATOM     52  N2  NAG d1175      12.513 -16.313  20.140  0.00  0.00    -0.349 N 
ATOM     53  C6  NAG d1175       9.398 -11.855  18.540  0.00  0.00     0.043 C 
ATOM     54  C2  NAG d1175      11.552 -15.354  19.572  0.00  0.00     0.087 C 
ATOM     55  C8  NAG d1175      11.448 -18.279  19.161  0.00  0.00    -0.003 C 
ATOM     56  O7  NAG d1175      13.644 -18.259  20.042  0.00  0.00    -0.274 OA
ATOM     57  C3  NAG d1175      12.026 -14.703  18.282  0.00  0.00     0.093 C 
ATOM     58  C4  NAG d1175      10.950 -13.702  17.838  0.00  0.00     0.089 C 
ATOM     59  C1  NAG d1175      11.314 -14.241  20.582  0.00  0.00     0.151 C 
ATOM     60  C5  NAG d1175      10.575 -12.723  18.957  0.00  0.00     0.089 C 
ATOM     61  O5  NAG d1175      10.250 -13.400  20.157  0.00  0.00    -0.349 OA
ATOM     62  H   NAG d1175      11.694 -15.421  22.088  0.00  0.00     0.212 HD
ATOM     63  H   NAG d1175       8.565 -10.200  19.156  0.00  0.00     0.209 HD
ATOM     64  H   NAG d1175      11.552 -13.639  15.956  0.00  0.00     0.210 HD
ATOM     65  H   NAG d1175      13.138 -15.972  20.820  0.00  0.00     0.163 HD
ATOM     66  H   NAG d1175       9.544 -11.506  17.540  0.00  0.00     0.078 H 
ATOM     67  H   NAG d1175       8.493 -12.425  18.582  0.00  0.00     0.078 H 
ATOM     68  H   NAG d1175      10.666 -15.912  19.351  0.00  0.00     0.084 H 
ATOM     69  H   NAG d1175      10.651 -17.575  19.042  0.00  0.00     0.040 H 
ATOM     70  H   NAG d1175      11.117 -19.093  19.772  0.00  0.00     0.040 H 
ATOM     71  H   NAG d1175      11.743 -18.651  18.202  0.00  0.00     0.040 H 
ATOM     72  H   NAG d1175      12.942 -14.159  18.368  0.00  0.00     0.091 H 
ATOM     73  H   NAG d1175      10.081 -14.282  17.609  0.00  0.00     0.091 H 
ATOM     74  H   NAG d1175      12.193 -13.640  20.681  0.00  0.00     0.132 H 
ATOM     75  H   NAG d1175      11.432 -12.108  19.133  0.00  0.00     0.090 H 
ATOM     76  C2  NAG d1181       5.398 -14.969  -5.763  0.00  0.00     0.087 C 
ATOM     77  C8  NAG d1181       4.487 -17.726  -5.299  0.00  0.00    -0.003 C 
ATOM     78  O5  NAG d1181       5.725 -12.733  -4.816  0.00  0.00    -0.349 OA
ATOM     79  O4  NAG d1181       3.034 -12.603  -7.321  0.00  0.00    -0.390 OA
ATOM     80  C3  NAG d1181       4.635 -14.352  -6.923  0.00  0.00     0.086 C 
ATOM     81  C1  NAG d1181       6.361 -13.965  -5.127  0.00  0.00     0.154 C 
ATOM     82  N2  NAG d1181       6.129 -16.151  -6.190  0.00  0.00    -0.349 N 
ATOM     83  C4  NAG d1181       3.906 -13.142  -6.351  0.00  0.00     0.089 C 
ATOM     84  O6  NAG d1181       4.170 -10.690  -4.115  0.00  0.00    -0.398 OA
ATOM     85  O3  NAG d1181       3.749 -15.281  -7.526  0.00  0.00    -0.391 OA
ATOM     86  C5  NAG d1181       4.987 -12.151  -5.887  0.00  0.00     0.089 C 
ATOM     87  O7  NAG d1181       6.785 -18.212  -5.556  0.00  0.00    -0.274 OA
ATOM     88  C7  NAG d1181       5.895 -17.374  -5.692  0.00  0.00     0.214 C 
ATOM     89  C6  NAG d1181       4.456 -10.764  -5.497  0.00  0.00     0.043 C 
ATOM     90  H   NAG d1181       4.677 -15.256  -5.027  0.00  0.00     0.084 H 
ATOM     91  H   NAG d1181       3.846 -16.888  -5.481  0.00  0.00     0.040 H 
ATOM     92  H   NAG d1181       4.459 -17.977  -4.259  0.00  0.00     0.040 H 
ATOM     93  H   NAG d1181       4.154 -18.562  -5.877  0.00  0.00     0.040 H 
ATOM     94  H   NAG d1181       2.378 -13.271  -7.574  0.00  0.00     0.210 HD
ATOM     95  H   NAG d1181       5.297 -14.057  -7.710  0.00  0.00     0.090 H 
ATOM     96  H   NAG d1181       7.155 -13.693  -5.791  0.00  0.00     0.132 H 
ATOM     97  H   NAG d1181       6.827 -16.049  -6.877  0.00  0.00     0.163 HD
ATOM     98  H   NAG d1181       3.287 -13.397  -5.517  0.00  0.00     0.091 H 
ATOM     99  H   NAG d1181       3.837  -9.805  -3.900  0.00  0.00     0.209 HD
ATOM    100  H   NAG d1181       3.112 -15.596  -6.865  0.00  0.00     0.210 HD
ATOM    101  H   NAG d1181       5.622 -11.971  -6.729  0.00  0.00     0.090 H 
ATOM    102  H   NAG d1181       5.193 -10.028  -5.739  0.00  0.00     0.078 H 
ATOM    103  H   NAG d1181       3.549 -10.588  -6.037  0.00  0.00     0.078 H 
ATOM    104  C4  NAG d1179      13.257 -13.686  -1.070  0.00  0.00     0.089 C 
ATOM    105  N2  NAG d1179      11.174 -14.380   2.052  0.00  0.00    -0.349 N 
ATOM    106  C6  NAG d1179      15.769 -13.988  -1.154  0.00  0.00     0.043 C 
ATOM    107  O4  NAG d1179      13.080 -14.053  -2.435  0.00  0.00    -0.390 OA
ATOM    108  O6  NAG d1179      16.072 -12.650  -0.813  0.00  0.00    -0.398 OA
ATOM    109  C1  NAG d1179      13.551 -14.633   1.646  0.00  0.00     0.154 C 
ATOM    110  C5  NAG d1179      14.469 -14.412  -0.492  0.00  0.00     0.089 C 
ATOM    111  O5  NAG d1179      14.601 -14.115   0.886  0.00  0.00    -0.349 OA
ATOM    112  C2  NAG d1179      12.275 -13.911   1.228  0.00  0.00     0.087 C 
ATOM    113  C8  NAG d1179       9.332 -14.157   3.556  0.00  0.00    -0.003 C 
ATOM    114  C7  NAG d1179      10.308 -13.538   2.614  0.00  0.00     0.214 C 
ATOM    115  C3  NAG d1179      12.010 -14.059  -0.279  0.00  0.00     0.093 C 
ATOM    116  O3  NAG d1179      10.950 -13.198  -0.671  0.00  0.00    -0.348 OA
ATOM    117  O7  NAG d1179      10.280 -12.333   2.384  0.00  0.00    -0.274 OA
ATOM    118  H   NAG d1179      13.418 -12.629  -1.005  0.00  0.00     0.091 H 
ATOM    119  H   NAG d1179      11.065 -15.347   2.199  0.00  0.00     0.163 HD
ATOM    120  H   NAG d1179      15.670 -14.070  -2.216  0.00  0.00     0.078 H 
ATOM    121  H   NAG d1179      16.559 -14.624  -0.814  0.00  0.00     0.078 H 
ATOM    122  H   NAG d1179      12.933 -15.010  -2.496  0.00  0.00     0.210 HD
ATOM    123  H   NAG d1179      15.358 -12.069  -1.120  0.00  0.00     0.209 HD
ATOM    124  H   NAG d1179      13.525 -15.693   1.503  0.00  0.00     0.132 H 
ATOM    125  H   NAG d1179      14.301 -15.454  -0.664  0.00  0.00     0.090 H 
ATOM    126  H   NAG d1179      12.384 -12.860   1.392  0.00  0.00     0.084 H 
ATOM    127  H   NAG d1179       9.518 -15.209   3.623  0.00  0.00     0.040 H 
ATOM    128  H   NAG d1179       8.338 -13.993   3.197  0.00  0.00     0.040 H 
ATOM    129  H   NAG d1179       9.440 -13.714   4.524  0.00  0.00     0.040 H 
ATOM    130  H   NAG d1179      11.746 -15.076  -0.478  0.00  0.00     0.091 H 
ATOM    131  O5  BDP d1180      10.143 -14.274  -2.544  0.00  0.00    -0.340 OA
ATOM    132  O6A BDP d1180       9.410 -16.635  -4.805  0.00  0.00    -0.646 OA
ATOM    133  O2  BDP d1180       8.201 -12.905   0.197  0.00  0.00    -0.388 OA
ATOM    134  O3  BDP d1180       6.542 -12.389  -2.177  0.00  0.00    -0.390 OA
ATOM    135  C5  BDP d1180       9.078 -14.923  -3.204  0.00  0.00     0.152 C 
ATOM    136  C2  BDP d1180       8.623 -12.984  -1.147  0.00  0.00     0.110 C 
ATOM    137  C3  BDP d1180       7.442 -13.466  -1.986  0.00  0.00     0.092 C 
ATOM    138  C6  BDP d1180       9.589 -15.425  -4.546  0.00  0.00     0.206 C 
ATOM    139  C1  BDP d1180       9.835 -13.914  -1.220  0.00  0.00     0.160 C 
ATOM    140  C4  BDP d1180       7.908 -13.962  -3.344  0.00  0.00     0.103 C 
ATOM    141  O6B BDP d1180      10.175 -14.602  -5.296  0.00  0.00    -0.646 OA
ATOM    142  O4  BDP d1180       6.836 -14.634  -3.947  0.00  0.00    -0.348 OA
ATOM    143  H   BDP d1180       8.938 -12.600   0.750  0.00  0.00     0.210 HD
ATOM    144  H   BDP d1180       6.239 -12.065  -1.314  0.00  0.00     0.210 HD
ATOM    145  H   BDP d1180       8.724 -15.763  -2.644  0.00  0.00     0.104 H 
ATOM    146  H   BDP d1180       8.929 -12.035  -1.537  0.00  0.00     0.094 H 
ATOM    147  H   BDP d1180       6.964 -14.273  -1.470  0.00  0.00     0.091 H 
ATOM    148  H   BDP d1180       9.619 -14.812  -0.680  0.00  0.00     0.133 H 
ATOM    149  H   BDP d1180       8.229 -13.129  -3.935  0.00  0.00     0.092 H 
ATOM    150  C3  BDP d1176      14.460 -16.929  14.565  0.00  0.00     0.092 C 
ATOM    151  O4  BDP d1176      14.549 -15.966  12.293  0.00  0.00    -0.348 OA
ATOM    152  O3  BDP d1176      14.760 -18.266  14.183  0.00  0.00    -0.390 OA
ATOM    153  O5  BDP d1176      12.510 -14.938  15.210  0.00  0.00    -0.340 OA
ATOM    154  O2  BDP d1176      14.413 -17.505  16.903  0.00  0.00    -0.388 OA
ATOM    155  C1  BDP d1176      13.140 -15.580  16.298  0.00  0.00     0.160 C 
ATOM    156  O6B BDP d1176      12.810 -12.986  12.598  0.00  0.00    -0.646 OA
ATOM    157  C5  BDP d1176      13.301 -14.812  14.024  0.00  0.00     0.152 C 
ATOM    158  O6A BDP d1176      11.275 -14.588  12.782  0.00  0.00    -0.646 OA
ATOM    159  C6  BDP d1176      12.397 -14.085  13.055  0.00  0.00     0.206 C 
ATOM    160  C4  BDP d1176      13.741 -16.159  13.444  0.00  0.00     0.103 C 
ATOM    161  C2  BDP d1176      13.629 -16.960  15.855  0.00  0.00     0.110 C 
ATOM    162  H   BDP d1176      15.374 -16.402  14.745  0.00  0.00     0.091 H 
ATOM    163  H   BDP d1176      13.934 -18.748  14.019  0.00  0.00     0.210 HD
ATOM    164  H   BDP d1176      14.735 -18.382  16.643  0.00  0.00     0.210 HD
ATOM    165  H   BDP d1176      13.957 -14.974  16.630  0.00  0.00     0.133 H 
ATOM    166  H   BDP d1176      14.216 -14.296  14.226  0.00  0.00     0.104 H 
ATOM    167  H   BDP d1176      12.903 -16.736  13.113  0.00  0.00     0.092 H 
ATOM    168  H   BDP d1176      12.767 -17.559  15.645  0.00  0.00     0.094 H 
ENDROOT
TORSDOF 43
ENDMDL
MODEL 55
REMARK VINA RESULT:      -5.6      3.459      4.497
REMARK  0 active torsions:
REMARK  status: ('A' for Active; 'I' for Inactive)
REMARK       I    between atoms: C3_1  and  O3_90 
REMARK       I    between atoms: O1_4  and  C1_76 
REMARK       I    between atoms: C2_5  and  N2_21 
REMARK       I    between atoms: C8_6  and  C7_66 
REMARK       I    between atoms: C4_7  and  O4_24 
REMARK       I    between atoms: N2_9  and  C2_60 
REMARK       I    between atoms: N2_9  and  C7_69 
REMARK       I    between atoms: O4_12  and  C4_26 
REMARK       I    between atoms: O3_13  and  C3_65 
REMARK       I    between atoms: O3_13  and  C1_61 
REMARK       I    between atoms: C3_14  and  O3_35 
REMARK       I    between atoms: C6_15  and  C5_53 
REMARK       I    between atoms: C6_15  and  O6_46 
REMARK       I    between atoms: O6_16  and  C6_54 
REMARK       I    between atoms: C4_17  and  O4_49 
REMARK       I    between atoms: O4_18  and  C4_28 
REMARK       I    between atoms: O4_18  and  C1_47 
REMARK       I    between atoms: C3_19  and  O3_43 
REMARK       I    between atoms: C1_20  and  O4_91 
REMARK       I    between atoms: N2_21  and  C7_66 
REMARK       I    between atoms: O3_22  and  C3_82 
REMARK       I    between atoms: C7_23  and  C8_62 
REMARK       I    between atoms: C7_23  and  N2_51 
REMARK       I    between atoms: C2_25  and  N2_41 
REMARK       I    between atoms: C1_27  and  O3_90 
REMARK       I    between atoms: O6_29  and  C6_74 
REMARK       I    between atoms: O2_30  and  C2_37 
REMARK       I    between atoms: C2_31  and  O2_42 
REMARK       I    between atoms: O3_32  and  C3_45 
REMARK       I    between atoms: O4_33  and  C4_73 
REMARK       I    between atoms: O4_34  and  C4_84 
REMARK       I    between atoms: O4_34  and  C1_85 
REMARK       I    between atoms: C5_36  and  C6_48 
REMARK       I    between atoms: C6_38  and  C5_40 
REMARK       I    between atoms: C6_38  and  O6_89 
REMARK       I    between atoms: N2_41  and  C7_50 
REMARK       I    between atoms: C5_44  and  C6_74 
REMARK       I    between atoms: C7_50  and  C8_75 
REMARK       I    between atoms: N2_51  and  C2_58 
REMARK       I    between atoms: C1_52  and  O3_87 
REMARK       I    between atoms: C6_54  and  C5_86 
REMARK       I    between atoms: O2_59  and  C2_93 
REMARK       I    between atoms: C8_64  and  C7_69 
REMARK       I    between atoms: C6_70  and  C5_80 
REMARK       I    between atoms: C4_72  and  O4_91 
REMARK       I    between atoms: C5_77  and  C6_79 
REMARK       I    between atoms: C3_83  and  O3_87 
ROOT
ATOM      1  C3  NAG d1177      12.954 -11.921  12.051  0.00  0.00     0.093 C 
ATOM      2  O7  NAG d1177       9.514 -10.833  13.472  0.00  0.00    -0.274 OA
ATOM      3  C4  NAG d1177      14.400 -11.671  12.515  0.00  0.00     0.089 C 
ATOM      4  C2  NAG d1177      12.058 -12.215  13.243  0.00  0.00     0.087 C 
ATOM      5  C6  NAG d1177      16.268 -12.486  14.050  0.00  0.00     0.043 C 
ATOM      6  C5  NAG d1177      14.876 -12.764  13.460  0.00  0.00     0.089 C 
ATOM      7  N2  NAG d1177      10.726 -12.693  12.830  0.00  0.00    -0.349 N 
ATOM      8  O4  NAG d1177      15.272 -11.594  11.405  0.00  0.00    -0.390 OA
ATOM      9  C7  NAG d1177       9.596 -11.993  12.954  0.00  0.00     0.214 C 
ATOM     10  O5  NAG d1177      13.960 -12.906  14.538  0.00  0.00    -0.349 OA
ATOM     11  C8  NAG d1177       8.394 -12.759  12.464  0.00  0.00    -0.003 C 
ATOM     12  C1  NAG d1177      12.670 -13.298  14.130  0.00  0.00     0.154 C 
ATOM     13  O6  NAG d1177      16.259 -11.313  14.844  0.00  0.00    -0.398 OA
ATOM     14  O3  NAG d1177      12.452 -10.765  11.439  0.00  0.00    -0.348 OA
ATOM     15  H   NAG d1177      12.963 -12.749  11.374  0.00  0.00     0.091 H 
ATOM     16  H   NAG d1177      14.410 -10.739  13.041  0.00  0.00     0.091 H 
ATOM     17  H   NAG d1177      11.963 -11.291  13.776  0.00  0.00     0.084 H 
ATOM     18  H   NAG d1177      16.969 -12.362  13.250  0.00  0.00     0.078 H 
ATOM     19  H   NAG d1177      16.548 -13.313  14.668  0.00  0.00     0.078 H 
ATOM     20  H   NAG d1177      14.934 -13.659  12.877  0.00  0.00     0.090 H 
ATOM     21  H   NAG d1177      10.666 -13.592  12.434  0.00  0.00     0.163 HD
ATOM     22  H   NAG d1177      15.265 -12.438  10.928  0.00  0.00     0.210 HD
ATOM     23  H   NAG d1177       7.517 -12.159  12.584  0.00  0.00     0.040 H 
ATOM     24  H   NAG d1177       8.291 -13.660  13.032  0.00  0.00     0.040 H 
ATOM     25  H   NAG d1177       8.523 -13.001  11.430  0.00  0.00     0.040 H 
ATOM     26  H   NAG d1177      12.759 -14.211  13.579  0.00  0.00     0.132 H 
ATOM     27  H   NAG d1177      16.007 -10.553  14.295  0.00  0.00     0.209 HD
ATOM     28  O6A BDP d1178      14.825 -11.356   7.325  0.00  0.00    -0.646 OA
ATOM     29  O4  BDP d1178      10.989 -10.956   6.200  0.00  0.00    -0.348 OA
ATOM     30  O3  BDP d1178      10.188  -8.751   7.810  0.00  0.00    -0.390 OA
ATOM     31  C1  BDP d1178      11.945 -11.015  10.120  0.00  0.00     0.160 C 
ATOM     32  C4  BDP d1178      11.708 -10.518   7.328  0.00  0.00     0.103 C 
ATOM     33  C2  BDP d1178      11.262  -9.743   9.661  0.00  0.00     0.110 C 
ATOM     34  O2  BDP d1178      10.252  -9.375  10.565  0.00  0.00    -0.388 OA
ATOM     35  O6B BDP d1178      13.626 -12.761   6.072  0.00  0.00    -0.646 OA
ATOM     36  O5  BDP d1178      12.980 -11.329   9.207  0.00  0.00    -0.340 OA
ATOM     37  C6  BDP d1178      13.750 -11.952   7.033  0.00  0.00     0.206 C 
ATOM     38  C5  BDP d1178      12.525 -11.660   7.910  0.00  0.00     0.152 C 
ATOM     39  C3  BDP d1178      10.646  -9.992   8.314  0.00  0.00     0.092 C 
ATOM     40  H   BDP d1178       9.784  -8.884   6.938  0.00  0.00     0.210 HD
ATOM     41  H   BDP d1178      11.277 -11.849  10.151  0.00  0.00     0.133 H 
ATOM     42  H   BDP d1178      12.415  -9.749   7.093  0.00  0.00     0.092 H 
ATOM     43  H   BDP d1178      11.983  -8.954   9.609  0.00  0.00     0.094 H 
ATOM     44  H   BDP d1178       9.593 -10.085  10.620  0.00  0.00     0.210 HD
ATOM     45  H   BDP d1178      11.894 -12.522   7.951  0.00  0.00     0.104 H 
ATOM     46  H   BDP d1178       9.855 -10.707   8.413  0.00  0.00     0.091 H 
ATOM     47  O1  NAG d1175      10.286 -20.454  22.614  0.00  0.00    -0.369 OA
ATOM     48  O3  NAG d1175      11.444 -17.616  19.073  0.00  0.00    -0.348 OA
ATOM     49  O6  NAG d1175       6.591 -21.351  19.350  0.00  0.00    -0.398 OA
ATOM     50  C7  NAG d1175      13.024 -18.024  21.690  0.00  0.00     0.214 C 
ATOM     51  O4  NAG d1175       8.840 -18.326  17.777  0.00  0.00    -0.390 OA
ATOM     52  N2  NAG d1175      11.723 -18.318  21.810  0.00  0.00    -0.349 N 
ATOM     53  C6  NAG d1175       7.739 -20.880  18.697  0.00  0.00     0.043 C 
ATOM     54  C2  NAG d1175      10.914 -19.055  20.827  0.00  0.00     0.087 C 
ATOM     55  C8  NAG d1175      13.858 -18.818  20.737  0.00  0.00    -0.003 C 
ATOM     56  O7  NAG d1175      13.550 -17.114  22.350  0.00  0.00    -0.274 OA
ATOM     57  C3  NAG d1175      10.326 -18.175  19.735  0.00  0.00     0.093 C 
ATOM     58  C4  NAG d1175       9.474 -19.067  18.820  0.00  0.00     0.089 C 
ATOM     59  C1  NAG d1175       9.751 -19.720  21.549  0.00  0.00     0.151 C 
ATOM     60  C5  NAG d1175       8.450 -19.892  19.609  0.00  0.00     0.089 C 
ATOM     61  O5  NAG d1175       9.055 -20.598  20.675  0.00  0.00    -0.349 OA
ATOM     62  H   NAG d1175      10.761 -19.856  23.213  0.00  0.00     0.212 HD
ATOM     63  H   NAG d1175       6.129 -21.982  18.777  0.00  0.00     0.209 HD
ATOM     64  H   NAG d1175       9.506 -17.813  17.293  0.00  0.00     0.210 HD
ATOM     65  H   NAG d1175      11.268 -18.013  22.628  0.00  0.00     0.163 HD
ATOM     66  H   NAG d1175       7.460 -20.393  17.786  0.00  0.00     0.078 H 
ATOM     67  H   NAG d1175       8.390 -21.698  18.469  0.00  0.00     0.078 H 
ATOM     68  H   NAG d1175      11.572 -19.759  20.362  0.00  0.00     0.084 H 
ATOM     69  H   NAG d1175      13.248 -19.555  20.257  0.00  0.00     0.040 H 
ATOM     70  H   NAG d1175      14.648 -19.302  21.272  0.00  0.00     0.040 H 
ATOM     71  H   NAG d1175      14.276 -18.165  19.999  0.00  0.00     0.040 H 
ATOM     72  H   NAG d1175       9.689 -17.392  20.088  0.00  0.00     0.091 H 
ATOM     73  H   NAG d1175      10.154 -19.752  18.357  0.00  0.00     0.091 H 
ATOM     74  H   NAG d1175       9.060 -18.979  21.895  0.00  0.00     0.132 H 
ATOM     75  H   NAG d1175       7.741 -19.202  20.015  0.00  0.00     0.090 H 
ATOM     76  C2  NAG d1181      13.195 -15.337  -4.880  0.00  0.00     0.087 C 
ATOM     77  C8  NAG d1181      15.981 -16.184  -4.475  0.00  0.00    -0.003 C 
ATOM     78  O5  NAG d1181      10.868 -15.524  -4.135  0.00  0.00    -0.349 OA
ATOM     79  O4  NAG d1181      11.207 -17.091  -7.447  0.00  0.00    -0.390 OA
ATOM     80  C3  NAG d1181      12.752 -15.650  -6.300  0.00  0.00     0.086 C 
ATOM     81  C1  NAG d1181      12.052 -14.744  -4.053  0.00  0.00     0.154 C 
ATOM     82  N2  NAG d1181      14.329 -14.429  -4.876  0.00  0.00    -0.349 N 
ATOM     83  C4  NAG d1181      11.577 -16.612  -6.172  0.00  0.00     0.089 C 
ATOM     84  O6  NAG d1181       8.938 -17.351  -4.282  0.00  0.00    -0.398 OA
ATOM     85  O3  NAG d1181      13.810 -16.189  -7.075  0.00  0.00    -0.391 OA
ATOM     86  C5  NAG d1181      10.450 -15.845  -5.460  0.00  0.00     0.089 C 
ATOM     87  O7  NAG d1181      16.257 -13.931  -3.820  0.00  0.00    -0.274 OA
ATOM     88  C7  NAG d1181      15.526 -14.756  -4.364  0.00  0.00     0.214 C 
ATOM     89  C6  NAG d1181       9.095 -16.567  -5.447  0.00  0.00     0.043 C 
ATOM     90  H   NAG d1181      13.490 -16.262  -4.431  0.00  0.00     0.084 H 
ATOM     91  H   NAG d1181      15.228 -16.761  -4.970  0.00  0.00     0.040 H 
ATOM     92  H   NAG d1181      16.149 -16.583  -3.495  0.00  0.00     0.040 H 
ATOM     93  H   NAG d1181      16.890 -16.226  -5.037  0.00  0.00     0.040 H 
ATOM     94  H   NAG d1181      11.955 -17.563  -7.844  0.00  0.00     0.210 HD
ATOM     95  H   NAG d1181      12.458 -14.762  -6.819  0.00  0.00     0.090 H 
ATOM     96  H   NAG d1181      11.759 -13.778  -4.408  0.00  0.00     0.132 H 
ATOM     97  H   NAG d1181      14.215 -13.532  -5.268  0.00  0.00     0.163 HD
ATOM     98  H   NAG d1181      11.824 -17.480  -5.597  0.00  0.00     0.091 H 
ATOM     99  H   NAG d1181       8.075 -17.794  -4.305  0.00  0.00     0.209 HD
ATOM    100  H   NAG d1181      14.131 -17.005  -6.662  0.00  0.00     0.210 HD
ATOM    101  H   NAG d1181      10.278 -14.954  -6.026  0.00  0.00     0.090 H 
ATOM    102  H   NAG d1181       8.312 -15.839  -5.485  0.00  0.00     0.078 H 
ATOM    103  H   NAG d1181       9.054 -17.217  -6.297  0.00  0.00     0.078 H 
ATOM    104  C4  NAG d1179      10.767  -9.887   2.180  0.00  0.00     0.089 C 
ATOM    105  N2  NAG d1179      11.407 -12.937   4.384  0.00  0.00    -0.349 N 
ATOM    106  C6  NAG d1179      10.826  -7.511   3.053  0.00  0.00     0.043 C 
ATOM    107  O4  NAG d1179      11.260  -9.520   0.895  0.00  0.00    -0.390 OA
ATOM    108  O6  NAG d1179       9.442  -7.440   3.328  0.00  0.00    -0.398 OA
ATOM    109  C1  NAG d1179      11.457 -10.569   4.904  0.00  0.00     0.154 C 
ATOM    110  C5  NAG d1179      11.321  -8.936   3.237  0.00  0.00     0.089 C 
ATOM    111  O5  NAG d1179      10.901  -9.346   4.527  0.00  0.00    -0.349 OA
ATOM    112  C2  NAG d1179      10.901 -11.640   3.972  0.00  0.00     0.087 C 
ATOM    113  C8  NAG d1179      11.245 -15.216   5.079  0.00  0.00    -0.003 C 
ATOM    114  C7  NAG d1179      10.612 -13.999   4.494  0.00  0.00     0.214 C 
ATOM    115  C3  NAG d1179      11.195 -11.314   2.498  0.00  0.00     0.093 C 
ATOM    116  O3  NAG d1179      10.478 -12.202   1.653  0.00  0.00    -0.348 OA
ATOM    117  O7  NAG d1179       9.439 -14.014   4.136  0.00  0.00    -0.274 OA
ATOM    118  H   NAG d1179       9.698  -9.827   2.181  0.00  0.00     0.091 H 
ATOM    119  H   NAG d1179      12.365 -13.033   4.589  0.00  0.00     0.163 HD
ATOM    120  H   NAG d1179      11.003  -7.203   2.044  0.00  0.00     0.078 H 
ATOM    121  H   NAG d1179      11.352  -6.867   3.726  0.00  0.00     0.078 H 
ATOM    122  H   NAG d1179      12.228  -9.575   0.892  0.00  0.00     0.210 HD
ATOM    123  H   NAG d1179       8.961  -8.023   2.719  0.00  0.00     0.209 HD
ATOM    124  H   NAG d1179      12.522 -10.475   4.881  0.00  0.00     0.132 H 
ATOM    125  H   NAG d1179      12.385  -8.964   3.134  0.00  0.00     0.090 H 
ATOM    126  H   NAG d1179       9.834 -11.664   4.046  0.00  0.00     0.084 H 
ATOM    127  H   NAG d1179      12.265 -15.004   5.326  0.00  0.00     0.040 H 
ATOM    128  H   NAG d1179      11.210 -16.014   4.366  0.00  0.00     0.040 H 
ATOM    129  H   NAG d1179      10.717 -15.504   5.963  0.00  0.00     0.040 H 
ATOM    130  H   NAG d1179      12.247 -11.421   2.333  0.00  0.00     0.091 H 
ATOM    131  O5  BDP d1180      11.777 -12.185  -0.252  0.00  0.00    -0.340 OA
ATOM    132  O6A BDP d1180      14.374 -11.877  -2.345  0.00  0.00    -0.646 OA
ATOM    133  O2  BDP d1180      10.388 -15.089   1.421  0.00  0.00    -0.388 OA
ATOM    134  O3  BDP d1180      10.232 -15.772  -1.436  0.00  0.00    -0.390 OA
ATOM    135  C5  BDP d1180      12.579 -12.886  -1.177  0.00  0.00     0.152 C 
ATOM    136  C2  BDP d1180      10.534 -14.193   0.341  0.00  0.00     0.110 C 
ATOM    137  C3  BDP d1180      11.196 -14.944  -0.811  0.00  0.00     0.092 C 
ATOM    138  C6  BDP d1180      13.136 -11.882  -2.175  0.00  0.00     0.206 C 
ATOM    139  C1  BDP d1180      11.342 -12.987   0.819  0.00  0.00     0.160 C 
ATOM    140  C4  BDP d1180      11.752 -13.976  -1.841  0.00  0.00     0.103 C 
ATOM    141  O6B BDP d1180      12.323 -11.111  -2.748  0.00  0.00    -0.646 OA
ATOM    142  O4  BDP d1180      12.573 -14.703  -2.714  0.00  0.00    -0.348 OA
ATOM    143  H   BDP d1180       9.968 -14.632   2.167  0.00  0.00     0.210 HD
ATOM    144  H   BDP d1180       9.870 -16.394  -0.786  0.00  0.00     0.210 HD
ATOM    145  H   BDP d1180      13.402 -13.371  -0.695  0.00  0.00     0.104 H 
ATOM    146  H   BDP d1180       9.594 -13.823  -0.014  0.00  0.00     0.094 H 
ATOM    147  H   BDP d1180      12.001 -15.530  -0.418  0.00  0.00     0.091 H 
ATOM    148  H   BDP d1180      12.210 -13.333   1.340  0.00  0.00     0.133 H 
ATOM    149  H   BDP d1180      10.942 -13.510  -2.363  0.00  0.00     0.092 H 
ATOM    150  C3  BDP d1176      12.595 -14.400  17.435  0.00  0.00     0.092 C 
ATOM    151  O4  BDP d1176      11.817 -13.530  15.260  0.00  0.00    -0.348 OA
ATOM    152  O3  BDP d1176      13.923 -13.898  17.341  0.00  0.00    -0.390 OA
ATOM    153  O5  BDP d1176      10.760 -16.568  17.098  0.00  0.00    -0.340 OA
ATOM    154  O2  BDP d1176      12.982 -15.279  19.643  0.00  0.00    -0.388 OA
ATOM    155  C1  BDP d1176      11.247 -16.351  18.405  0.00  0.00     0.160 C 
ATOM    156  O6B BDP d1176       9.007 -15.436  14.574  0.00  0.00    -0.646 OA
ATOM    157  C5  BDP d1176      10.654 -15.401  16.276  0.00  0.00     0.152 C 
ATOM    158  O6A BDP d1176      10.732 -16.829  14.364  0.00  0.00    -0.646 OA
ATOM    159  C6  BDP d1176      10.101 -15.922  14.969  0.00  0.00     0.206 C 
ATOM    160  C4  BDP d1176      11.994 -14.695  16.051  0.00  0.00     0.103 C 
ATOM    161  C2  BDP d1176      12.604 -15.648  18.328  0.00  0.00     0.110 C 
ATOM    162  H   BDP d1176      11.968 -13.653  17.876  0.00  0.00     0.091 H 
ATOM    163  H   BDP d1176      14.496 -14.571  16.942  0.00  0.00     0.210 HD
ATOM    164  H   BDP d1176      13.841 -14.830  19.619  0.00  0.00     0.210 HD
ATOM    165  H   BDP d1176      10.538 -15.755  18.942  0.00  0.00     0.133 H 
ATOM    166  H   BDP d1176      10.036 -14.661  16.739  0.00  0.00     0.104 H 
ATOM    167  H   BDP d1176      12.675 -15.312  15.504  0.00  0.00     0.092 H 
ATOM    168  H   BDP d1176      13.300 -16.331  17.887  0.00  0.00     0.094 H 
ENDROOT
TORSDOF 43
ENDMDL
MODEL 56
REMARK VINA RESULT:      -5.4      5.211      7.144
REMARK  0 active torsions:
REMARK  status: ('A' for Active; 'I' for Inactive)
REMARK       I    between atoms: C3_1  and  O3_90 
REMARK       I    between atoms: O1_4  and  C1_76 
REMARK       I    between atoms: C2_5  and  N2_21 
REMARK       I    between atoms: C8_6  and  C7_66 
REMARK       I    between atoms: C4_7  and  O4_24 
REMARK       I    between atoms: N2_9  and  C2_60 
REMARK       I    between atoms: N2_9  and  C7_69 
REMARK       I    between atoms: O4_12  and  C4_26 
REMARK       I    between atoms: O3_13  and  C3_65 
REMARK       I    between atoms: O3_13  and  C1_61 
REMARK       I    between atoms: C3_14  and  O3_35 
REMARK       I    between atoms: C6_15  and  C5_53 
REMARK       I    between atoms: C6_15  and  O6_46 
REMARK       I    between atoms: O6_16  and  C6_54 
REMARK       I    between atoms: C4_17  and  O4_49 
REMARK       I    between atoms: O4_18  and  C4_28 
REMARK       I    between atoms: O4_18  and  C1_47 
REMARK       I    between atoms: C3_19  and  O3_43 
REMARK       I    between atoms: C1_20  and  O4_91 
REMARK       I    between atoms: N2_21  and  C7_66 
REMARK       I    between atoms: O3_22  and  C3_82 
REMARK       I    between atoms: C7_23  and  C8_62 
REMARK       I    between atoms: C7_23  and  N2_51 
REMARK       I    between atoms: C2_25  and  N2_41 
REMARK       I    between atoms: C1_27  and  O3_90 
REMARK       I    between atoms: O6_29  and  C6_74 
REMARK       I    between atoms: O2_30  and  C2_37 
REMARK       I    between atoms: C2_31  and  O2_42 
REMARK       I    between atoms: O3_32  and  C3_45 
REMARK       I    between atoms: O4_33  and  C4_73 
REMARK       I    between atoms: O4_34  and  C4_84 
REMARK       I    between atoms: O4_34  and  C1_85 
REMARK       I    between atoms: C5_36  and  C6_48 
REMARK       I    between atoms: C6_38  and  C5_40 
REMARK       I    between atoms: C6_38  and  O6_89 
REMARK       I    between atoms: N2_41  and  C7_50 
REMARK       I    between atoms: C5_44  and  C6_74 
REMARK       I    between atoms: C7_50  and  C8_75 
REMARK       I    between atoms: N2_51  and  C2_58 
REMARK       I    between atoms: C1_52  and  O3_87 
REMARK       I    between atoms: C6_54  and  C5_86 
REMARK       I    between atoms: O2_59  and  C2_93 
REMARK       I    between atoms: C8_64  and  C7_69 
REMARK       I    between atoms: C6_70  and  C5_80 
REMARK       I    between atoms: C4_72  and  O4_91 
REMARK       I    between atoms: C5_77  and  C6_79 
REMARK       I    between atoms: C3_83  and  O3_87 
ROOT
ATOM      1  C3  NAG d1177      14.283 -18.408   8.821  0.00  0.00     0.093 C 
ATOM      2  O7  NAG d1177      16.935 -15.723   9.709  0.00  0.00    -0.274 OA
ATOM      3  C4  NAG d1177      14.172 -19.910   9.141  0.00  0.00     0.089 C 
ATOM      4  C2  NAG d1177      14.782 -17.644  10.036  0.00  0.00     0.087 C 
ATOM      5  C6  NAG d1177      13.397 -21.625  10.863  0.00  0.00     0.043 C 
ATOM      6  C5  NAG d1177      13.418 -20.147  10.439  0.00  0.00     0.089 C 
ATOM      7  N2  NAG d1177      14.676 -16.185   9.854  0.00  0.00    -0.349 N 
ATOM      8  O4  NAG d1177      13.525 -20.596   8.087  0.00  0.00    -0.390 OA
ATOM      9  C7  NAG d1177      15.715 -15.362   9.695  0.00  0.00     0.214 C 
ATOM     10  O5  NAG d1177      14.013 -19.395  11.490  0.00  0.00    -0.349 OA
ATOM     11  C8  NAG d1177      15.287 -13.924   9.556  0.00  0.00    -0.003 C 
ATOM     12  C1  NAG d1177      13.967 -18.003  11.278  0.00  0.00     0.154 C 
ATOM     13  O6  NAG d1177      14.707 -22.097  11.124  0.00  0.00    -0.398 OA
ATOM     14  O3  NAG d1177      15.225 -18.214   7.802  0.00  0.00    -0.348 OA
ATOM     15  H   NAG d1177      13.314 -18.061   8.530  0.00  0.00     0.091 H 
ATOM     16  H   NAG d1177      15.168 -20.287   9.251  0.00  0.00     0.091 H 
ATOM     17  H   NAG d1177      15.809 -17.921  10.157  0.00  0.00     0.084 H 
ATOM     18  H   NAG d1177      12.965 -22.208  10.077  0.00  0.00     0.078 H 
ATOM     19  H   NAG d1177      12.818 -21.714  11.758  0.00  0.00     0.078 H 
ATOM     20  H   NAG d1177      12.410 -19.838  10.261  0.00  0.00     0.090 H 
ATOM     21  H   NAG d1177      13.774 -15.789   9.849  0.00  0.00     0.163 HD
ATOM     22  H   NAG d1177      12.623 -20.256   7.985  0.00  0.00     0.210 HD
ATOM     23  H   NAG d1177      16.151 -13.305   9.431  0.00  0.00     0.040 H 
ATOM     24  H   NAG d1177      14.757 -13.623  10.436  0.00  0.00     0.040 H 
ATOM     25  H   NAG d1177      14.649 -13.822   8.703  0.00  0.00     0.040 H 
ATOM     26  H   NAG d1177      12.945 -17.721  11.136  0.00  0.00     0.132 H 
ATOM     27  H   NAG d1177      15.245 -22.022  10.320  0.00  0.00     0.209 HD
ATOM     28  O6A BDP d1178      12.365 -19.674   4.251  0.00  0.00    -0.646 OA
ATOM     29  O4  BDP d1178      13.614 -16.040   3.079  0.00  0.00    -0.348 OA
ATOM     30  O3  BDP d1178      16.390 -16.209   3.682  0.00  0.00    -0.390 OA
ATOM     31  C1  BDP d1178      14.693 -17.473   6.694  0.00  0.00     0.160 C 
ATOM     32  C4  BDP d1178      14.164 -17.012   3.936  0.00  0.00     0.103 C 
ATOM     33  C2  BDP d1178      15.853 -17.167   5.770  0.00  0.00     0.110 C 
ATOM     34  O2  BDP d1178      16.855 -16.462   6.457  0.00  0.00    -0.388 OA
ATOM     35  O6B BDP d1178      11.102 -17.929   3.667  0.00  0.00    -0.646 OA
ATOM     36  O5  BDP d1178      13.726 -18.217   5.976  0.00  0.00    -0.340 OA
ATOM     37  C6  BDP d1178      12.114 -18.436   4.226  0.00  0.00     0.206 C 
ATOM     38  C5  BDP d1178      13.114 -17.502   4.921  0.00  0.00     0.152 C 
ATOM     39  C3  BDP d1178      15.350 -16.320   4.636  0.00  0.00     0.092 C 
ATOM     40  H   BDP d1178      16.089 -15.665   2.937  0.00  0.00     0.210 HD
ATOM     41  H   BDP d1178      14.215 -16.588   7.058  0.00  0.00     0.133 H 
ATOM     42  H   BDP d1178      14.495 -17.884   3.411  0.00  0.00     0.092 H 
ATOM     43  H   BDP d1178      16.265 -18.084   5.404  0.00  0.00     0.094 H 
ATOM     44  H   BDP d1178      16.491 -15.628   6.794  0.00  0.00     0.210 HD
ATOM     45  H   BDP d1178      12.604 -16.644   5.305  0.00  0.00     0.104 H 
ATOM     46  H   BDP d1178      15.043 -15.367   5.016  0.00  0.00     0.091 H 
ATOM     47  O1  NAG d1175      11.781 -14.715  21.921  0.00  0.00    -0.369 OA
ATOM     48  O3  NAG d1175      12.509 -16.194  17.538  0.00  0.00    -0.348 OA
ATOM     49  O6  NAG d1175      11.067 -10.503  19.302  0.00  0.00    -0.398 OA
ATOM     50  C7  NAG d1175      12.587 -17.919  20.093  0.00  0.00     0.214 C 
ATOM     51  O4  NAG d1175      12.313 -13.343  16.644  0.00  0.00    -0.390 OA
ATOM     52  N2  NAG d1175      12.827 -16.623  20.326  0.00  0.00    -0.349 N 
ATOM     53  C6  NAG d1175      10.834 -11.636  18.510  0.00  0.00     0.043 C 
ATOM     54  C2  NAG d1175      12.105 -15.492  19.722  0.00  0.00     0.087 C 
ATOM     55  C8  NAG d1175      11.261 -18.318  19.530  0.00  0.00    -0.003 C 
ATOM     56  O7  NAG d1175      13.435 -18.792  20.333  0.00  0.00    -0.274 OA
ATOM     57  C3  NAG d1175      12.659 -15.062  18.372  0.00  0.00     0.093 C 
ATOM     58  C4  NAG d1175      11.844 -13.853  17.893  0.00  0.00     0.089 C 
ATOM     59  C1  NAG d1175      12.202 -14.293  20.655  0.00  0.00     0.151 C 
ATOM     60  C5  NAG d1175      11.780 -12.744  18.949  0.00  0.00     0.089 C 
ATOM     61  O5  NAG d1175      11.359 -13.241  20.206  0.00  0.00    -0.349 OA
ATOM     62  H   NAG d1175      12.355 -15.434  22.230  0.00  0.00     0.212 HD
ATOM     63  H   NAG d1175      10.469  -9.790  19.030  0.00  0.00     0.209 HD
ATOM     64  H   NAG d1175      12.346 -14.061  15.992  0.00  0.00     0.210 HD
ATOM     65  H   NAG d1175      13.551 -16.407  20.958  0.00  0.00     0.163 HD
ATOM     66  H   NAG d1175      11.011 -11.399  17.482  0.00  0.00     0.078 H 
ATOM     67  H   NAG d1175       9.820 -11.958  18.624  0.00  0.00     0.078 H 
ATOM     68  H   NAG d1175      11.099 -15.823  19.573  0.00  0.00     0.084 H 
ATOM     69  H   NAG d1175      10.657 -17.445  19.387  0.00  0.00     0.040 H 
ATOM     70  H   NAG d1175      10.770 -18.983  20.211  0.00  0.00     0.040 H 
ATOM     71  H   NAG d1175      11.405 -18.811  18.592  0.00  0.00     0.040 H 
ATOM     72  H   NAG d1175      13.685 -14.760  18.388  0.00  0.00     0.091 H 
ATOM     73  H   NAG d1175      10.847 -14.210  17.737  0.00  0.00     0.091 H 
ATOM     74  H   NAG d1175      13.207 -13.927  20.680  0.00  0.00     0.132 H 
ATOM     75  H   NAG d1175      12.770 -12.352  19.051  0.00  0.00     0.090 H 
ATOM     76  C2  NAG d1181       4.955 -15.165  -5.351  0.00  0.00     0.087 C 
ATOM     77  C8  NAG d1181       3.415 -17.572  -4.655  0.00  0.00    -0.003 C 
ATOM     78  O5  NAG d1181       5.872 -13.027  -4.582  0.00  0.00    -0.349 OA
ATOM     79  O4  NAG d1181       3.173 -12.385  -6.997  0.00  0.00    -0.390 OA
ATOM     80  C3  NAG d1181       4.309 -14.451  -6.527  0.00  0.00     0.086 C 
ATOM     81  C1  NAG d1181       6.167 -14.396  -4.823  0.00  0.00     0.154 C 
ATOM     82  N2  NAG d1181       5.347 -16.516  -5.715  0.00  0.00    -0.349 N 
ATOM     83  C4  NAG d1181       3.932 -13.063  -6.020  0.00  0.00     0.089 C 
ATOM     84  O6  NAG d1181       4.909 -10.620  -3.980  0.00  0.00    -0.398 OA
ATOM     85  O3  NAG d1181       3.191 -15.164  -7.029  0.00  0.00    -0.391 OA
ATOM     86  C5  NAG d1181       5.248 -12.347  -5.667  0.00  0.00     0.089 C 
ATOM     87  O7  NAG d1181       5.504 -18.632  -4.954  0.00  0.00    -0.274 OA
ATOM     88  C7  NAG d1181       4.844 -17.609  -5.120  0.00  0.00     0.214 C 
ATOM     89  C6  NAG d1181       5.096 -10.850  -5.361  0.00  0.00     0.043 C 
ATOM     90  H   NAG d1181       4.223 -15.215  -4.572  0.00  0.00     0.084 H 
ATOM     91  H   NAG d1181       2.992 -16.613  -4.877  0.00  0.00     0.040 H 
ATOM     92  H   NAG d1181       3.378 -17.742  -3.599  0.00  0.00     0.040 H 
ATOM     93  H   NAG d1181       2.856 -18.332  -5.159  0.00  0.00     0.040 H 
ATOM     94  H   NAG d1181       2.360 -12.881  -7.178  0.00  0.00     0.210 HD
ATOM     95  H   NAG d1181       4.983 -14.380  -7.355  0.00  0.00     0.090 H 
ATOM     96  H   NAG d1181       6.968 -14.374  -5.531  0.00  0.00     0.132 H 
ATOM     97  H   NAG d1181       6.013 -16.636  -6.430  0.00  0.00     0.163 HD
ATOM     98  H   NAG d1181       3.313 -13.103  -5.149  0.00  0.00     0.091 H 
ATOM     99  H   NAG d1181       4.817  -9.668  -3.820  0.00  0.00     0.209 HD
ATOM    100  H   NAG d1181       2.532 -15.267  -6.326  0.00  0.00     0.210 HD
ATOM    101  H   NAG d1181       5.864 -12.386  -6.541  0.00  0.00     0.090 H 
ATOM    102  H   NAG d1181       5.979 -10.339  -5.682  0.00  0.00     0.078 H 
ATOM    103  H   NAG d1181       4.235 -10.486  -5.882  0.00  0.00     0.078 H 
ATOM    104  C4  NAG d1179      13.115 -15.599  -1.033  0.00  0.00     0.089 C 
ATOM    105  N2  NAG d1179      11.088 -15.552   2.200  0.00  0.00    -0.349 N 
ATOM    106  C6  NAG d1179      15.467 -16.525  -1.178  0.00  0.00     0.043 C 
ATOM    107  O4  NAG d1179      12.783 -15.995  -2.360  0.00  0.00    -0.390 OA
ATOM    108  O6  NAG d1179      16.108 -15.287  -0.947  0.00  0.00    -0.398 OA
ATOM    109  C1  NAG d1179      13.304 -16.417   1.735  0.00  0.00     0.154 C 
ATOM    110  C5  NAG d1179      14.138 -16.567  -0.444  0.00  0.00     0.089 C 
ATOM    111  O5  NAG d1179      14.409 -16.227   0.904  0.00  0.00    -0.349 OA
ATOM    112  C2  NAG d1179      12.226 -15.427   1.308  0.00  0.00     0.087 C 
ATOM    113  C8  NAG d1179       9.437 -14.782   3.746  0.00  0.00    -0.003 C 
ATOM    114  C7  NAG d1179      10.487 -14.487   2.728  0.00  0.00     0.214 C 
ATOM    115  C3  NAG d1179      11.856 -15.597  -0.175  0.00  0.00     0.093 C 
ATOM    116  O3  NAG d1179      11.024 -14.525  -0.593  0.00  0.00    -0.348 OA
ATOM    117  O7  NAG d1179      10.745 -13.331   2.412  0.00  0.00    -0.274 OA
ATOM    118  H   NAG d1179      13.536 -14.614  -1.051  0.00  0.00     0.091 H 
ATOM    119  H   NAG d1179      10.750 -16.450   2.422  0.00  0.00     0.163 HD
ATOM    120  H   NAG d1179      15.297 -16.645  -2.228  0.00  0.00     0.078 H 
ATOM    121  H   NAG d1179      16.091 -17.316  -0.820  0.00  0.00     0.078 H 
ATOM    122  H   NAG d1179      12.402 -16.887  -2.345  0.00  0.00     0.210 HD
ATOM    123  H   NAG d1179      15.545 -14.566  -1.271  0.00  0.00     0.209 HD
ATOM    124  H   NAG d1179      13.009 -17.444   1.671  0.00  0.00     0.132 H 
ATOM    125  H   NAG d1179      13.708 -17.543  -0.533  0.00  0.00     0.090 H 
ATOM    126  H   NAG d1179      12.601 -14.428   1.391  0.00  0.00     0.084 H 
ATOM    127  H   NAG d1179       9.360 -15.841   3.884  0.00  0.00     0.040 H 
ATOM    128  H   NAG d1179       8.497 -14.397   3.410  0.00  0.00     0.040 H 
ATOM    129  H   NAG d1179       9.700 -14.320   4.674  0.00  0.00     0.040 H 
ATOM    130  H   NAG d1179      11.340 -16.527  -0.289  0.00  0.00     0.091 H 
ATOM    131  O5  BDP d1180       9.882 -15.480  -2.353  0.00  0.00    -0.340 OA
ATOM    132  O6A BDP d1180       8.473 -17.718  -4.409  0.00  0.00    -0.646 OA
ATOM    133  O2  BDP d1180       8.481 -13.500   0.344  0.00  0.00    -0.388 OA
ATOM    134  O3  BDP d1180       6.883 -12.734  -2.004  0.00  0.00    -0.390 OA
ATOM    135  C5  BDP d1180       8.657 -15.882  -2.927  0.00  0.00     0.152 C 
ATOM    136  C2  BDP d1180       8.801 -13.766  -1.004  0.00  0.00     0.110 C 
ATOM    137  C3  BDP d1180       7.497 -13.989  -1.765  0.00  0.00     0.092 C 
ATOM    138  C6  BDP d1180       8.958 -16.579  -4.245  0.00  0.00     0.206 C 
ATOM    139  C1  BDP d1180       9.740 -14.971  -1.050  0.00  0.00     0.160 C 
ATOM    140  C4  BDP d1180       7.756 -14.669  -3.098  0.00  0.00     0.103 C 
ATOM    141  O6B BDP d1180       9.691 -15.977  -5.073  0.00  0.00    -0.646 OA
ATOM    142  O4  BDP d1180       6.521 -15.087  -3.614  0.00  0.00    -0.348 OA
ATOM    143  H   BDP d1180       9.298 -13.355   0.848  0.00  0.00     0.210 HD
ATOM    144  H   BDP d1180       6.713 -12.291  -1.158  0.00  0.00     0.210 HD
ATOM    145  H   BDP d1180       8.135 -16.570  -2.296  0.00  0.00     0.104 H 
ATOM    146  H   BDP d1180       9.312 -12.950  -1.472  0.00  0.00     0.094 H 
ATOM    147  H   BDP d1180       6.861 -14.616  -1.175  0.00  0.00     0.091 H 
ATOM    148  H   BDP d1180       9.336 -15.751  -0.438  0.00  0.00     0.133 H 
ATOM    149  H   BDP d1180       8.242 -13.981  -3.759  0.00  0.00     0.092 H 
ATOM    150  C3  BDP d1176      14.274 -18.054  14.749  0.00  0.00     0.092 C 
ATOM    151  O4  BDP d1176      14.482 -17.289  12.411  0.00  0.00    -0.348 OA
ATOM    152  O3  BDP d1176      14.214 -19.445  14.456  0.00  0.00    -0.390 OA
ATOM    153  O5  BDP d1176      12.913 -15.602  15.311  0.00  0.00    -0.340 OA
ATOM    154  O2  BDP d1176      14.205 -18.453  17.123  0.00  0.00    -0.388 OA
ATOM    155  C1  BDP d1176      13.419 -16.313  16.422  0.00  0.00     0.160 C 
ATOM    156  O6B BDP d1176      13.553 -13.955  12.554  0.00  0.00    -0.646 OA
ATOM    157  C5  BDP d1176      13.649 -15.753  14.093  0.00  0.00     0.152 C 
ATOM    158  O6A BDP d1176      11.681 -15.107  12.908  0.00  0.00    -0.646 OA
ATOM    159  C6  BDP d1176      12.905 -14.885  13.105  0.00  0.00     0.206 C 
ATOM    160  C4  BDP d1176      13.712 -17.201  13.600  0.00  0.00     0.103 C 
ATOM    161  C2  BDP d1176      13.528 -17.796  16.064  0.00  0.00     0.110 C 
ATOM    162  H   BDP d1176      15.298 -17.763  14.859  0.00  0.00     0.091 H 
ATOM    163  H   BDP d1176      13.287 -19.714  14.355  0.00  0.00     0.210 HD
ATOM    164  H   BDP d1176      14.286 -19.397  16.917  0.00  0.00     0.210 HD
ATOM    165  H   BDP d1176      14.377 -15.910  16.681  0.00  0.00     0.133 H 
ATOM    166  H   BDP d1176      14.672 -15.471  14.226  0.00  0.00     0.104 H 
ATOM    167  H   BDP d1176      12.741 -17.569  13.340  0.00  0.00     0.092 H 
ATOM    168  H   BDP d1176      12.536 -18.172  15.929  0.00  0.00     0.094 H 
ENDROOT
TORSDOF 43
ENDMDL
MODEL 57
REMARK VINA RESULT:      -5.4      4.562      5.983
REMARK  0 active torsions:
REMARK  status: ('A' for Active; 'I' for Inactive)
REMARK       I    between atoms: C3_1  and  O3_90 
REMARK       I    between atoms: O1_4  and  C1_76 
REMARK       I    between atoms: C2_5  and  N2_21 
REMARK       I    between atoms: C8_6  and  C7_66 
REMARK       I    between atoms: C4_7  and  O4_24 
REMARK       I    between atoms: N2_9  and  C2_60 
REMARK       I    between atoms: N2_9  and  C7_69 
REMARK       I    between atoms: O4_12  and  C4_26 
REMARK       I    between atoms: O3_13  and  C3_65 
REMARK       I    between atoms: O3_13  and  C1_61 
REMARK       I    between atoms: C3_14  and  O3_35 
REMARK       I    between atoms: C6_15  and  C5_53 
REMARK       I    between atoms: C6_15  and  O6_46 
REMARK       I    between atoms: O6_16  and  C6_54 
REMARK       I    between atoms: C4_17  and  O4_49 
REMARK       I    between atoms: O4_18  and  C4_28 
REMARK       I    between atoms: O4_18  and  C1_47 
REMARK       I    between atoms: C3_19  and  O3_43 
REMARK       I    between atoms: C1_20  and  O4_91 
REMARK       I    between atoms: N2_21  and  C7_66 
REMARK       I    between atoms: O3_22  and  C3_82 
REMARK       I    between atoms: C7_23  and  C8_62 
REMARK       I    between atoms: C7_23  and  N2_51 
REMARK       I    between atoms: C2_25  and  N2_41 
REMARK       I    between atoms: C1_27  and  O3_90 
REMARK       I    between atoms: O6_29  and  C6_74 
REMARK       I    between atoms: O2_30  and  C2_37 
REMARK       I    between atoms: C2_31  and  O2_42 
REMARK       I    between atoms: O3_32  and  C3_45 
REMARK       I    between atoms: O4_33  and  C4_73 
REMARK       I    between atoms: O4_34  and  C4_84 
REMARK       I    between atoms: O4_34  and  C1_85 
REMARK       I    between atoms: C5_36  and  C6_48 
REMARK       I    between atoms: C6_38  and  C5_40 
REMARK       I    between atoms: C6_38  and  O6_89 
REMARK       I    between atoms: N2_41  and  C7_50 
REMARK       I    between atoms: C5_44  and  C6_74 
REMARK       I    between atoms: C7_50  and  C8_75 
REMARK       I    between atoms: N2_51  and  C2_58 
REMARK       I    between atoms: C1_52  and  O3_87 
REMARK       I    between atoms: C6_54  and  C5_86 
REMARK       I    between atoms: O2_59  and  C2_93 
REMARK       I    between atoms: C8_64  and  C7_69 
REMARK       I    between atoms: C6_70  and  C5_80 
REMARK       I    between atoms: C4_72  and  O4_91 
REMARK       I    between atoms: C5_77  and  C6_79 
REMARK       I    between atoms: C3_83  and  O3_87 
ROOT
ATOM      1  C3  NAG d1177      14.734 -10.273  10.419  0.00  0.00     0.093 C 
ATOM      2  O7  NAG d1177      11.310  -9.236  11.915  0.00  0.00    -0.274 OA
ATOM      3  C4  NAG d1177      16.184 -10.052  10.883  0.00  0.00     0.089 C 
ATOM      4  C2  NAG d1177      13.845 -10.618  11.603  0.00  0.00     0.087 C 
ATOM      5  C6  NAG d1177      18.060 -10.945  12.364  0.00  0.00     0.043 C 
ATOM      6  C5  NAG d1177      16.662 -11.189  11.773  0.00  0.00     0.089 C 
ATOM      7  N2  NAG d1177      12.508 -11.070  11.178  0.00  0.00    -0.349 N 
ATOM      8  O4  NAG d1177      17.049  -9.927   9.771  0.00  0.00    -0.390 OA
ATOM      9  C7  NAG d1177      11.382 -10.371  11.344  0.00  0.00     0.214 C 
ATOM     10  O5  NAG d1177      15.753 -11.377  12.850  0.00  0.00    -0.349 OA
ATOM     11  C8  NAG d1177      10.173 -11.108  10.828  0.00  0.00    -0.003 C 
ATOM     12  C1  NAG d1177      14.459 -11.744  12.434  0.00  0.00     0.154 C 
ATOM     13  O6  NAG d1177      18.062  -9.810  13.211  0.00  0.00    -0.398 OA
ATOM     14  O3  NAG d1177      14.233  -9.088   9.865  0.00  0.00    -0.348 OA
ATOM     15  H   NAG d1177      14.734 -11.069   9.704  0.00  0.00     0.091 H 
ATOM     16  H   NAG d1177      16.203  -9.145  11.451  0.00  0.00     0.091 H 
ATOM     17  H   NAG d1177      13.759  -9.719  12.179  0.00  0.00     0.084 H 
ATOM     18  H   NAG d1177      18.755 -10.788  11.566  0.00  0.00     0.078 H 
ATOM     19  H   NAG d1177      18.340 -11.801  12.941  0.00  0.00     0.078 H 
ATOM     20  H   NAG d1177      16.711 -12.056  11.148  0.00  0.00     0.090 H 
ATOM     21  H   NAG d1177      12.440 -11.950  10.741  0.00  0.00     0.163 HD
ATOM     22  H   NAG d1177      17.033 -10.748   9.255  0.00  0.00     0.210 HD
ATOM     23  H   NAG d1177       9.299 -10.510  10.982  0.00  0.00     0.040 H 
ATOM     24  H   NAG d1177      10.069 -12.034  11.354  0.00  0.00     0.040 H 
ATOM     25  H   NAG d1177      10.293 -11.303   9.783  0.00  0.00     0.040 H 
ATOM     26  H   NAG d1177      14.539 -12.631  11.841  0.00  0.00     0.132 H 
ATOM     27  H   NAG d1177      17.810  -9.024  12.701  0.00  0.00     0.209 HD
ATOM     28  O6A BDP d1178      16.573  -9.499   5.710  0.00  0.00    -0.646 OA
ATOM     29  O4  BDP d1178      12.730  -9.030   4.634  0.00  0.00    -0.348 OA
ATOM     30  O3  BDP d1178      11.952  -6.898   6.351  0.00  0.00    -0.390 OA
ATOM     31  C1  BDP d1178      13.715  -9.274   8.540  0.00  0.00     0.160 C 
ATOM     32  C4  BDP d1178      13.460  -8.647   5.776  0.00  0.00     0.103 C 
ATOM     33  C2  BDP d1178      13.035  -7.980   8.146  0.00  0.00     0.110 C 
ATOM     34  O2  BDP d1178      12.033  -7.649   9.073  0.00  0.00    -0.388 OA
ATOM     35  O6B BDP d1178      15.357 -10.838   4.402  0.00  0.00    -0.646 OA
ATOM     36  O5  BDP d1178      14.742  -9.550   7.605  0.00  0.00    -0.340 OA
ATOM     37  C6  BDP d1178      15.492 -10.075   5.399  0.00  0.00     0.206 C 
ATOM     38  C5  BDP d1178      14.276  -9.819   6.298  0.00  0.00     0.152 C 
ATOM     39  C3  BDP d1178      12.408  -8.163   6.793  0.00  0.00     0.092 C 
ATOM     40  H   BDP d1178      11.541  -6.989   5.476  0.00  0.00     0.210 HD
ATOM     41  H   BDP d1178      13.043 -10.106   8.537  0.00  0.00     0.133 H 
ATOM     42  H   BDP d1178      14.169  -7.871   5.571  0.00  0.00     0.092 H 
ATOM     43  H   BDP d1178      13.759  -7.192   8.124  0.00  0.00     0.094 H 
ATOM     44  H   BDP d1178      11.371  -8.358   9.100  0.00  0.00     0.210 HD
ATOM     45  H   BDP d1178      13.640 -10.680   6.304  0.00  0.00     0.104 H 
ATOM     46  H   BDP d1178      11.614  -8.878   6.865  0.00  0.00     0.091 H 
ATOM     47  O1  NAG d1175      12.102 -19.273  20.596  0.00  0.00    -0.369 OA
ATOM     48  O3  NAG d1175      13.248 -16.280  17.182  0.00  0.00    -0.348 OA
ATOM     49  O6  NAG d1175       8.378 -20.001  17.323  0.00  0.00    -0.398 OA
ATOM     50  C7  NAG d1175      14.845 -16.816  19.765  0.00  0.00     0.214 C 
ATOM     51  O4  NAG d1175      10.631 -16.917  15.874  0.00  0.00    -0.390 OA
ATOM     52  N2  NAG d1175      13.544 -17.109  19.881  0.00  0.00    -0.349 N 
ATOM     53  C6  NAG d1175       9.524 -19.506  16.683  0.00  0.00     0.043 C 
ATOM     54  C2  NAG d1175      12.724 -17.796  18.872  0.00  0.00     0.087 C 
ATOM     55  C8  NAG d1175      15.669 -17.568  18.770  0.00  0.00    -0.003 C 
ATOM     56  O7  NAG d1175      15.381 -15.940  20.462  0.00  0.00    -0.274 OA
ATOM     57  C3  NAG d1175      12.132 -16.864  17.825  0.00  0.00     0.093 C 
ATOM     58  C4  NAG d1175      11.269 -17.709  16.877  0.00  0.00     0.089 C 
ATOM     59  C1  NAG d1175      11.563 -18.488  19.571  0.00  0.00     0.151 C 
ATOM     60  C5  NAG d1175      10.247 -18.564  17.634  0.00  0.00     0.089 C 
ATOM     61  O5  NAG d1175      10.857 -19.322  18.663  0.00  0.00    -0.349 OA
ATOM     62  H   NAG d1175      12.585 -18.706  21.218  0.00  0.00     0.212 HD
ATOM     63  H   NAG d1175       7.910 -20.603  16.725  0.00  0.00     0.209 HD
ATOM     64  H   NAG d1175      11.296 -16.385  15.409  0.00  0.00     0.210 HD
ATOM     65  H   NAG d1175      13.097 -16.840  20.716  0.00  0.00     0.163 HD
ATOM     66  H   NAG d1175       9.241 -18.976  15.798  0.00  0.00     0.078 H 
ATOM     67  H   NAG d1175      10.169 -20.316  16.413  0.00  0.00     0.078 H 
ATOM     68  H   NAG d1175      13.375 -18.480  18.370  0.00  0.00     0.084 H 
ATOM     69  H   NAG d1175      15.051 -18.280  18.261  0.00  0.00     0.040 H 
ATOM     70  H   NAG d1175      16.460 -18.081  19.276  0.00  0.00     0.040 H 
ATOM     71  H   NAG d1175      16.084 -16.884  18.060  0.00  0.00     0.040 H 
ATOM     72  H   NAG d1175      11.501 -16.095  18.219  0.00  0.00     0.091 H 
ATOM     73  H   NAG d1175      11.942 -18.374  16.377  0.00  0.00     0.091 H 
ATOM     74  H   NAG d1175      10.879 -17.761  19.956  0.00  0.00     0.132 H 
ATOM     75  H   NAG d1175       9.544 -17.891  18.077  0.00  0.00     0.090 H 
ATOM     76  C2  NAG d1181      14.833 -12.904  -6.653  0.00  0.00     0.087 C 
ATOM     77  C8  NAG d1181      17.618 -13.781  -6.308  0.00  0.00    -0.003 C 
ATOM     78  O5  NAG d1181      12.511 -13.115  -5.900  0.00  0.00    -0.349 OA
ATOM     79  O4  NAG d1181      12.817 -14.528  -9.283  0.00  0.00    -0.390 OA
ATOM     80  C3  NAG d1181      14.378 -13.148  -8.082  0.00  0.00     0.086 C 
ATOM     81  C1  NAG d1181      13.699 -12.344  -5.791  0.00  0.00     0.154 C 
ATOM     82  N2  NAG d1181      15.972 -12.002  -6.616  0.00  0.00    -0.349 N 
ATOM     83  C4  NAG d1181      13.200 -14.110  -7.990  0.00  0.00     0.089 C 
ATOM     84  O6  NAG d1181      10.570 -14.924  -6.117  0.00  0.00    -0.398 OA
ATOM     85  O3  NAG d1181      15.428 -13.656  -8.890  0.00  0.00    -0.391 OA
ATOM     86  C5  NAG d1181      12.081 -13.371  -7.234  0.00  0.00     0.089 C 
ATOM     87  O7  NAG d1181      17.910 -11.562  -5.553  0.00  0.00    -0.274 OA
ATOM     88  C7  NAG d1181      17.170 -12.358  -6.128  0.00  0.00     0.214 C 
ATOM     89  C6  NAG d1181      10.723 -14.088  -7.245  0.00  0.00     0.043 C 
ATOM     90  H   NAG d1181      15.127 -13.850  -6.249  0.00  0.00     0.084 H 
ATOM     91  H   NAG d1181      16.859 -14.331  -6.825  0.00  0.00     0.040 H 
ATOM     92  H   NAG d1181      17.791 -14.226  -5.350  0.00  0.00     0.040 H 
ATOM     93  H   NAG d1181      18.523 -13.801  -6.879  0.00  0.00     0.040 H 
ATOM     94  H   NAG d1181      13.560 -14.985  -9.708  0.00  0.00     0.210 HD
ATOM     95  H   NAG d1181      14.085 -12.236  -8.557  0.00  0.00     0.090 H 
ATOM     96  H   NAG d1181      13.408 -11.362  -6.099  0.00  0.00     0.132 H 
ATOM     97  H   NAG d1181      15.859 -11.088  -6.965  0.00  0.00     0.163 HD
ATOM     98  H   NAG d1181      13.446 -15.005  -7.458  0.00  0.00     0.091 H 
ATOM     99  H   NAG d1181       9.705 -15.361  -6.153  0.00  0.00     0.209 HD
ATOM    100  H   NAG d1181      15.747 -14.491  -8.517  0.00  0.00     0.210 HD
ATOM    101  H   NAG d1181      11.909 -12.454  -7.758  0.00  0.00     0.090 H 
ATOM    102  H   NAG d1181       9.944 -13.355  -7.244  0.00  0.00     0.078 H 
ATOM    103  H   NAG d1181      10.672 -14.697  -8.124  0.00  0.00     0.078 H 
ATOM    104  C4  NAG d1179      12.484  -7.775   0.669  0.00  0.00     0.089 C 
ATOM    105  N2  NAG d1179      13.125 -10.926   2.726  0.00  0.00    -0.349 N 
ATOM    106  C6  NAG d1179      12.561  -5.443   1.651  0.00  0.00     0.043 C 
ATOM    107  O4  NAG d1179      12.969  -7.352  -0.601  0.00  0.00    -0.390 OA
ATOM    108  O6  NAG d1179      11.179  -5.378   1.939  0.00  0.00    -0.398 OA
ATOM    109  C1  NAG d1179      13.191  -8.585   3.354  0.00  0.00     0.154 C 
ATOM    110  C5  NAG d1179      13.050  -6.877   1.765  0.00  0.00     0.089 C 
ATOM    111  O5  NAG d1179      12.638  -7.343   3.037  0.00  0.00    -0.349 OA
ATOM    112  C2  NAG d1179      12.623  -9.609   2.377  0.00  0.00     0.087 C 
ATOM    113  C8  NAG d1179      12.958 -13.235   3.315  0.00  0.00    -0.003 C 
ATOM    114  C7  NAG d1179      12.326 -11.989   2.792  0.00  0.00     0.214 C 
ATOM    115  C3  NAG d1179      12.908  -9.217   0.918  0.00  0.00     0.093 C 
ATOM    116  O3  NAG d1179      12.180 -10.062   0.039  0.00  0.00    -0.348 OA
ATOM    117  O7  NAG d1179      11.150 -11.982   2.443  0.00  0.00    -0.274 OA
ATOM    118  H   NAG d1179      11.415  -7.711   0.681  0.00  0.00     0.091 H 
ATOM    119  H   NAG d1179      14.084 -11.036   2.918  0.00  0.00     0.163 HD
ATOM    120  H   NAG d1179      12.732  -5.089   0.656  0.00  0.00     0.078 H 
ATOM    121  H   NAG d1179      13.095  -4.833   2.349  0.00  0.00     0.078 H 
ATOM    122  H   NAG d1179      13.937  -7.410  -0.613  0.00  0.00     0.210 HD
ATOM    123  H   NAG d1179      10.691  -5.930   1.308  0.00  0.00     0.209 HD
ATOM    124  H   NAG d1179      14.256  -8.495   3.327  0.00  0.00     0.132 H 
ATOM    125  H   NAG d1179      14.114  -6.904   1.653  0.00  0.00     0.090 H 
ATOM    126  H   NAG d1179      11.556  -9.632   2.458  0.00  0.00     0.084 H 
ATOM    127  H   NAG d1179      13.980 -13.039   3.565  0.00  0.00     0.040 H 
ATOM    128  H   NAG d1179      12.913 -13.998   2.567  0.00  0.00     0.040 H 
ATOM    129  H   NAG d1179      12.434 -13.561   4.189  0.00  0.00     0.040 H 
ATOM    130  H   NAG d1179      13.957  -9.322   0.740  0.00  0.00     0.091 H 
ATOM    131  O5  BDP d1180      13.465  -9.963  -1.873  0.00  0.00    -0.340 OA
ATOM    132  O6A BDP d1180      16.047  -9.570  -3.970  0.00  0.00    -0.646 OA
ATOM    133  O2  BDP d1180      12.074 -12.934  -0.326  0.00  0.00    -0.388 OA
ATOM    134  O3  BDP d1180      11.893 -13.484  -3.210  0.00  0.00    -0.390 OA
ATOM    135  C5  BDP d1180      14.256 -10.624  -2.836  0.00  0.00     0.152 C 
ATOM    136  C2  BDP d1180      12.216 -11.990  -1.365  0.00  0.00     0.110 C 
ATOM    137  C3  BDP d1180      12.866 -12.690  -2.555  0.00  0.00     0.092 C 
ATOM    138  C6  BDP d1180      14.811  -9.578  -3.791  0.00  0.00     0.206 C 
ATOM    139  C1  BDP d1180      13.034 -10.811  -0.837  0.00  0.00     0.160 C 
ATOM    140  C4  BDP d1180      13.419 -11.678  -3.544  0.00  0.00     0.103 C 
ATOM    141  O6B BDP d1180      13.997  -8.777  -4.321  0.00  0.00    -0.646 OA
ATOM    142  O4  BDP d1180      14.230 -12.368  -4.456  0.00  0.00    -0.348 OA
ATOM    143  H   BDP d1180      11.662 -12.510   0.443  0.00  0.00     0.210 HD
ATOM    144  H   BDP d1180      11.533 -14.134  -2.587  0.00  0.00     0.210 HD
ATOM    145  H   BDP d1180      15.080 -11.134  -2.384  0.00  0.00     0.104 H 
ATOM    146  H   BDP d1180      11.275 -11.600  -1.695  0.00  0.00     0.094 H 
ATOM    147  H   BDP d1180      13.671 -13.297  -2.196  0.00  0.00     0.091 H 
ATOM    148  H   BDP d1180      13.904 -11.185  -0.339  0.00  0.00     0.133 H 
ATOM    149  H   BDP d1180      12.608 -11.185  -4.038  0.00  0.00     0.092 H 
ATOM    150  C3  BDP d1176      14.403 -12.997  15.686  0.00  0.00     0.092 C 
ATOM    151  O4  BDP d1176      13.613 -12.024  13.558  0.00  0.00    -0.348 OA
ATOM    152  O3  BDP d1176      15.732 -12.497  15.605  0.00  0.00    -0.390 OA
ATOM    153  O5  BDP d1176      12.555 -15.139  15.262  0.00  0.00    -0.340 OA
ATOM    154  O2  BDP d1176      14.801 -13.979  17.848  0.00  0.00    -0.388 OA
ATOM    155  C1  BDP d1176      13.052 -14.984  16.575  0.00  0.00     0.160 C 
ATOM    156  O6B BDP d1176      10.789 -13.884  12.807  0.00  0.00    -0.646 OA
ATOM    157  C5  BDP d1176      12.448 -13.935  14.496  0.00  0.00     0.152 C 
ATOM    158  O6A BDP d1176      12.505 -15.272  12.520  0.00  0.00    -0.646 OA
ATOM    159  C6  BDP d1176      11.883 -14.392  13.171  0.00  0.00     0.206 C 
ATOM    160  C4  BDP d1176      13.789 -13.225  14.294  0.00  0.00     0.103 C 
ATOM    161  C2  BDP d1176      14.412 -14.285  16.519  0.00  0.00     0.110 C 
ATOM    162  H   BDP d1176      13.783 -12.269  16.165  0.00  0.00     0.091 H 
ATOM    163  H   BDP d1176      16.299 -13.154  15.170  0.00  0.00     0.210 HD
ATOM    164  H   BDP d1176      15.663 -13.534  17.837  0.00  0.00     0.210 HD
ATOM    165  H   BDP d1176      12.350 -14.411  17.144  0.00  0.00     0.133 H 
ATOM    166  H   BDP d1176      11.837 -13.214  14.997  0.00  0.00     0.104 H 
ATOM    167  H   BDP d1176      14.464 -13.819  13.713  0.00  0.00     0.092 H 
ATOM    168  H   BDP d1176      15.101 -14.950  16.042  0.00  0.00     0.094 H 
ENDROOT
TORSDOF 43
ENDMDL
MODEL 58
REMARK VINA RESULT:      -5.4      3.820      4.517
REMARK  0 active torsions:
REMARK  status: ('A' for Active; 'I' for Inactive)
REMARK       I    between atoms: C3_1  and  O3_90 
REMARK       I    between atoms: O1_4  and  C1_76 
REMARK       I    between atoms: C2_5  and  N2_21 
REMARK       I    between atoms: C8_6  and  C7_66 
REMARK       I    between atoms: C4_7  and  O4_24 
REMARK       I    between atoms: N2_9  and  C2_60 
REMARK       I    between atoms: N2_9  and  C7_69 
REMARK       I    between atoms: O4_12  and  C4_26 
REMARK       I    between atoms: O3_13  and  C3_65 
REMARK       I    between atoms: O3_13  and  C1_61 
REMARK       I    between atoms: C3_14  and  O3_35 
REMARK       I    between atoms: C6_15  and  C5_53 
REMARK       I    between atoms: C6_15  and  O6_46 
REMARK       I    between atoms: O6_16  and  C6_54 
REMARK       I    between atoms: C4_17  and  O4_49 
REMARK       I    between atoms: O4_18  and  C4_28 
REMARK       I    between atoms: O4_18  and  C1_47 
REMARK       I    between atoms: C3_19  and  O3_43 
REMARK       I    between atoms: C1_20  and  O4_91 
REMARK       I    between atoms: N2_21  and  C7_66 
REMARK       I    between atoms: O3_22  and  C3_82 
REMARK       I    between atoms: C7_23  and  C8_62 
REMARK       I    between atoms: C7_23  and  N2_51 
REMARK       I    between atoms: C2_25  and  N2_41 
REMARK       I    between atoms: C1_27  and  O3_90 
REMARK       I    between atoms: O6_29  and  C6_74 
REMARK       I    between atoms: O2_30  and  C2_37 
REMARK       I    between atoms: C2_31  and  O2_42 
REMARK       I    between atoms: O3_32  and  C3_45 
REMARK       I    between atoms: O4_33  and  C4_73 
REMARK       I    between atoms: O4_34  and  C4_84 
REMARK       I    between atoms: O4_34  and  C1_85 
REMARK       I    between atoms: C5_36  and  C6_48 
REMARK       I    between atoms: C6_38  and  C5_40 
REMARK       I    between atoms: C6_38  and  O6_89 
REMARK       I    between atoms: N2_41  and  C7_50 
REMARK       I    between atoms: C5_44  and  C6_74 
REMARK       I    between atoms: C7_50  and  C8_75 
REMARK       I    between atoms: N2_51  and  C2_58 
REMARK       I    between atoms: C1_52  and  O3_87 
REMARK       I    between atoms: C6_54  and  C5_86 
REMARK       I    between atoms: O2_59  and  C2_93 
REMARK       I    between atoms: C8_64  and  C7_69 
REMARK       I    between atoms: C6_70  and  C5_80 
REMARK       I    between atoms: C4_72  and  O4_91 
REMARK       I    between atoms: C5_77  and  C6_79 
REMARK       I    between atoms: C3_83  and  O3_87 
ROOT
ATOM      1  C3  NAG d1177      14.411 -10.923  10.977  0.00  0.00     0.093 C 
ATOM      2  O7  NAG d1177      13.588  -7.188  11.617  0.00  0.00    -0.274 OA
ATOM      3  C4  NAG d1177      15.411 -11.896  11.626  0.00  0.00     0.089 C 
ATOM      4  C2  NAG d1177      13.751 -10.057  12.037  0.00  0.00     0.087 C 
ATOM      5  C6  NAG d1177      15.789 -13.518  13.558  0.00  0.00     0.043 C 
ATOM      6  C5  NAG d1177      14.787 -12.632  12.800  0.00  0.00     0.089 C 
ATOM      7  N2  NAG d1177      12.620  -9.283  11.493  0.00  0.00    -0.349 N 
ATOM      8  O4  NAG d1177      15.881 -12.833  10.676  0.00  0.00    -0.390 OA
ATOM      9  C7  NAG d1177      12.622  -7.959  11.315  0.00  0.00     0.214 C 
ATOM     10  O5  NAG d1177      14.238 -11.698  13.722  0.00  0.00    -0.349 OA
ATOM     11  C8  NAG d1177      11.313  -7.456  10.765  0.00  0.00    -0.003 C 
ATOM     12  C1  NAG d1177      13.202 -10.915  13.176  0.00  0.00     0.154 C 
ATOM     13  O6  NAG d1177      16.819 -12.738  14.138  0.00  0.00    -0.398 OA
ATOM     14  O3  NAG d1177      15.093 -10.057  10.111  0.00  0.00    -0.348 OA
ATOM     15  H   NAG d1177      13.679 -11.502  10.454  0.00  0.00     0.091 H 
ATOM     16  H   NAG d1177      16.234 -11.314  11.987  0.00  0.00     0.091 H 
ATOM     17  H   NAG d1177      14.511  -9.391  12.390  0.00  0.00     0.084 H 
ATOM     18  H   NAG d1177      16.222 -14.219  12.875  0.00  0.00     0.078 H 
ATOM     19  H   NAG d1177      15.268 -14.030  14.340  0.00  0.00     0.078 H 
ATOM     20  H   NAG d1177      14.029 -13.265  12.388  0.00  0.00     0.090 H 
ATOM     21  H   NAG d1177      11.805  -9.777  11.244  0.00  0.00     0.163 HD
ATOM     22  H   NAG d1177      15.136 -13.361  10.348  0.00  0.00     0.210 HD
ATOM     23  H   NAG d1177      11.363  -6.395  10.639  0.00  0.00     0.040 H 
ATOM     24  H   NAG d1177      10.523  -7.698  11.446  0.00  0.00     0.040 H 
ATOM     25  H   NAG d1177      11.121  -7.919   9.819  0.00  0.00     0.040 H 
ATOM     26  H   NAG d1177      12.447 -11.574  12.803  0.00  0.00     0.132 H 
ATOM     27  H   NAG d1177      17.301 -12.267  13.440  0.00  0.00     0.209 HD
ATOM     28  O6A BDP d1178      15.633 -13.259   6.594  0.00  0.00    -0.646 OA
ATOM     29  O4  BDP d1178      13.886 -10.116   4.804  0.00  0.00    -0.348 OA
ATOM     30  O3  BDP d1178      15.414  -7.970   5.881  0.00  0.00    -0.390 OA
ATOM     31  C1  BDP d1178      14.545 -10.059   8.785  0.00  0.00     0.160 C 
ATOM     32  C4  BDP d1178      14.696 -10.239   5.949  0.00  0.00     0.103 C 
ATOM     33  C2  BDP d1178      15.237  -8.950   8.020  0.00  0.00     0.110 C 
ATOM     34  O2  BDP d1178      15.062  -7.719   8.673  0.00  0.00    -0.388 OA
ATOM     35  O6B BDP d1178      13.744 -13.253   5.406  0.00  0.00    -0.646 OA
ATOM     36  O5  BDP d1178      14.779 -11.285   8.117  0.00  0.00    -0.340 OA
ATOM     37  C6  BDP d1178      14.545 -12.731   6.230  0.00  0.00     0.206 C 
ATOM     38  C5  BDP d1178      14.190 -11.366   6.835  0.00  0.00     0.152 C 
ATOM     39  C3  BDP d1178      14.631  -8.867   6.648  0.00  0.00     0.092 C 
ATOM     40  H   BDP d1178      15.042  -7.899   4.988  0.00  0.00     0.210 HD
ATOM     41  H   BDP d1178      13.487  -9.918   8.841  0.00  0.00     0.133 H 
ATOM     42  H   BDP d1178      15.709 -10.491   5.712  0.00  0.00     0.092 H 
ATOM     43  H   BDP d1178      16.284  -9.163   7.959  0.00  0.00     0.094 H 
ATOM     44  H   BDP d1178      14.115  -7.517   8.734  0.00  0.00     0.210 HD
ATOM     45  H   BDP d1178      13.128 -11.267   6.911  0.00  0.00     0.104 H 
ATOM     46  H   BDP d1178      13.612  -8.547   6.731  0.00  0.00     0.091 H 
ATOM     47  O1  NAG d1175       6.321 -10.639  22.200  0.00  0.00    -0.369 OA
ATOM     48  O3  NAG d1175       9.153 -10.965  18.485  0.00  0.00    -0.348 OA
ATOM     49  O6  NAG d1175       3.438  -8.750  18.562  0.00  0.00    -0.398 OA
ATOM     50  C7  NAG d1175       9.779 -11.898  21.357  0.00  0.00     0.214 C 
ATOM     51  O4  NAG d1175       7.108  -9.447  16.911  0.00  0.00    -0.390 OA
ATOM     52  N2  NAG d1175       8.849 -10.936  21.308  0.00  0.00    -0.349 N 
ATOM     53  C6  NAG d1175       4.409  -9.615  18.039  0.00  0.00     0.043 C 
ATOM     54  C2  NAG d1175       7.745 -10.856  20.338  0.00  0.00     0.087 C 
ATOM     55  C8  NAG d1175       9.498 -13.209  20.696  0.00  0.00    -0.003 C 
ATOM     56  O7  NAG d1175      10.862 -11.727  21.938  0.00  0.00    -0.274 OA
ATOM     57  C3  NAG d1175       8.123 -10.168  19.035  0.00  0.00     0.093 C 
ATOM     58  C4  NAG d1175       6.869 -10.116  18.150  0.00  0.00     0.089 C 
ATOM     59  C1  NAG d1175       6.604 -10.061  20.957  0.00  0.00     0.151 C 
ATOM     60  C5  NAG d1175       5.670  -9.502  18.883  0.00  0.00     0.089 C 
ATOM     61  O5  NAG d1175       5.447 -10.123  20.135  0.00  0.00    -0.349 OA
ATOM     62  H   NAG d1175       7.109 -10.597  22.764  0.00  0.00     0.212 HD
ATOM     63  H   NAG d1175       2.629  -8.814  18.032  0.00  0.00     0.209 HD
ATOM     64  H   NAG d1175       7.869  -9.851  16.466  0.00  0.00     0.210 HD
ATOM     65  H   NAG d1175       8.909 -10.219  21.980  0.00  0.00     0.163 HD
ATOM     66  H   NAG d1175       4.627  -9.341  17.028  0.00  0.00     0.078 H 
ATOM     67  H   NAG d1175       4.048 -10.622  18.058  0.00  0.00     0.078 H 
ATOM     68  H   NAG d1175       7.473 -11.865  20.108  0.00  0.00     0.084 H 
ATOM     69  H   NAG d1175       8.526 -13.181  20.249  0.00  0.00     0.040 H 
ATOM     70  H   NAG d1175       9.533 -13.991  21.426  0.00  0.00     0.040 H 
ATOM     71  H   NAG d1175      10.234 -13.392  19.941  0.00  0.00     0.040 H 
ATOM     72  H   NAG d1175       8.467  -9.161  19.147  0.00  0.00     0.091 H 
ATOM     73  H   NAG d1175       6.625 -11.132  17.923  0.00  0.00     0.091 H 
ATOM     74  H   NAG d1175       6.885  -9.034  21.059  0.00  0.00     0.132 H 
ATOM     75  H   NAG d1175       5.901  -8.471  19.050  0.00  0.00     0.090 H 
ATOM     76  C2  NAG d1181      10.765 -16.664  -4.901  0.00  0.00     0.087 C 
ATOM     77  C8  NAG d1181      11.541 -19.321  -3.911  0.00  0.00    -0.003 C 
ATOM     78  O5  NAG d1181       9.414 -14.653  -4.529  0.00  0.00    -0.349 OA
ATOM     79  O4  NAG d1181       8.094 -16.473  -7.441  0.00  0.00    -0.390 OA
ATOM     80  C3  NAG d1181      10.192 -16.773  -6.305  0.00  0.00     0.086 C 
ATOM     81  C1  NAG d1181      10.705 -15.226  -4.381  0.00  0.00     0.154 C 
ATOM     82  N2  NAG d1181      12.134 -17.148  -4.859  0.00  0.00    -0.349 N 
ATOM     83  C4  NAG d1181       8.762 -16.253  -6.218  0.00  0.00     0.089 C 
ATOM     84  O6  NAG d1181       6.838 -14.003  -4.693  0.00  0.00    -0.398 OA
ATOM     85  O3  NAG d1181      10.254 -18.101  -6.798  0.00  0.00    -0.391 OA
ATOM     86  C5  NAG d1181       8.853 -14.765  -5.835  0.00  0.00     0.089 C 
ATOM     87  O7  NAG d1181      13.630 -18.264  -3.595  0.00  0.00    -0.274 OA
ATOM     88  C7  NAG d1181      12.515 -18.195  -4.110  0.00  0.00     0.214 C 
ATOM     89  C6  NAG d1181       7.525 -14.000  -5.928  0.00  0.00     0.043 C 
ATOM     90  H   NAG d1181      10.160 -17.276  -4.266  0.00  0.00     0.084 H 
ATOM     91  H   NAG d1181      10.628 -19.098  -4.424  0.00  0.00     0.040 H 
ATOM     92  H   NAG d1181      11.343 -19.442  -2.866  0.00  0.00     0.040 H 
ATOM     93  H   NAG d1181      11.957 -20.226  -4.302  0.00  0.00     0.040 H 
ATOM     94  H   NAG d1181       8.068 -17.424  -7.628  0.00  0.00     0.210 HD
ATOM     95  H   NAG d1181      10.762 -16.196  -7.002  0.00  0.00     0.090 H 
ATOM     96  H   NAG d1181      11.350 -14.573  -4.932  0.00  0.00     0.132 H 
ATOM     97  H   NAG d1181      12.812 -16.688  -5.404  0.00  0.00     0.163 HD
ATOM     98  H   NAG d1181       8.186 -16.768  -5.477  0.00  0.00     0.091 H 
ATOM     99  H   NAG d1181       6.006 -13.513  -4.785  0.00  0.00     0.209 HD
ATOM    100  H   NAG d1181       9.754 -18.688  -6.210  0.00  0.00     0.210 HD
ATOM    101  H   NAG d1181       9.487 -14.299  -6.559  0.00  0.00     0.090 H 
ATOM    102  H   NAG d1181       7.726 -12.989  -6.212  0.00  0.00     0.078 H 
ATOM    103  H   NAG d1181       6.909 -14.485  -6.656  0.00  0.00     0.078 H 
ATOM    104  C4  NAG d1179      14.465 -10.296   0.683  0.00  0.00     0.089 C 
ATOM    105  N2  NAG d1179      12.334 -11.875   3.428  0.00  0.00    -0.349 N 
ATOM    106  C6  NAG d1179      16.554  -8.947   1.156  0.00  0.00     0.043 C 
ATOM    107  O4  NAG d1179      14.969 -10.810  -0.546  0.00  0.00    -0.390 OA
ATOM    108  O6  NAG d1179      15.897  -7.696   1.185  0.00  0.00    -0.398 OA
ATOM    109  C1  NAG d1179      14.394 -10.602   3.558  0.00  0.00     0.154 C 
ATOM    110  C5  NAG d1179      15.618 -10.038   1.649  0.00  0.00     0.089 C 
ATOM    111  O5  NAG d1179      15.117  -9.605   2.900  0.00  0.00    -0.349 OA
ATOM    112  C2  NAG d1179      13.144 -10.890   2.733  0.00  0.00     0.087 C 
ATOM    113  C8  NAG d1179      10.354 -12.737   4.447  0.00  0.00    -0.003 C 
ATOM    114  C7  NAG d1179      11.019 -11.725   3.577  0.00  0.00     0.214 C 
ATOM    115  C3  NAG d1179      13.499 -11.302   1.295  0.00  0.00     0.093 C 
ATOM    116  O3  NAG d1179      12.324 -11.344   0.499  0.00  0.00    -0.348 OA
ATOM    117  O7  NAG d1179      10.368 -10.836   3.038  0.00  0.00    -0.274 OA
ATOM    118  H   NAG d1179      13.950  -9.375   0.498  0.00  0.00     0.091 H 
ATOM    119  H   NAG d1179      12.770 -12.675   3.800  0.00  0.00     0.163 HD
ATOM    120  H   NAG d1179      16.857  -9.165   0.154  0.00  0.00     0.078 H 
ATOM    121  H   NAG d1179      17.413  -8.907   1.793  0.00  0.00     0.078 H 
ATOM    122  H   NAG d1179      15.436 -11.644  -0.380  0.00  0.00     0.210 HD
ATOM    123  H   NAG d1179      15.118  -7.728   0.608  0.00  0.00     0.209 HD
ATOM    124  H   NAG d1179      15.036 -11.446   3.695  0.00  0.00     0.132 H 
ATOM    125  H   NAG d1179      16.152 -10.961   1.727  0.00  0.00     0.090 H 
ATOM    126  H   NAG d1179      12.563  -9.997   2.633  0.00  0.00     0.084 H 
ATOM    127  H   NAG d1179      11.085 -13.423   4.821  0.00  0.00     0.040 H 
ATOM    128  H   NAG d1179       9.622 -13.271   3.878  0.00  0.00     0.040 H 
ATOM    129  H   NAG d1179       9.876 -12.243   5.267  0.00  0.00     0.040 H 
ATOM    130  H   NAG d1179      13.955 -12.269   1.324  0.00  0.00     0.091 H 
ATOM    131  O5  BDP d1180      12.925 -12.847  -1.143  0.00  0.00    -0.340 OA
ATOM    132  O6A BDP d1180      14.450 -15.325  -2.803  0.00  0.00    -0.646 OA
ATOM    133  O2  BDP d1180       9.818 -12.782   0.727  0.00  0.00    -0.388 OA
ATOM    134  O3  BDP d1180       9.008 -13.641  -1.968  0.00  0.00    -0.390 OA
ATOM    135  C5  BDP d1180      12.708 -14.077  -1.798  0.00  0.00     0.152 C 
ATOM    136  C2  BDP d1180      10.598 -12.693  -0.446  0.00  0.00     0.110 C 
ATOM    137  C3  BDP d1180      10.252 -13.884  -1.335  0.00  0.00     0.092 C 
ATOM    138  C6  BDP d1180      13.801 -14.258  -2.841  0.00  0.00     0.206 C 
ATOM    139  C1  BDP d1180      12.072 -12.649  -0.043  0.00  0.00     0.160 C 
ATOM    140  C4  BDP d1180      11.313 -14.089  -2.404  0.00  0.00     0.103 C 
ATOM    141  O6B BDP d1180      13.995 -13.320  -3.657  0.00  0.00    -0.646 OA
ATOM    142  O4  BDP d1180      11.085 -15.338  -3.000  0.00  0.00    -0.348 OA
ATOM    143  H   BDP d1180      10.022 -12.033   1.309  0.00  0.00     0.210 HD
ATOM    144  H   BDP d1180       8.323 -13.508  -1.293  0.00  0.00     0.210 HD
ATOM    145  H   BDP d1180      12.757 -14.899  -1.116  0.00  0.00     0.104 H 
ATOM    146  H   BDP d1180      10.396 -11.803  -1.005  0.00  0.00     0.094 H 
ATOM    147  H   BDP d1180      10.202 -14.763  -0.725  0.00  0.00     0.091 H 
ATOM    148  H   BDP d1180      12.265 -13.429   0.663  0.00  0.00     0.133 H 
ATOM    149  H   BDP d1180      11.252 -13.297  -3.120  0.00  0.00     0.092 H 
ATOM    150  C3  BDP d1176      12.401 -10.666  16.559  0.00  0.00     0.092 C 
ATOM    151  O4  BDP d1176      12.613 -10.067  14.173  0.00  0.00    -0.348 OA
ATOM    152  O3  BDP d1176      13.524 -11.538  16.604  0.00  0.00    -0.390 OA
ATOM    153  O5  BDP d1176       9.577 -10.310  16.280  0.00  0.00    -0.340 OA
ATOM    154  O2  BDP d1176      11.976 -10.935  18.913  0.00  0.00    -0.388 OA
ATOM    155  C1  BDP d1176      10.086 -10.311  17.597  0.00  0.00     0.160 C 
ATOM    156  O6B BDP d1176       9.477  -8.846  13.353  0.00  0.00    -0.646 OA
ATOM    157  C5  BDP d1176      10.466  -9.817  15.274  0.00  0.00     0.152 C 
ATOM    158  O6A BDP d1176       9.199 -11.034  13.658  0.00  0.00    -0.646 OA
ATOM    159  C6  BDP d1176       9.665  -9.913  13.996  0.00  0.00     0.206 C 
ATOM    160  C4  BDP d1176      11.761 -10.625  15.161  0.00  0.00     0.103 C 
ATOM    161  C2  BDP d1176      11.395 -11.103  17.631  0.00  0.00     0.110 C 
ATOM    162  H   BDP d1176      12.725  -9.666  16.763  0.00  0.00     0.091 H 
ATOM    163  H   BDP d1176      13.235 -12.446  16.419  0.00  0.00     0.210 HD
ATOM    164  H   BDP d1176      12.809 -11.429  18.958  0.00  0.00     0.210 HD
ATOM    165  H   BDP d1176      10.244  -9.299  17.906  0.00  0.00     0.133 H 
ATOM    166  H   BDP d1176      10.791  -8.823  15.502  0.00  0.00     0.104 H 
ATOM    167  H   BDP d1176      11.570 -11.629  14.841  0.00  0.00     0.092 H 
ATOM    168  H   BDP d1176      11.161 -12.127  17.428  0.00  0.00     0.094 H 
ENDROOT
TORSDOF 43
ENDMDL
MODEL 59
REMARK VINA RESULT:      -5.4      3.564     18.937
REMARK  0 active torsions:
REMARK  status: ('A' for Active; 'I' for Inactive)
REMARK       I    between atoms: C3_1  and  O3_90 
REMARK       I    between atoms: O1_4  and  C1_76 
REMARK       I    between atoms: C2_5  and  N2_21 
REMARK       I    between atoms: C8_6  and  C7_66 
REMARK       I    between atoms: C4_7  and  O4_24 
REMARK       I    between atoms: N2_9  and  C2_60 
REMARK       I    between atoms: N2_9  and  C7_69 
REMARK       I    between atoms: O4_12  and  C4_26 
REMARK       I    between atoms: O3_13  and  C3_65 
REMARK       I    between atoms: O3_13  and  C1_61 
REMARK       I    between atoms: C3_14  and  O3_35 
REMARK       I    between atoms: C6_15  and  C5_53 
REMARK       I    between atoms: C6_15  and  O6_46 
REMARK       I    between atoms: O6_16  and  C6_54 
REMARK       I    between atoms: C4_17  and  O4_49 
REMARK       I    between atoms: O4_18  and  C4_28 
REMARK       I    between atoms: O4_18  and  C1_47 
REMARK       I    between atoms: C3_19  and  O3_43 
REMARK       I    between atoms: C1_20  and  O4_91 
REMARK       I    between atoms: N2_21  and  C7_66 
REMARK       I    between atoms: O3_22  and  C3_82 
REMARK       I    between atoms: C7_23  and  C8_62 
REMARK       I    between atoms: C7_23  and  N2_51 
REMARK       I    between atoms: C2_25  and  N2_41 
REMARK       I    between atoms: C1_27  and  O3_90 
REMARK       I    between atoms: O6_29  and  C6_74 
REMARK       I    between atoms: O2_30  and  C2_37 
REMARK       I    between atoms: C2_31  and  O2_42 
REMARK       I    between atoms: O3_32  and  C3_45 
REMARK       I    between atoms: O4_33  and  C4_73 
REMARK       I    between atoms: O4_34  and  C4_84 
REMARK       I    between atoms: O4_34  and  C1_85 
REMARK       I    between atoms: C5_36  and  C6_48 
REMARK       I    between atoms: C6_38  and  C5_40 
REMARK       I    between atoms: C6_38  and  O6_89 
REMARK       I    between atoms: N2_41  and  C7_50 
REMARK       I    between atoms: C5_44  and  C6_74 
REMARK       I    between atoms: C7_50  and  C8_75 
REMARK       I    between atoms: N2_51  and  C2_58 
REMARK       I    between atoms: C1_52  and  O3_87 
REMARK       I    between atoms: C6_54  and  C5_86 
REMARK       I    between atoms: O2_59  and  C2_93 
REMARK       I    between atoms: C8_64  and  C7_69 
REMARK       I    between atoms: C6_70  and  C5_80 
REMARK       I    between atoms: C4_72  and  O4_91 
REMARK       I    between atoms: C5_77  and  C6_79 
REMARK       I    between atoms: C3_83  and  O3_87 
ROOT
ATOM      1  C3  NAG d1177      11.406  -9.450   4.779  0.00  0.00     0.093 C 
ATOM      2  O7  NAG d1177      15.152  -8.632   4.200  0.00  0.00    -0.274 OA
ATOM      3  C4  NAG d1177      10.113  -8.939   4.118  0.00  0.00     0.089 C 
ATOM      4  C2  NAG d1177      12.483  -9.676   3.731  0.00  0.00     0.087 C 
ATOM      5  C6  NAG d1177       8.508  -9.248   2.160  0.00  0.00     0.043 C 
ATOM      6  C5  NAG d1177       9.721  -9.799   2.928  0.00  0.00     0.089 C 
ATOM      7  N2  NAG d1177      13.650 -10.387   4.282  0.00  0.00    -0.349 N 
ATOM      8  O4  NAG d1177       9.052  -8.914   5.053  0.00  0.00    -0.390 OA
ATOM      9  C7  NAG d1177      14.850  -9.836   4.484  0.00  0.00     0.214 C 
ATOM     10  O5  NAG d1177      10.811  -9.897   2.020  0.00  0.00    -0.349 OA
ATOM     11  C8  NAG d1177      15.845 -10.823   5.036  0.00  0.00    -0.003 C 
ATOM     12  C1  NAG d1177      11.947 -10.518   2.574  0.00  0.00     0.154 C 
ATOM     13  O6  NAG d1177       8.795  -7.980   1.599  0.00  0.00    -0.398 OA
ATOM     14  O3  NAG d1177      11.895  -8.479   5.664  0.00  0.00    -0.348 OA
ATOM     15  H   NAG d1177      11.178 -10.363   5.288  0.00  0.00     0.091 H 
ATOM     16  H   NAG d1177      10.303  -7.944   3.771  0.00  0.00     0.091 H 
ATOM     17  H   NAG d1177      12.776  -8.703   3.394  0.00  0.00     0.084 H 
ATOM     18  H   NAG d1177       7.681  -9.155   2.832  0.00  0.00     0.078 H 
ATOM     19  H   NAG d1177       8.271  -9.926   1.367  0.00  0.00     0.078 H 
ATOM     20  H   NAG d1177       9.457 -10.756   3.325  0.00  0.00     0.090 H 
ATOM     21  H   NAG d1177      13.538 -11.337   4.518  0.00  0.00     0.163 HD
ATOM     22  H   NAG d1177       8.878  -9.815   5.369  0.00  0.00     0.210 HD
ATOM     23  H   NAG d1177      16.787 -10.336   5.180  0.00  0.00     0.040 H 
ATOM     24  H   NAG d1177      15.964 -11.632   4.346  0.00  0.00     0.040 H 
ATOM     25  H   NAG d1177      15.491 -11.201   5.972  0.00  0.00     0.040 H 
ATOM     26  H   NAG d1177      11.658 -11.484   2.931  0.00  0.00     0.132 H 
ATOM     27  H   NAG d1177       9.012  -7.354   2.308  0.00  0.00     0.209 HD
ATOM     28  O6A BDP d1178       8.712  -9.366   9.126  0.00  0.00    -0.646 OA
ATOM     29  O4  BDP d1178      12.273  -9.666  10.962  0.00  0.00    -0.348 OA
ATOM     30  O3  BDP d1178      13.600  -7.369   9.931  0.00  0.00    -0.390 OA
ATOM     31  C1  BDP d1178      12.104  -8.994   6.986  0.00  0.00     0.160 C 
ATOM     32  C4  BDP d1178      11.839  -8.967   9.819  0.00  0.00     0.103 C 
ATOM     33  C2  BDP d1178      12.813  -7.912   7.775  0.00  0.00     0.110 C 
ATOM     34  O2  BDP d1178      14.013  -7.550   7.142  0.00  0.00    -0.388 OA
ATOM     35  O6B BDP d1178       9.489 -11.095  10.304  0.00  0.00    -0.646 OA
ATOM     36  O5  BDP d1178      10.883  -9.301   7.633  0.00  0.00    -0.340 OA
ATOM     37  C6  BDP d1178       9.641 -10.139   9.493  0.00  0.00     0.206 C 
ATOM     38  C5  BDP d1178      11.038  -9.886   8.911  0.00  0.00     0.152 C 
ATOM     39  C3  BDP d1178      13.123  -8.445   9.145  0.00  0.00     0.092 C 
ATOM     40  H   BDP d1178      13.808  -7.688  10.824  0.00  0.00     0.210 HD
ATOM     41  H   BDP d1178      12.675  -9.897   6.928  0.00  0.00     0.133 H 
ATOM     42  H   BDP d1178      11.184  -8.154  10.058  0.00  0.00     0.092 H 
ATOM     43  H   BDP d1178      12.182  -7.050   7.837  0.00  0.00     0.094 H 
ATOM     44  H   BDP d1178      14.593  -8.326   7.080  0.00  0.00     0.210 HD
ATOM     45  H   BDP d1178      11.571 -10.809   8.831  0.00  0.00     0.104 H 
ATOM     46  H   BDP d1178      13.839  -9.237   9.062  0.00  0.00     0.091 H 
ATOM     47  O1  NAG d1175      15.194 -16.548  -6.480  0.00  0.00    -0.369 OA
ATOM     48  O3  NAG d1175      13.664 -14.155  -2.757  0.00  0.00    -0.348 OA
ATOM     49  O6  NAG d1175      18.062 -18.424  -2.825  0.00  0.00    -0.398 OA
ATOM     50  C7  NAG d1175      12.595 -13.940  -5.641  0.00  0.00     0.214 C 
ATOM     51  O4  NAG d1175      15.875 -15.400  -1.167  0.00  0.00    -0.390 OA
ATOM     52  N2  NAG d1175      13.857 -14.385  -5.580  0.00  0.00    -0.349 N 
ATOM     53  C6  NAG d1175      16.864 -17.908  -2.312  0.00  0.00     0.043 C 
ATOM     54  C2  NAG d1175      14.376 -15.367  -4.615  0.00  0.00     0.087 C 
ATOM     55  C8  NAG d1175      11.512 -14.750  -5.005  0.00  0.00    -0.003 C 
ATOM     56  O7  NAG d1175      12.307 -12.877  -6.213  0.00  0.00    -0.274 OA
ATOM     57  C3  NAG d1175      14.826 -14.752  -3.298  0.00  0.00     0.093 C 
ATOM     58  C4  NAG d1175      15.384 -15.880  -2.419  0.00  0.00     0.089 C 
ATOM     59  C1  NAG d1175      15.583 -16.064  -5.226  0.00  0.00     0.151 C 
ATOM     60  C5  NAG d1175      16.452 -16.705  -3.147  0.00  0.00     0.089 C 
ATOM     61  O5  NAG d1175      15.998 -17.152  -4.411  0.00  0.00    -0.349 OA
ATOM     62  H   NAG d1175      14.910 -15.807  -7.039  0.00  0.00     0.212 HD
ATOM     63  H   NAG d1175      18.334 -19.193  -2.300  0.00  0.00     0.209 HD
ATOM     64  H   NAG d1175      15.184 -14.882  -0.725  0.00  0.00     0.210 HD
ATOM     65  H   NAG d1175      14.493 -14.023  -6.238  0.00  0.00     0.163 HD
ATOM     66  H   NAG d1175      17.008 -17.609  -1.295  0.00  0.00     0.078 H 
ATOM     67  H   NAG d1175      16.099 -18.656  -2.350  0.00  0.00     0.078 H 
ATOM     68  H   NAG d1175      13.570 -16.038  -4.404  0.00  0.00     0.084 H 
ATOM     69  H   NAG d1175      11.936 -15.627  -4.562  0.00  0.00     0.040 H 
ATOM     70  H   NAG d1175      10.797 -15.036  -5.748  0.00  0.00     0.040 H 
ATOM     71  H   NAG d1175      11.028 -14.167  -4.249  0.00  0.00     0.040 H 
ATOM     72  H   NAG d1175      15.599 -14.018  -3.390  0.00  0.00     0.091 H 
ATOM     73  H   NAG d1175      14.559 -16.529  -2.210  0.00  0.00     0.091 H 
ATOM     74  H   NAG d1175      16.401 -15.380  -5.308  0.00  0.00     0.132 H 
ATOM     75  H   NAG d1175      17.295 -16.064  -3.294  0.00  0.00     0.090 H 
ATOM     76  C2  NAG d1181       7.490 -15.351  20.534  0.00  0.00     0.087 C 
ATOM     77  C8  NAG d1181       4.765 -15.741  19.501  0.00  0.00    -0.003 C 
ATOM     78  O5  NAG d1181       9.886 -15.735  20.190  0.00  0.00    -0.349 OA
ATOM     79  O4  NAG d1181       8.742 -17.729  23.062  0.00  0.00    -0.390 OA
ATOM     80  C3  NAG d1181       7.610 -15.934  21.932  0.00  0.00     0.086 C 
ATOM     81  C1  NAG d1181       8.829 -14.799  20.039  0.00  0.00     0.154 C 
ATOM     82  N2  NAG d1181       6.479 -14.308  20.490  0.00  0.00    -0.349 N 
ATOM     83  C4  NAG d1181       8.681 -17.016  21.847  0.00  0.00     0.089 C 
ATOM     84  O6  NAG d1181      11.549 -17.807  20.352  0.00  0.00    -0.398 OA
ATOM     85  O3  NAG d1181       6.371 -16.437  22.402  0.00  0.00    -0.391 OA
ATOM     86  C5  NAG d1181      10.000 -16.308  21.491  0.00  0.00     0.089 C 
ATOM     87  O7  NAG d1181       4.859 -13.398  19.215  0.00  0.00    -0.274 OA
ATOM     88  C7  NAG d1181       5.380 -14.388  19.725  0.00  0.00     0.214 C 
ATOM     89  C6  NAG d1181      11.248 -17.197  21.591  0.00  0.00     0.043 C 
ATOM     90  H   NAG d1181       7.194 -16.148  19.885  0.00  0.00     0.084 H 
ATOM     91  H   NAG d1181       5.342 -16.484  20.013  0.00  0.00     0.040 H 
ATOM     92  H   NAG d1181       4.752 -15.959  18.453  0.00  0.00     0.040 H 
ATOM     93  H   NAG d1181       3.764 -15.745  19.878  0.00  0.00     0.040 H 
ATOM     94  H   NAG d1181       7.886 -18.152  23.233  0.00  0.00     0.210 HD
ATOM     95  H   NAG d1181       7.887 -15.184  22.643  0.00  0.00     0.090 H 
ATOM     96  H   NAG d1181       9.145 -13.947  20.604  0.00  0.00     0.132 H 
ATOM     97  H   NAG d1181       6.607 -13.506  21.047  0.00  0.00     0.163 HD
ATOM     98  H   NAG d1181       8.463 -17.744  21.094  0.00  0.00     0.091 H 
ATOM     99  H   NAG d1181      12.340 -18.360  20.448  0.00  0.00     0.209 HD
ATOM    100  H   NAG d1181       6.054 -17.129  21.802  0.00  0.00     0.210 HD
ATOM    101  H   NAG d1181      10.149 -15.545  22.226  0.00  0.00     0.090 H 
ATOM    102  H   NAG d1181      12.079 -16.596  21.893  0.00  0.00     0.078 H 
ATOM    103  H   NAG d1181      11.054 -17.968  22.307  0.00  0.00     0.078 H 
ATOM    104  C4  NAG d1179      11.811  -9.265  15.082  0.00  0.00     0.089 C 
ATOM    105  N2  NAG d1179      11.303 -11.826  12.299  0.00  0.00    -0.349 N 
ATOM    106  C6  NAG d1179      12.171  -6.797  14.644  0.00  0.00     0.043 C 
ATOM    107  O4  NAG d1179      11.116  -9.035  16.304  0.00  0.00    -0.390 OA
ATOM    108  O6  NAG d1179      13.583  -6.873  14.634  0.00  0.00    -0.398 OA
ATOM    109  C1  NAG d1179      11.602  -9.422  12.202  0.00  0.00     0.154 C 
ATOM    110  C5  NAG d1179      11.577  -8.097  14.128  0.00  0.00     0.089 C 
ATOM    111  O5  NAG d1179      12.197  -8.357  12.881  0.00  0.00    -0.349 OA
ATOM    112  C2  NAG d1179      11.850 -10.688  13.015  0.00  0.00     0.087 C 
ATOM    113  C8  NAG d1179      11.359 -13.973  11.254  0.00  0.00    -0.003 C 
ATOM    114  C7  NAG d1179      11.989 -12.957  12.146  0.00  0.00     0.214 C 
ATOM    115  C3  NAG d1179      11.307 -10.555  14.448  0.00  0.00     0.093 C 
ATOM    116  O3  NAG d1179      11.748 -11.650  15.237  0.00  0.00    -0.348 OA
ATOM    117  O7  NAG d1179      13.061 -13.185  12.697  0.00  0.00    -0.274 OA
ATOM    118  H   NAG d1179      12.859  -9.350  15.281  0.00  0.00     0.091 H 
ATOM    119  H   NAG d1179      10.398 -11.759  11.915  0.00  0.00     0.163 HD
ATOM    120  H   NAG d1179      11.833  -6.626  15.644  0.00  0.00     0.078 H 
ATOM    121  H   NAG d1179      11.858  -5.993  14.013  0.00  0.00     0.078 H 
ATOM    122  H   NAG d1179      10.166  -8.958  16.127  0.00  0.00     0.210 HD
ATOM    123  H   NAG d1179      13.871  -7.601  15.206  0.00  0.00     0.209 HD
ATOM    124  H   NAG d1179      10.569  -9.189  12.053  0.00  0.00     0.132 H 
ATOM    125  H   NAG d1179      10.516  -7.996  14.035  0.00  0.00     0.090 H 
ATOM    126  H   NAG d1179      12.902 -10.844  13.128  0.00  0.00     0.084 H 
ATOM    127  H   NAG d1179      10.436 -13.590  10.872  0.00  0.00     0.040 H 
ATOM    128  H   NAG d1179      11.171 -14.868  11.810  0.00  0.00     0.040 H 
ATOM    129  H   NAG d1179      12.019 -14.191  10.440  0.00  0.00     0.040 H 
ATOM    130  H   NAG d1179      10.238 -10.543  14.404  0.00  0.00     0.091 H 
ATOM    131  O5  BDP d1180      10.109 -11.750  16.855  0.00  0.00    -0.340 OA
ATOM    132  O6A BDP d1180       7.198 -11.417  18.479  0.00  0.00    -0.646 OA
ATOM    133  O2  BDP d1180      11.490 -14.524  14.970  0.00  0.00    -0.388 OA
ATOM    134  O3  BDP d1180      11.010 -15.651  17.645  0.00  0.00    -0.390 OA
ATOM    135  C5  BDP d1180       9.073 -12.468  17.487  0.00  0.00     0.152 C 
ATOM    136  C2  BDP d1180      11.229 -13.792  16.148  0.00  0.00     0.110 C 
ATOM    137  C3  BDP d1180      10.279 -14.614  17.015  0.00  0.00     0.092 C 
ATOM    138  C6  BDP d1180       8.438 -11.563  18.532  0.00  0.00     0.206 C 
ATOM    139  C1  BDP d1180      10.660 -12.429  15.754  0.00  0.00     0.160 C 
ATOM    140  C4  BDP d1180       9.635 -13.749  18.085  0.00  0.00     0.103 C 
ATOM    141  O6B BDP d1180       9.199 -11.005  19.366  0.00  0.00    -0.646 OA
ATOM    142  O4  BDP d1180       8.588 -14.483  18.658  0.00  0.00    -0.348 OA
ATOM    143  H   BDP d1180      12.094 -14.019  14.403  0.00  0.00     0.210 HD
ATOM    144  H   BDP d1180      11.426 -16.210  16.969  0.00  0.00     0.210 HD
ATOM    145  H   BDP d1180       8.315 -12.758  16.791  0.00  0.00     0.104 H 
ATOM    146  H   BDP d1180      12.114 -13.611  16.722  0.00  0.00     0.094 H 
ATOM    147  H   BDP d1180       9.510 -15.018  16.389  0.00  0.00     0.091 H 
ATOM    148  H   BDP d1180       9.880 -12.570  15.036  0.00  0.00     0.133 H 
ATOM    149  H   BDP d1180      10.371 -13.482  18.815  0.00  0.00     0.092 H 
ATOM    150  C3  BDP d1176      12.555 -11.101  -0.808  0.00  0.00     0.092 C 
ATOM    151  O4  BDP d1176      12.977 -10.688   1.589  0.00  0.00    -0.348 OA
ATOM    152  O3  BDP d1176      11.294 -10.444  -0.863  0.00  0.00    -0.390 OA
ATOM    153  O5  BDP d1176      14.052 -13.523  -0.538  0.00  0.00    -0.340 OA
ATOM    154  O2  BDP d1176      12.520 -11.572  -3.169  0.00  0.00    -0.388 OA
ATOM    155  C1  BDP d1176      13.857 -13.045  -1.852  0.00  0.00     0.160 C 
ATOM    156  O6B BDP d1176      15.384 -13.039   2.414  0.00  0.00    -0.646 OA
ATOM    157  C5  BDP d1176      14.116 -12.521   0.481  0.00  0.00     0.152 C 
ATOM    158  O6A BDP d1176      13.516 -14.200   2.069  0.00  0.00    -0.646 OA
ATOM    159  C6  BDP d1176      14.345 -13.305   1.753  0.00  0.00     0.206 C 
ATOM    160  C4  BDP d1176      12.839 -11.683   0.587  0.00  0.00     0.103 C 
ATOM    161  C2  BDP d1176      12.592 -12.185  -1.893  0.00  0.00     0.110 C 
ATOM    162  H   BDP d1176      13.331 -10.388  -0.993  0.00  0.00     0.091 H 
ATOM    163  H   BDP d1176      10.587 -11.087  -0.695  0.00  0.00     0.210 HD
ATOM    164  H   BDP d1176      11.724 -11.020  -3.218  0.00  0.00     0.210 HD
ATOM    165  H   BDP d1176      14.716 -12.475  -2.143  0.00  0.00     0.133 H 
ATOM    166  H   BDP d1176      14.887 -11.809   0.272  0.00  0.00     0.104 H 
ATOM    167  H   BDP d1176      12.003 -12.279   0.888  0.00  0.00     0.092 H 
ATOM    168  H   BDP d1176      11.756 -12.827  -1.709  0.00  0.00     0.094 H 
ENDROOT
TORSDOF 43
ENDMDL
MODEL 60
REMARK VINA RESULT:      -5.4      5.656      6.433
REMARK  0 active torsions:
REMARK  status: ('A' for Active; 'I' for Inactive)
REMARK       I    between atoms: C3_1  and  O3_90 
REMARK       I    between atoms: O1_4  and  C1_76 
REMARK       I    between atoms: C2_5  and  N2_21 
REMARK       I    between atoms: C8_6  and  C7_66 
REMARK       I    between atoms: C4_7  and  O4_24 
REMARK       I    between atoms: N2_9  and  C2_60 
REMARK       I    between atoms: N2_9  and  C7_69 
REMARK       I    between atoms: O4_12  and  C4_26 
REMARK       I    between atoms: O3_13  and  C3_65 
REMARK       I    between atoms: O3_13  and  C1_61 
REMARK       I    between atoms: C3_14  and  O3_35 
REMARK       I    between atoms: C6_15  and  C5_53 
REMARK       I    between atoms: C6_15  and  O6_46 
REMARK       I    between atoms: O6_16  and  C6_54 
REMARK       I    between atoms: C4_17  and  O4_49 
REMARK       I    between atoms: O4_18  and  C4_28 
REMARK       I    between atoms: O4_18  and  C1_47 
REMARK       I    between atoms: C3_19  and  O3_43 
REMARK       I    between atoms: C1_20  and  O4_91 
REMARK       I    between atoms: N2_21  and  C7_66 
REMARK       I    between atoms: O3_22  and  C3_82 
REMARK       I    between atoms: C7_23  and  C8_62 
REMARK       I    between atoms: C7_23  and  N2_51 
REMARK       I    between atoms: C2_25  and  N2_41 
REMARK       I    between atoms: C1_27  and  O3_90 
REMARK       I    between atoms: O6_29  and  C6_74 
REMARK       I    between atoms: O2_30  and  C2_37 
REMARK       I    between atoms: C2_31  and  O2_42 
REMARK       I    between atoms: O3_32  and  C3_45 
REMARK       I    between atoms: O4_33  and  C4_73 
REMARK       I    between atoms: O4_34  and  C4_84 
REMARK       I    between atoms: O4_34  and  C1_85 
REMARK       I    between atoms: C5_36  and  C6_48 
REMARK       I    between atoms: C6_38  and  C5_40 
REMARK       I    between atoms: C6_38  and  O6_89 
REMARK       I    between atoms: N2_41  and  C7_50 
REMARK       I    between atoms: C5_44  and  C6_74 
REMARK       I    between atoms: C7_50  and  C8_75 
REMARK       I    between atoms: N2_51  and  C2_58 
REMARK       I    between atoms: C1_52  and  O3_87 
REMARK       I    between atoms: C6_54  and  C5_86 
REMARK       I    between atoms: O2_59  and  C2_93 
REMARK       I    between atoms: C8_64  and  C7_69 
REMARK       I    between atoms: C6_70  and  C5_80 
REMARK       I    between atoms: C4_72  and  O4_91 
REMARK       I    between atoms: C5_77  and  C6_79 
REMARK       I    between atoms: C3_83  and  O3_87 
ROOT
ATOM      1  C3  NAG d1177      15.339 -10.592  11.315  0.00  0.00     0.093 C 
ATOM      2  O7  NAG d1177      14.780  -6.763  11.072  0.00  0.00    -0.274 OA
ATOM      3  C4  NAG d1177      16.372 -11.449  12.069  0.00  0.00     0.089 C 
ATOM      4  C2  NAG d1177      14.866  -9.442  12.189  0.00  0.00     0.087 C 
ATOM      5  C6  NAG d1177      16.930 -12.566  14.294  0.00  0.00     0.043 C 
ATOM      6  C5  NAG d1177      15.876 -11.820  13.458  0.00  0.00     0.089 C 
ATOM      7  N2  NAG d1177      13.710  -8.741  11.602  0.00  0.00    -0.349 N 
ATOM      8  O4  NAG d1177      16.667 -12.626  11.343  0.00  0.00    -0.390 OA
ATOM      9  C7  NAG d1177      13.748  -7.507  11.092  0.00  0.00     0.214 C 
ATOM     10  O5  NAG d1177      15.498 -10.647  14.168  0.00  0.00    -0.349 OA
ATOM     11  C8  NAG d1177      12.401  -7.056  10.590  0.00  0.00    -0.003 C 
ATOM     12  C1  NAG d1177      14.437  -9.946  13.566  0.00  0.00     0.154 C 
ATOM     13  O6  NAG d1177      18.062 -11.749  14.530  0.00  0.00    -0.398 OA
ATOM     14  O3  NAG d1177      15.939 -10.024  10.183  0.00  0.00    -0.348 OA
ATOM     15  H   NAG d1177      14.518 -11.224  11.048  0.00  0.00     0.091 H 
ATOM     16  H   NAG d1177      17.261 -10.862  12.171  0.00  0.00     0.091 H 
ATOM     17  H   NAG d1177      15.696  -8.770  12.268  0.00  0.00     0.084 H 
ATOM     18  H   NAG d1177      17.235 -13.446  13.767  0.00  0.00     0.078 H 
ATOM     19  H   NAG d1177      16.495 -12.826  15.236  0.00  0.00     0.078 H 
ATOM     20  H   NAG d1177      15.042 -12.474  13.313  0.00  0.00     0.090 H 
ATOM     21  H   NAG d1177      12.847  -9.216  11.585  0.00  0.00     0.163 HD
ATOM     22  H   NAG d1177      15.862 -13.159  11.250  0.00  0.00     0.210 HD
ATOM     23  H   NAG d1177      12.483  -6.066  10.192  0.00  0.00     0.040 H 
ATOM     24  H   NAG d1177      11.700  -7.059  11.398  0.00  0.00     0.040 H 
ATOM     25  H   NAG d1177      12.065  -7.723   9.823  0.00  0.00     0.040 H 
ATOM     26  H   NAG d1177      13.609 -10.616  13.466  0.00  0.00     0.132 H 
ATOM     27  H   NAG d1177      18.468 -11.505  13.683  0.00  0.00     0.209 HD
ATOM     28  O6A BDP d1178      15.858 -14.030   7.564  0.00  0.00    -0.646 OA
ATOM     29  O4  BDP d1178      14.032 -11.302   5.247  0.00  0.00    -0.348 OA
ATOM     30  O3  BDP d1178      15.787  -9.082   5.553  0.00  0.00    -0.390 OA
ATOM     31  C1  BDP d1178      15.219 -10.311   8.976  0.00  0.00     0.160 C 
ATOM     32  C4  BDP d1178      14.982 -11.200   6.283  0.00  0.00     0.103 C 
ATOM     33  C2  BDP d1178      15.853  -9.484   7.877  0.00  0.00     0.110 C 
ATOM     34  O2  BDP d1178      15.823  -8.120   8.209  0.00  0.00    -0.388 OA
ATOM     35  O6B BDP d1178      13.830 -14.171   6.644  0.00  0.00    -0.646 OA
ATOM     36  O5  BDP d1178      15.306 -11.680   8.621  0.00  0.00    -0.340 OA
ATOM     37  C6  BDP d1178      14.756 -13.525   7.207  0.00  0.00     0.206 C 
ATOM     38  C5  BDP d1178      14.548 -12.029   7.481  0.00  0.00     0.152 C 
ATOM     39  C3  BDP d1178      15.073  -9.696   6.610  0.00  0.00     0.092 C 
ATOM     40  H   BDP d1178      15.303  -9.205   4.721  0.00  0.00     0.210 HD
ATOM     41  H   BDP d1178      14.185 -10.079   9.117  0.00  0.00     0.133 H 
ATOM     42  H   BDP d1178      15.941 -11.581   6.000  0.00  0.00     0.092 H 
ATOM     43  H   BDP d1178      16.871  -9.787   7.750  0.00  0.00     0.094 H 
ATOM     44  H   BDP d1178      14.902  -7.836   8.327  0.00  0.00     0.210 HD
ATOM     45  H   BDP d1178      13.511 -11.833   7.653  0.00  0.00     0.104 H 
ATOM     46  H   BDP d1178      14.090  -9.288   6.728  0.00  0.00     0.091 H 
ATOM     47  O1  NAG d1175       8.840  -6.907  22.964  0.00  0.00    -0.369 OA
ATOM     48  O3  NAG d1175      11.134  -8.363  19.149  0.00  0.00    -0.348 OA
ATOM     49  O6  NAG d1175       5.586  -5.760  19.329  0.00  0.00    -0.398 OA
ATOM     50  C7  NAG d1175      12.094  -8.601  22.070  0.00  0.00     0.214 C 
ATOM     51  O4  NAG d1175       8.968  -7.128  17.491  0.00  0.00    -0.390 OA
ATOM     52  N2  NAG d1175      11.210  -7.612  21.886  0.00  0.00    -0.349 N 
ATOM     53  C6  NAG d1175       6.439  -6.801  18.934  0.00  0.00     0.043 C 
ATOM     54  C2  NAG d1175       9.992  -7.689  21.065  0.00  0.00     0.087 C 
ATOM     55  C8  NAG d1175      11.668 -10.009  21.804  0.00  0.00    -0.003 C 
ATOM     56  O7  NAG d1175      13.252  -8.377  22.456  0.00  0.00    -0.274 OA
ATOM     57  C3  NAG d1175      10.223  -7.377  19.595  0.00  0.00     0.093 C 
ATOM     58  C4  NAG d1175       8.867  -7.448  18.879  0.00  0.00     0.089 C 
ATOM     59  C1  NAG d1175       8.981  -6.680  21.590  0.00  0.00     0.151 C 
ATOM     60  C5  NAG d1175       7.805  -6.581  19.566  0.00  0.00     0.089 C 
ATOM     61  O5  NAG d1175       7.723  -6.853  20.953  0.00  0.00    -0.349 OA
ATOM     62  H   NAG d1175       9.698  -6.789  23.401  0.00  0.00     0.212 HD
ATOM     63  H   NAG d1175       4.712  -5.891  18.931  0.00  0.00     0.209 HD
ATOM     64  H   NAG d1175       9.644  -7.688  17.078  0.00  0.00     0.210 HD
ATOM     65  H   NAG d1175      11.392  -6.758  22.340  0.00  0.00     0.163 HD
ATOM     66  H   NAG d1175       6.532  -6.804  17.868  0.00  0.00     0.078 H 
ATOM     67  H   NAG d1175       6.038  -7.741  19.252  0.00  0.00     0.078 H 
ATOM     68  H   NAG d1175       9.645  -8.699  21.134  0.00  0.00     0.084 H 
ATOM     69  H   NAG d1175      10.647 -10.018  21.482  0.00  0.00     0.040 H 
ATOM     70  H   NAG d1175      11.764 -10.586  22.700  0.00  0.00     0.040 H 
ATOM     71  H   NAG d1175      12.287 -10.430  21.040  0.00  0.00     0.040 H 
ATOM     72  H   NAG d1175      10.625  -6.404  19.404  0.00  0.00     0.091 H 
ATOM     73  H   NAG d1175       8.548  -8.468  18.949  0.00  0.00     0.091 H 
ATOM     74  H   NAG d1175       9.319  -5.684  21.392  0.00  0.00     0.132 H 
ATOM     75  H   NAG d1175       8.103  -5.562  19.436  0.00  0.00     0.090 H 
ATOM     76  C2  NAG d1181       9.349 -19.787  -2.024  0.00  0.00     0.087 C 
ATOM     77  C8  NAG d1181      10.129 -22.169  -0.486  0.00  0.00    -0.003 C 
ATOM     78  O5  NAG d1181       8.153 -17.648  -2.023  0.00  0.00    -0.349 OA
ATOM     79  O4  NAG d1181       6.375 -20.025  -4.196  0.00  0.00    -0.390 OA
ATOM     80  C3  NAG d1181       8.590 -20.196  -3.276  0.00  0.00     0.086 C 
ATOM     81  C1  NAG d1181       9.426 -18.265  -1.886  0.00  0.00     0.154 C 
ATOM     82  N2  NAG d1181      10.688 -20.351  -2.021  0.00  0.00    -0.349 N 
ATOM     83  C4  NAG d1181       7.209 -19.561  -3.157  0.00  0.00     0.089 C 
ATOM     84  O6  NAG d1181       5.611 -16.860  -2.043  0.00  0.00    -0.398 OA
ATOM     85  O3  NAG d1181       8.525 -21.605  -3.417  0.00  0.00    -0.391 OA
ATOM     86  C5  NAG d1181       7.419 -18.036  -3.181  0.00  0.00     0.089 C 
ATOM     87  O7  NAG d1181      12.287 -21.232  -0.699  0.00  0.00    -0.274 OA
ATOM     88  C7  NAG d1181      11.118 -21.206  -1.079  0.00  0.00     0.214 C 
ATOM     89  C6  NAG d1181       6.126 -17.217  -3.310  0.00  0.00     0.043 C 
ATOM     90  H   NAG d1181       8.808 -20.174  -1.187  0.00  0.00     0.084 H 
ATOM     91  H   NAG d1181       9.167 -22.009  -0.928  0.00  0.00     0.040 H 
ATOM     92  H   NAG d1181      10.066 -22.011   0.571  0.00  0.00     0.040 H 
ATOM     93  H   NAG d1181      10.448 -23.171  -0.678  0.00  0.00     0.040 H 
ATOM     94  H   NAG d1181       6.281 -20.988  -4.130  0.00  0.00     0.210 HD
ATOM     95  H   NAG d1181       9.087 -19.856  -4.160  0.00  0.00     0.090 H 
ATOM     96  H   NAG d1181      10.020 -17.821  -2.657  0.00  0.00     0.132 H 
ATOM     97  H   NAG d1181      11.308 -20.094  -2.741  0.00  0.00     0.163 HD
ATOM     98  H   NAG d1181       6.715 -19.830  -2.247  0.00  0.00     0.091 H 
ATOM     99  H   NAG d1181       4.797 -16.346  -2.159  0.00  0.00     0.209 HD
ATOM    100  H   NAG d1181       8.082 -21.987  -2.644  0.00  0.00     0.210 HD
ATOM    101  H   NAG d1181       7.971 -17.815  -4.069  0.00  0.00     0.090 H 
ATOM    102  H   NAG d1181       6.333 -16.326  -3.865  0.00  0.00     0.078 H 
ATOM    103  H   NAG d1181       5.397 -17.818  -3.812  0.00  0.00     0.078 H 
ATOM    104  C4  NAG d1179      14.047 -12.542   1.271  0.00  0.00     0.089 C 
ATOM    105  N2  NAG d1179      12.233 -13.220   4.559  0.00  0.00    -0.349 N 
ATOM    106  C6  NAG d1179      16.241 -11.284   1.134  0.00  0.00     0.043 C 
ATOM    107  O4  NAG d1179      14.360 -13.382   0.164  0.00  0.00    -0.390 OA
ATOM    108  O6  NAG d1179      15.651 -10.018   0.919  0.00  0.00    -0.398 OA
ATOM    109  C1  NAG d1179      14.347 -12.119   4.116  0.00  0.00     0.154 C 
ATOM    110  C5  NAG d1179      15.330 -12.143   1.996  0.00  0.00     0.089 C 
ATOM    111  O5  NAG d1179      15.020 -11.376   3.145  0.00  0.00    -0.349 OA
ATOM    112  C2  NAG d1179      12.987 -12.505   3.545  0.00  0.00     0.087 C 
ATOM    113  C8  NAG d1179      10.368 -13.646   5.991  0.00  0.00    -0.003 C 
ATOM    114  C7  NAG d1179      10.957 -12.937   4.818  0.00  0.00     0.214 C 
ATOM    115  C3  NAG d1179      13.127 -13.287   2.229  0.00  0.00     0.093 C 
ATOM    116  O3  NAG d1179      11.856 -13.433   1.614  0.00  0.00    -0.348 OA
ATOM    117  O7  NAG d1179      10.281 -12.161   4.151  0.00  0.00    -0.274 OA
ATOM    118  H   NAG d1179      13.556 -11.659   0.919  0.00  0.00     0.091 H 
ATOM    119  H   NAG d1179      12.677 -13.935   5.070  0.00  0.00     0.163 HD
ATOM    120  H   NAG d1179      16.397 -11.767   0.193  0.00  0.00     0.078 H 
ATOM    121  H   NAG d1179      17.178 -11.155   1.635  0.00  0.00     0.078 H 
ATOM    122  H   NAG d1179      14.805 -14.183   0.482  0.00  0.00     0.210 HD
ATOM    123  H   NAG d1179      14.801 -10.131   0.466  0.00  0.00     0.209 HD
ATOM    124  H   NAG d1179      14.962 -12.951   4.389  0.00  0.00     0.132 H 
ATOM    125  H   NAG d1179      15.827 -13.057   2.245  0.00  0.00     0.090 H 
ATOM    126  H   NAG d1179      12.439 -11.622   3.289  0.00  0.00     0.084 H 
ATOM    127  H   NAG d1179      11.111 -14.273   6.439  0.00  0.00     0.040 H 
ATOM    128  H   NAG d1179       9.544 -14.247   5.667  0.00  0.00     0.040 H 
ATOM    129  H   NAG d1179      10.028 -12.929   6.708  0.00  0.00     0.040 H 
ATOM    130  H   NAG d1179      13.539 -14.249   2.451  0.00  0.00     0.091 H 
ATOM    131  O5  BDP d1180      12.164 -15.338   0.352  0.00  0.00    -0.340 OA
ATOM    132  O6A BDP d1180      13.339 -18.261  -0.786  0.00  0.00    -0.646 OA
ATOM    133  O2  BDP d1180       9.340 -14.570   2.495  0.00  0.00    -0.388 OA
ATOM    134  O3  BDP d1180       8.139 -16.005   0.225  0.00  0.00    -0.390 OA
ATOM    135  C5  BDP d1180      11.805 -16.672   0.064  0.00  0.00     0.152 C 
ATOM    136  C2  BDP d1180       9.960 -14.836   1.256  0.00  0.00     0.110 C 
ATOM    137  C3  BDP d1180       9.444 -16.180   0.747  0.00  0.00     0.092 C 
ATOM    138  C6  BDP d1180      12.739 -17.190  -1.019  0.00  0.00     0.206 C 
ATOM    139  C1  BDP d1180      11.475 -14.808   1.457  0.00  0.00     0.160 C 
ATOM    140  C4  BDP d1180      10.342 -16.725  -0.350  0.00  0.00     0.103 C 
ATOM    141  O6B BDP d1180      12.865 -16.501  -2.065  0.00  0.00    -0.646 OA
ATOM    142  O4  BDP d1180       9.981 -18.060  -0.576  0.00  0.00    -0.348 OA
ATOM    143  H   BDP d1180       9.654 -13.719   2.838  0.00  0.00     0.210 HD
ATOM    144  H   BDP d1180       7.558 -15.656   0.918  0.00  0.00     0.210 HD
ATOM    145  H   BDP d1180      11.907 -17.300   0.923  0.00  0.00     0.104 H 
ATOM    146  H   BDP d1180       9.726 -14.100   0.515  0.00  0.00     0.094 H 
ATOM    147  H   BDP d1180       9.436 -16.873   1.563  0.00  0.00     0.091 H 
ATOM    148  H   BDP d1180      11.725 -15.402   2.312  0.00  0.00     0.133 H 
ATOM    149  H   BDP d1180      10.223 -16.133  -1.233  0.00  0.00     0.092 H 
ATOM    150  C3  BDP d1176      14.106  -8.804  16.842  0.00  0.00     0.092 C 
ATOM    151  O4  BDP d1176      14.025  -8.834  14.375  0.00  0.00    -0.348 OA
ATOM    152  O3  BDP d1176      15.184  -9.723  16.977  0.00  0.00    -0.390 OA
ATOM    153  O5  BDP d1176      11.289  -8.310  16.816  0.00  0.00    -0.340 OA
ATOM    154  O2  BDP d1176      13.987  -8.448  19.221  0.00  0.00    -0.388 OA
ATOM    155  C1  BDP d1176      11.969  -8.024  18.020  0.00  0.00     0.160 C 
ATOM    156  O6B BDP d1176      10.866  -7.614  13.645  0.00  0.00    -0.646 OA
ATOM    157  C5  BDP d1176      12.058  -8.152  15.620  0.00  0.00     0.152 C 
ATOM    158  O6A BDP d1176      10.532  -9.630  14.530  0.00  0.00    -0.646 OA
ATOM    159  C6  BDP d1176      11.089  -8.500  14.513  0.00  0.00     0.206 C 
ATOM    160  C4  BDP d1176      13.288  -9.062  15.566  0.00  0.00     0.103 C 
ATOM    161  C2  BDP d1176      13.233  -8.883  18.101  0.00  0.00     0.110 C 
ATOM    162  H   BDP d1176      14.499  -7.814  16.745  0.00  0.00     0.091 H 
ATOM    163  H   BDP d1176      14.832 -10.623  17.065  0.00  0.00     0.210 HD
ATOM    164  H   BDP d1176      14.795  -8.979  19.292  0.00  0.00     0.210 HD
ATOM    165  H   BDP d1176      12.213  -6.982  18.039  0.00  0.00     0.133 H 
ATOM    166  H   BDP d1176      12.454  -7.161  15.547  0.00  0.00     0.104 H 
ATOM    167  H   BDP d1176      13.010 -10.095  15.538  0.00  0.00     0.092 H 
ATOM    168  H   BDP d1176      12.928  -9.904  18.196  0.00  0.00     0.094 H 
ENDROOT
TORSDOF 43
ENDMDL
MODEL 61
REMARK VINA RESULT:      -5.3      4.706      6.639
REMARK  0 active torsions:
REMARK  status: ('A' for Active; 'I' for Inactive)
REMARK       I    between atoms: C3_1  and  O3_90 
REMARK       I    between atoms: O1_4  and  C1_76 
REMARK       I    between atoms: C2_5  and  N2_21 
REMARK       I    between atoms: C8_6  and  C7_66 
REMARK       I    between atoms: C4_7  and  O4_24 
REMARK       I    between atoms: N2_9  and  C2_60 
REMARK       I    between atoms: N2_9  and  C7_69 
REMARK       I    between atoms: O4_12  and  C4_26 
REMARK       I    between atoms: O3_13  and  C3_65 
REMARK       I    between atoms: O3_13  and  C1_61 
REMARK       I    between atoms: C3_14  and  O3_35 
REMARK       I    between atoms: C6_15  and  C5_53 
REMARK       I    between atoms: C6_15  and  O6_46 
REMARK       I    between atoms: O6_16  and  C6_54 
REMARK       I    between atoms: C4_17  and  O4_49 
REMARK       I    between atoms: O4_18  and  C4_28 
REMARK       I    between atoms: O4_18  and  C1_47 
REMARK       I    between atoms: C3_19  and  O3_43 
REMARK       I    between atoms: C1_20  and  O4_91 
REMARK       I    between atoms: N2_21  and  C7_66 
REMARK       I    between atoms: O3_22  and  C3_82 
REMARK       I    between atoms: C7_23  and  C8_62 
REMARK       I    between atoms: C7_23  and  N2_51 
REMARK       I    between atoms: C2_25  and  N2_41 
REMARK       I    between atoms: C1_27  and  O3_90 
REMARK       I    between atoms: O6_29  and  C6_74 
REMARK       I    between atoms: O2_30  and  C2_37 
REMARK       I    between atoms: C2_31  and  O2_42 
REMARK       I    between atoms: O3_32  and  C3_45 
REMARK       I    between atoms: O4_33  and  C4_73 
REMARK       I    between atoms: O4_34  and  C4_84 
REMARK       I    between atoms: O4_34  and  C1_85 
REMARK       I    between atoms: C5_36  and  C6_48 
REMARK       I    between atoms: C6_38  and  C5_40 
REMARK       I    between atoms: C6_38  and  O6_89 
REMARK       I    between atoms: N2_41  and  C7_50 
REMARK       I    between atoms: C5_44  and  C6_74 
REMARK       I    between atoms: C7_50  and  C8_75 
REMARK       I    between atoms: N2_51  and  C2_58 
REMARK       I    between atoms: C1_52  and  O3_87 
REMARK       I    between atoms: C6_54  and  C5_86 
REMARK       I    between atoms: O2_59  and  C2_93 
REMARK       I    between atoms: C8_64  and  C7_69 
REMARK       I    between atoms: C6_70  and  C5_80 
REMARK       I    between atoms: C4_72  and  O4_91 
REMARK       I    between atoms: C5_77  and  C6_79 
REMARK       I    between atoms: C3_83  and  O3_87 
ROOT
ATOM      1  C3  NAG d1177      13.383 -11.171  12.220  0.00  0.00     0.093 C 
ATOM      2  O7  NAG d1177       9.889 -11.847  13.760  0.00  0.00    -0.274 OA
ATOM      3  C4  NAG d1177      14.533 -10.230  12.618  0.00  0.00     0.089 C 
ATOM      4  C2  NAG d1177      12.777 -11.818  13.454  0.00  0.00     0.087 C 
ATOM      5  C6  NAG d1177      16.601  -9.968  14.090  0.00  0.00     0.043 C 
ATOM      6  C5  NAG d1177      15.507 -10.913  13.564  0.00  0.00     0.089 C 
ATOM      7  N2  NAG d1177      11.839 -12.901  13.107  0.00  0.00    -0.349 N 
ATOM      8  O4  NAG d1177      15.227  -9.779  11.471  0.00  0.00    -0.390 OA
ATOM      9  C7  NAG d1177      10.514 -12.838  13.264  0.00  0.00     0.214 C 
ATOM     10  O5  NAG d1177      14.807 -11.443  14.683  0.00  0.00    -0.349 OA
ATOM     11  C8  NAG d1177       9.829 -14.111  12.841  0.00  0.00    -0.003 C 
ATOM     12  C1  NAG d1177      13.864 -12.430  14.337  0.00  0.00     0.154 C 
ATOM     13  O6  NAG d1177      16.039  -8.919  14.858  0.00  0.00    -0.398 OA
ATOM     14  O3  NAG d1177      12.363 -10.432  11.605  0.00  0.00    -0.348 OA
ATOM     15  H   NAG d1177      13.778 -11.915  11.560  0.00  0.00     0.091 H 
ATOM     16  H   NAG d1177      14.100  -9.392  13.123  0.00  0.00     0.091 H 
ATOM     17  H   NAG d1177      12.256 -11.039  13.971  0.00  0.00     0.084 H 
ATOM     18  H   NAG d1177      17.130  -9.550  13.259  0.00  0.00     0.078 H 
ATOM     19  H   NAG d1177      17.265 -10.529  14.713  0.00  0.00     0.078 H 
ATOM     20  H   NAG d1177      15.981 -11.688  12.998  0.00  0.00     0.090 H 
ATOM     21  H   NAG d1177      12.216 -13.731  12.733  0.00  0.00     0.163 HD
ATOM     22  H   NAG d1177      15.621 -10.538  11.012  0.00  0.00     0.210 HD
ATOM     23  H   NAG d1177       8.773 -14.012  12.984  0.00  0.00     0.040 H 
ATOM     24  H   NAG d1177      10.194 -14.926  13.431  0.00  0.00     0.040 H 
ATOM     25  H   NAG d1177      10.033 -14.300  11.807  0.00  0.00     0.040 H 
ATOM     26  H   NAG d1177      14.373 -13.204  13.803  0.00  0.00     0.132 H 
ATOM     27  H   NAG d1177      15.433  -8.401  14.305  0.00  0.00     0.209 HD
ATOM     28  O6A BDP d1178      14.614  -9.949   7.408  0.00  0.00    -0.646 OA
ATOM     29  O4  BDP d1178      11.045 -11.516   6.437  0.00  0.00    -0.348 OA
ATOM     30  O3  BDP d1178       9.310  -9.922   8.032  0.00  0.00    -0.390 OA
ATOM     31  C1  BDP d1178      12.009 -10.948  10.314  0.00  0.00     0.160 C 
ATOM     32  C4  BDP d1178      11.487 -10.739   7.525  0.00  0.00     0.103 C 
ATOM     33  C2  BDP d1178      10.780 -10.191   9.858  0.00  0.00     0.110 C 
ATOM     34  O2  BDP d1178       9.743 -10.328  10.794  0.00  0.00    -0.388 OA
ATOM     35  O6B BDP d1178      14.223 -11.807   6.237  0.00  0.00    -0.646 OA
ATOM     36  O5  BDP d1178      13.042 -10.752   9.365  0.00  0.00    -0.340 OA
ATOM     37  C6  BDP d1178      13.960 -11.004   7.175  0.00  0.00     0.206 C 
ATOM     38  C5  BDP d1178      12.773 -11.314   8.096  0.00  0.00     0.152 C 
ATOM     39  C3  BDP d1178      10.330 -10.761   8.542  0.00  0.00     0.092 C 
ATOM     40  H   BDP d1178       9.000 -10.269   7.181  0.00  0.00     0.210 HD
ATOM     41  H   BDP d1178      11.836 -12.001  10.390  0.00  0.00     0.133 H 
ATOM     42  H   BDP d1178      11.720  -9.733   7.244  0.00  0.00     0.092 H 
ATOM     43  H   BDP d1178      11.021  -9.154   9.758  0.00  0.00     0.094 H 
ATOM     44  H   BDP d1178       9.517 -11.267  10.892  0.00  0.00     0.210 HD
ATOM     45  H   BDP d1178      12.646 -12.372   8.181  0.00  0.00     0.104 H 
ATOM     46  H   BDP d1178       9.993 -11.767   8.690  0.00  0.00     0.091 H 
ATOM     47  O1  NAG d1175      15.508 -19.503  23.063  0.00  0.00    -0.369 OA
ATOM     48  O3  NAG d1175      15.037 -16.601  19.418  0.00  0.00    -0.348 OA
ATOM     49  O6  NAG d1175      12.640 -22.216  19.975  0.00  0.00    -0.398 OA
ATOM     50  C7  NAG d1175      16.682 -16.084  21.974  0.00  0.00     0.214 C 
ATOM     51  O4  NAG d1175      13.080 -18.542  18.247  0.00  0.00    -0.390 OA
ATOM     52  N2  NAG d1175      15.695 -16.970  22.155  0.00  0.00    -0.349 N 
ATOM     53  C6  NAG d1175      13.393 -21.270  19.265  0.00  0.00     0.043 C 
ATOM     54  C2  NAG d1175      15.324 -18.046  21.222  0.00  0.00     0.087 C 
ATOM     55  C8  NAG d1175      17.773 -16.406  21.004  0.00  0.00    -0.003 C 
ATOM     56  O7  NAG d1175      16.713 -15.008  22.592  0.00  0.00    -0.274 OA
ATOM     57  C3  NAG d1175      14.353 -17.609  20.137  0.00  0.00     0.093 C 
ATOM     58  C4  NAG d1175      14.023 -18.838  19.277  0.00  0.00     0.089 C 
ATOM     59  C1  NAG d1175      14.654 -19.166  22.006  0.00  0.00     0.151 C 
ATOM     60  C5  NAG d1175      13.554 -20.026  20.125  0.00  0.00     0.089 C 
ATOM     61  O5  NAG d1175      14.455 -20.305  21.180  0.00  0.00    -0.349 OA
ATOM     62  H   NAG d1175      15.645 -18.727  23.628  0.00  0.00     0.212 HD
ATOM     63  H   NAG d1175      12.532 -23.014  19.436  0.00  0.00     0.209 HD
ATOM     64  H   NAG d1175      13.397 -17.788  17.724  0.00  0.00     0.210 HD
ATOM     65  H   NAG d1175      15.171 -16.895  22.984  0.00  0.00     0.163 HD
ATOM     66  H   NAG d1175      12.888 -21.017  18.357  0.00  0.00     0.078 H 
ATOM     67  H   NAG d1175      14.356 -21.675  19.028  0.00  0.00     0.078 H 
ATOM     68  H   NAG d1175      16.230 -18.357  20.745  0.00  0.00     0.084 H 
ATOM     69  H   NAG d1175      17.589 -17.365  20.566  0.00  0.00     0.040 H 
ATOM     70  H   NAG d1175      18.712 -16.422  21.516  0.00  0.00     0.040 H 
ATOM     71  H   NAG d1175      17.798 -15.661  20.236  0.00  0.00     0.040 H 
ATOM     72  H   NAG d1175      13.423 -17.224  20.500  0.00  0.00     0.091 H 
ATOM     73  H   NAG d1175      14.938 -19.121  18.801  0.00  0.00     0.091 H 
ATOM     74  H   NAG d1175      13.699 -18.844  22.364  0.00  0.00     0.132 H 
ATOM     75  H   NAG d1175      12.609 -19.755  20.546  0.00  0.00     0.090 H 
ATOM     76  C2  NAG d1181      14.822 -14.689  -4.630  0.00  0.00     0.087 C 
ATOM     77  C8  NAG d1181      17.676 -14.052  -4.324  0.00  0.00    -0.003 C 
ATOM     78  O5  NAG d1181      12.905 -15.959  -3.786  0.00  0.00    -0.349 OA
ATOM     79  O4  NAG d1181      13.880 -17.288  -7.074  0.00  0.00    -0.390 OA
ATOM     80  C3  NAG d1181      14.552 -15.233  -6.024  0.00  0.00     0.086 C 
ATOM     81  C1  NAG d1181      13.557 -14.698  -3.769  0.00  0.00     0.154 C 
ATOM     82  N2  NAG d1181      15.367 -13.343  -4.694  0.00  0.00    -0.349 N 
ATOM     83  C4  NAG d1181      14.002 -16.641  -5.827  0.00  0.00     0.089 C 
ATOM     84  O6  NAG d1181      12.112 -18.500  -3.813  0.00  0.00    -0.398 OA
ATOM     85  O3  NAG d1181      15.718 -15.217  -6.831  0.00  0.00    -0.391 OA
ATOM     86  C5  NAG d1181      12.662 -16.494  -5.084  0.00  0.00     0.089 C 
ATOM     87  O7  NAG d1181      16.832 -11.927  -3.730  0.00  0.00    -0.274 OA
ATOM     88  C7  NAG d1181      16.583 -13.025  -4.224  0.00  0.00     0.214 C 
ATOM     89  C6  NAG d1181      11.835 -17.785  -5.000  0.00  0.00     0.043 C 
ATOM     90  H   NAG d1181      15.544 -15.334  -4.175  0.00  0.00     0.084 H 
ATOM     91  H   NAG d1181      17.289 -14.942  -4.776  0.00  0.00     0.040 H 
ATOM     92  H   NAG d1181      18.043 -14.279  -3.345  0.00  0.00     0.040 H 
ATOM     93  H   NAG d1181      18.474 -13.666  -4.923  0.00  0.00     0.040 H 
ATOM     94  H   NAG d1181      14.752 -17.351  -7.493  0.00  0.00     0.210 HD
ATOM     95  H   NAG d1181      13.848 -14.622  -6.548  0.00  0.00     0.090 H 
ATOM     96  H   NAG d1181      12.820 -14.013  -4.132  0.00  0.00     0.132 H 
ATOM     97  H   NAG d1181      14.818 -12.633  -5.099  0.00  0.00     0.163 HD
ATOM     98  H   NAG d1181      14.657 -17.255  -5.245  0.00  0.00     0.091 H 
ATOM     99  H   NAG d1181      11.575 -19.308  -3.790  0.00  0.00     0.209 HD
ATOM    100  H   NAG d1181      16.407 -15.755  -6.414  0.00  0.00     0.210 HD
ATOM    101  H   NAG d1181      12.062 -15.823  -5.662  0.00  0.00     0.090 H 
ATOM    102  H   NAG d1181      10.796 -17.534  -5.021  0.00  0.00     0.078 H 
ATOM    103  H   NAG d1181      12.094 -18.405  -5.833  0.00  0.00     0.078 H 
ATOM    104  C4  NAG d1179      10.224 -10.849   2.408  0.00  0.00     0.089 C 
ATOM    105  N2  NAG d1179      12.331 -13.109   4.648  0.00  0.00    -0.349 N 
ATOM    106  C6  NAG d1179       9.136  -8.714   3.227  0.00  0.00     0.043 C 
ATOM    107  O4  NAG d1179      10.440 -10.338   1.096  0.00  0.00    -0.390 OA
ATOM    108  O6  NAG d1179       7.901  -9.318   3.558  0.00  0.00    -0.398 OA
ATOM    109  C1  NAG d1179      11.230 -11.001   5.115  0.00  0.00     0.154 C 
ATOM    110  C5  NAG d1179      10.269  -9.708   3.421  0.00  0.00     0.089 C 
ATOM    111  O5  NAG d1179      10.137 -10.220   4.735  0.00  0.00    -0.349 OA
ATOM    112  C2  NAG d1179      11.245 -12.242   4.229  0.00  0.00     0.087 C 
ATOM    113  C8  NAG d1179      13.324 -15.149   5.396  0.00  0.00    -0.003 C 
ATOM    114  C7  NAG d1179      12.161 -14.420   4.813  0.00  0.00     0.214 C 
ATOM    115  C3  NAG d1179      11.303 -11.871   2.738  0.00  0.00     0.093 C 
ATOM    116  O3  NAG d1179      11.090 -13.028   1.943  0.00  0.00    -0.348 OA
ATOM    117  O7  NAG d1179      11.136 -15.020   4.505  0.00  0.00    -0.274 OA
ATOM    118  H   NAG d1179       9.262 -11.318   2.452  0.00  0.00     0.091 H 
ATOM    119  H   NAG d1179      13.219 -12.718   4.814  0.00  0.00     0.163 HD
ATOM    120  H   NAG d1179       9.113  -8.398   2.206  0.00  0.00     0.078 H 
ATOM    121  H   NAG d1179       9.297  -7.870   3.864  0.00  0.00     0.078 H 
ATOM    122  H   NAG d1179      11.311  -9.913   1.054  0.00  0.00     0.210 HD
ATOM    123  H   NAG d1179       7.751 -10.084   2.983  0.00  0.00     0.209 HD
ATOM    124  H   NAG d1179      12.112 -10.399   5.045  0.00  0.00     0.132 H 
ATOM    125  H   NAG d1179      11.208  -9.217   3.274  0.00  0.00     0.090 H 
ATOM    126  H   NAG d1179      10.328 -12.781   4.348  0.00  0.00     0.084 H 
ATOM    127  H   NAG d1179      14.115 -14.457   5.596  0.00  0.00     0.040 H 
ATOM    128  H   NAG d1179      13.664 -15.889   4.703  0.00  0.00     0.040 H 
ATOM    129  H   NAG d1179      13.027 -15.624   6.308  0.00  0.00     0.040 H 
ATOM    130  H   NAG d1179      12.268 -11.458   2.531  0.00  0.00     0.091 H 
ATOM    131  O5  BDP d1180      12.165 -12.454  -0.015  0.00  0.00    -0.340 OA
ATOM    132  O6A BDP d1180      14.223 -10.999  -2.221  0.00  0.00    -0.646 OA
ATOM    133  O2  BDP d1180      12.418 -15.599   1.776  0.00  0.00    -0.388 OA
ATOM    134  O3  BDP d1180      12.542 -16.381  -1.057  0.00  0.00    -0.390 OA
ATOM    135  C5  BDP d1180      13.183 -12.709  -0.958  0.00  0.00     0.152 C 
ATOM    136  C2  BDP d1180      12.079 -14.788   0.671  0.00  0.00     0.110 C 
ATOM    137  C3  BDP d1180      12.994 -15.164  -0.491  0.00  0.00     0.092 C 
ATOM    138  C6  BDP d1180      13.151 -11.601  -1.999  0.00  0.00     0.206 C 
ATOM    139  C1  BDP d1180      12.206 -13.323   1.090  0.00  0.00     0.160 C 
ATOM    140  C4  BDP d1180      12.978 -14.089  -1.564  0.00  0.00     0.103 C 
ATOM    141  O6B BDP d1180      12.050 -11.347  -2.553  0.00  0.00    -0.646 OA
ATOM    142  O4  BDP d1180      14.026 -14.356  -2.455  0.00  0.00    -0.348 OA
ATOM    143  H   BDP d1180      11.848 -15.376   2.528  0.00  0.00     0.210 HD
ATOM    144  H   BDP d1180      12.548 -17.075  -0.380  0.00  0.00     0.210 HD
ATOM    145  H   BDP d1180      14.150 -12.711  -0.501  0.00  0.00     0.104 H 
ATOM    146  H   BDP d1180      11.069 -14.938   0.349  0.00  0.00     0.094 H 
ATOM    147  H   BDP d1180      13.992 -15.267  -0.120  0.00  0.00     0.091 H 
ATOM    148  H   BDP d1180      13.146 -13.181   1.582  0.00  0.00     0.133 H 
ATOM    149  H   BDP d1180      12.030 -14.098  -2.061  0.00  0.00     0.092 H 
ATOM    150  C3  BDP d1176      14.424 -13.299  17.665  0.00  0.00     0.092 C 
ATOM    151  O4  BDP d1176      13.263 -13.005  15.506  0.00  0.00    -0.348 OA
ATOM    152  O3  BDP d1176      15.333 -12.216  17.505  0.00  0.00    -0.390 OA
ATOM    153  O5  BDP d1176      13.876 -16.098  17.450  0.00  0.00    -0.340 OA
ATOM    154  O2  BDP d1176      15.249 -13.791  19.873  0.00  0.00    -0.388 OA
ATOM    155  C1  BDP d1176      14.228 -15.620  18.732  0.00  0.00     0.160 C 
ATOM    156  O6B BDP d1176      11.728 -16.065  14.979  0.00  0.00    -0.646 OA
ATOM    157  C5  BDP d1176      13.191 -15.164  16.609  0.00  0.00     0.152 C 
ATOM    158  O6A BDP d1176      13.908 -16.445  14.726  0.00  0.00    -0.646 OA
ATOM    159  C6  BDP d1176      12.929 -15.939  15.339  0.00  0.00     0.206 C 
ATOM    160  C4  BDP d1176      14.008 -13.904  16.314  0.00  0.00     0.103 C 
ATOM    161  C2  BDP d1176      15.065 -14.348  18.583  0.00  0.00     0.110 C 
ATOM    162  H   BDP d1176      13.523 -12.937  18.116  0.00  0.00     0.091 H 
ATOM    163  H   BDP d1176      16.152 -12.540  17.097  0.00  0.00     0.210 HD
ATOM    164  H   BDP d1176      15.778 -12.981  19.804  0.00  0.00     0.210 HD
ATOM    165  H   BDP d1176      13.333 -15.426  19.285  0.00  0.00     0.133 H 
ATOM    166  H   BDP d1176      12.302 -14.803  17.082  0.00  0.00     0.104 H 
ATOM    167  H   BDP d1176      14.890 -14.130  15.752  0.00  0.00     0.092 H 
ATOM    168  H   BDP d1176      15.994 -14.621  18.128  0.00  0.00     0.094 H 
ENDROOT
TORSDOF 43
ENDMDL
MODEL 62
REMARK VINA RESULT:      -5.3      5.136     18.266
REMARK  0 active torsions:
REMARK  status: ('A' for Active; 'I' for Inactive)
REMARK       I    between atoms: C3_1  and  O3_90 
REMARK       I    between atoms: O1_4  and  C1_76 
REMARK       I    between atoms: C2_5  and  N2_21 
REMARK       I    between atoms: C8_6  and  C7_66 
REMARK       I    between atoms: C4_7  and  O4_24 
REMARK       I    between atoms: N2_9  and  C2_60 
REMARK       I    between atoms: N2_9  and  C7_69 
REMARK       I    between atoms: O4_12  and  C4_26 
REMARK       I    between atoms: O3_13  and  C3_65 
REMARK       I    between atoms: O3_13  and  C1_61 
REMARK       I    between atoms: C3_14  and  O3_35 
REMARK       I    between atoms: C6_15  and  C5_53 
REMARK       I    between atoms: C6_15  and  O6_46 
REMARK       I    between atoms: O6_16  and  C6_54 
REMARK       I    between atoms: C4_17  and  O4_49 
REMARK       I    between atoms: O4_18  and  C4_28 
REMARK       I    between atoms: O4_18  and  C1_47 
REMARK       I    between atoms: C3_19  and  O3_43 
REMARK       I    between atoms: C1_20  and  O4_91 
REMARK       I    between atoms: N2_21  and  C7_66 
REMARK       I    between atoms: O3_22  and  C3_82 
REMARK       I    between atoms: C7_23  and  C8_62 
REMARK       I    between atoms: C7_23  and  N2_51 
REMARK       I    between atoms: C2_25  and  N2_41 
REMARK       I    between atoms: C1_27  and  O3_90 
REMARK       I    between atoms: O6_29  and  C6_74 
REMARK       I    between atoms: O2_30  and  C2_37 
REMARK       I    between atoms: C2_31  and  O2_42 
REMARK       I    between atoms: O3_32  and  C3_45 
REMARK       I    between atoms: O4_33  and  C4_73 
REMARK       I    between atoms: O4_34  and  C4_84 
REMARK       I    between atoms: O4_34  and  C1_85 
REMARK       I    between atoms: C5_36  and  C6_48 
REMARK       I    between atoms: C6_38  and  C5_40 
REMARK       I    between atoms: C6_38  and  O6_89 
REMARK       I    between atoms: N2_41  and  C7_50 
REMARK       I    between atoms: C5_44  and  C6_74 
REMARK       I    between atoms: C7_50  and  C8_75 
REMARK       I    between atoms: N2_51  and  C2_58 
REMARK       I    between atoms: C1_52  and  O3_87 
REMARK       I    between atoms: C6_54  and  C5_86 
REMARK       I    between atoms: O2_59  and  C2_93 
REMARK       I    between atoms: C8_64  and  C7_69 
REMARK       I    between atoms: C6_70  and  C5_80 
REMARK       I    between atoms: C4_72  and  O4_91 
REMARK       I    between atoms: C5_77  and  C6_79 
REMARK       I    between atoms: C3_83  and  O3_87 
ROOT
ATOM      1  C3  NAG d1177      10.737 -10.545   3.400  0.00  0.00     0.093 C 
ATOM      2  O7  NAG d1177      13.879 -11.424   1.303  0.00  0.00    -0.274 OA
ATOM      3  C4  NAG d1177       9.506  -9.667   3.114  0.00  0.00     0.089 C 
ATOM      4  C2  NAG d1177      11.107 -11.355   2.167  0.00  0.00     0.087 C 
ATOM      5  C6  NAG d1177       7.184  -9.609   2.059  0.00  0.00     0.043 C 
ATOM      6  C5  NAG d1177       8.384 -10.474   2.479  0.00  0.00     0.089 C 
ATOM      7  N2  NAG d1177      12.124 -12.380   2.464  0.00  0.00    -0.349 N 
ATOM      8  O4  NAG d1177       9.038  -9.064   4.305  0.00  0.00    -0.390 OA
ATOM      9  C7  NAG d1177      13.390 -12.338   2.042  0.00  0.00     0.214 C 
ATOM     10  O5  NAG d1177       8.867 -11.151   1.325  0.00  0.00    -0.349 OA
ATOM     11  C8  NAG d1177      14.179 -13.542   2.488  0.00  0.00    -0.003 C 
ATOM     12  C1  NAG d1177       9.885 -12.081   1.607  0.00  0.00     0.154 C 
ATOM     13  O6  NAG d1177       7.555  -8.675   1.061  0.00  0.00    -0.398 OA
ATOM     14  O3  NAG d1177      11.837  -9.729   3.696  0.00  0.00    -0.348 OA
ATOM     15  H   NAG d1177      10.499 -11.192   4.218  0.00  0.00     0.091 H 
ATOM     16  H   NAG d1177       9.809  -8.906   2.426  0.00  0.00     0.091 H 
ATOM     17  H   NAG d1177      11.495 -10.653   1.459  0.00  0.00     0.084 H 
ATOM     18  H   NAG d1177       6.816  -9.082   2.914  0.00  0.00     0.078 H 
ATOM     19  H   NAG d1177       6.426 -10.250   1.660  0.00  0.00     0.078 H 
ATOM     20  H   NAG d1177       8.052 -11.164   3.226  0.00  0.00     0.090 H 
ATOM     21  H   NAG d1177      11.850 -13.150   3.013  0.00  0.00     0.163 HD
ATOM     22  H   NAG d1177       8.763  -9.753   4.930  0.00  0.00     0.210 HD
ATOM     23  H   NAG d1177      15.184 -13.463   2.126  0.00  0.00     0.040 H 
ATOM     24  H   NAG d1177      13.728 -14.429   2.096  0.00  0.00     0.040 H 
ATOM     25  H   NAG d1177      14.187 -13.588   3.557  0.00  0.00     0.040 H 
ATOM     26  H   NAG d1177       9.512 -12.775   2.330  0.00  0.00     0.132 H 
ATOM     27  H   NAG d1177       8.244  -8.086   1.409  0.00  0.00     0.209 HD
ATOM     28  O6A BDP d1178      10.439  -8.677   8.151  0.00  0.00    -0.646 OA
ATOM     29  O4  BDP d1178      14.170 -10.096   8.600  0.00  0.00    -0.348 OA
ATOM     30  O3  BDP d1178      15.516  -8.735   6.493  0.00  0.00    -0.390 OA
ATOM     31  C1  BDP d1178      12.450 -10.064   4.949  0.00  0.00     0.160 C 
ATOM     32  C4  BDP d1178      13.503  -9.475   7.526  0.00  0.00     0.103 C 
ATOM     33  C2  BDP d1178      13.724  -9.251   5.048  0.00  0.00     0.110 C 
ATOM     34  O2  BDP d1178      14.561  -9.515   3.951  0.00  0.00    -0.388 OA
ATOM     35  O6B BDP d1178      11.102 -10.358   9.461  0.00  0.00    -0.646 OA
ATOM     36  O5  BDP d1178      11.619  -9.740   6.048  0.00  0.00    -0.340 OA
ATOM     37  C6  BDP d1178      11.154  -9.691   8.390  0.00  0.00     0.206 C 
ATOM     38  C5  BDP d1178      12.146 -10.123   7.302  0.00  0.00     0.152 C 
ATOM     39  C3  BDP d1178      14.439  -9.636   6.312  0.00  0.00     0.092 C 
ATOM     40  H   BDP d1178      15.995  -8.963   7.306  0.00  0.00     0.210 HD
ATOM     41  H   BDP d1178      12.634 -11.117   4.982  0.00  0.00     0.133 H 
ATOM     42  H   BDP d1178      13.302  -8.440   7.710  0.00  0.00     0.092 H 
ATOM     43  H   BDP d1178      13.479  -8.210   5.053  0.00  0.00     0.094 H 
ATOM     44  H   BDP d1178      14.789 -10.458   3.937  0.00  0.00     0.210 HD
ATOM     45  H   BDP d1178      12.283 -11.183   7.336  0.00  0.00     0.104 H 
ATOM     46  H   BDP d1178      14.768 -10.652   6.237  0.00  0.00     0.091 H 
ATOM     47  O1  NAG d1175       6.758 -20.281  -5.594  0.00  0.00    -0.369 OA
ATOM     48  O3  NAG d1175       7.854 -16.908  -2.537  0.00  0.00    -0.348 OA
ATOM     49  O6  NAG d1175      10.247 -22.545  -2.800  0.00  0.00    -0.398 OA
ATOM     50  C7  NAG d1175       5.727 -16.745  -4.763  0.00  0.00     0.214 C 
ATOM     51  O4  NAG d1175      10.055 -18.670  -1.527  0.00  0.00    -0.390 OA
ATOM     52  N2  NAG d1175       6.683 -17.647  -5.015  0.00  0.00    -0.349 N 
ATOM     53  C6  NAG d1175       9.622 -21.512  -2.088  0.00  0.00     0.043 C 
ATOM     54  C2  NAG d1175       7.259 -18.586  -4.039  0.00  0.00     0.087 C 
ATOM     55  C8  NAG d1175       4.856 -16.931  -3.562  0.00  0.00    -0.003 C 
ATOM     56  O7  NAG d1175       5.547 -15.763  -5.501  0.00  0.00    -0.274 OA
ATOM     57  C3  NAG d1175       8.411 -18.004  -3.235  0.00  0.00     0.093 C 
ATOM     58  C4  NAG d1175       8.937 -19.104  -2.301  0.00  0.00     0.089 C 
ATOM     59  C1  NAG d1175       7.792 -19.802  -4.782  0.00  0.00     0.151 C 
ATOM     60  C5  NAG d1175       9.263 -20.397  -3.059  0.00  0.00     0.089 C 
ATOM     61  O5  NAG d1175       8.180 -20.817  -3.868  0.00  0.00    -0.349 OA
ATOM     62  H   NAG d1175       6.491 -19.589  -6.220  0.00  0.00     0.212 HD
ATOM     63  H   NAG d1175      10.481 -23.262  -2.191  0.00  0.00     0.209 HD
ATOM     64  H   NAG d1175       9.826 -17.852  -1.058  0.00  0.00     0.210 HD
ATOM     65  H   NAG d1175       7.033 -17.686  -5.934  0.00  0.00     0.163 HD
ATOM     66  H   NAG d1175      10.288 -21.137  -1.340  0.00  0.00     0.078 H 
ATOM     67  H   NAG d1175       8.736 -21.881  -1.614  0.00  0.00     0.078 H 
ATOM     68  H   NAG d1175       6.472 -18.828  -3.355  0.00  0.00     0.084 H 
ATOM     69  H   NAG d1175       5.149 -17.821  -3.045  0.00  0.00     0.040 H 
ATOM     70  H   NAG d1175       3.836 -17.017  -3.872  0.00  0.00     0.040 H 
ATOM     71  H   NAG d1175       4.962 -16.089  -2.911  0.00  0.00     0.040 H 
ATOM     72  H   NAG d1175       9.241 -17.672  -3.823  0.00  0.00     0.091 H 
ATOM     73  H   NAG d1175       8.140 -19.319  -1.620  0.00  0.00     0.091 H 
ATOM     74  H   NAG d1175       8.650 -19.531  -5.362  0.00  0.00     0.132 H 
ATOM     75  H   NAG d1175      10.099 -20.186  -3.690  0.00  0.00     0.090 H 
ATOM     76  C2  NAG d1181      12.721 -11.729  20.518  0.00  0.00     0.087 C 
ATOM     77  C8  NAG d1181       9.846 -11.140  20.699  0.00  0.00    -0.003 C 
ATOM     78  O5  NAG d1181      14.470 -13.102  19.488  0.00  0.00    -0.349 OA
ATOM     79  O4  NAG d1181      14.194 -13.970  23.053  0.00  0.00    -0.390 OA
ATOM     80  C3  NAG d1181      13.273 -12.077  21.890  0.00  0.00     0.086 C 
ATOM     81  C1  NAG d1181      13.793 -11.855  19.433  0.00  0.00     0.154 C 
ATOM     82  N2  NAG d1181      12.163 -10.387  20.507  0.00  0.00    -0.349 N 
ATOM     83  C4  NAG d1181      13.812 -13.499  21.779  0.00  0.00     0.089 C 
ATOM     84  O6  NAG d1181      15.321 -15.616  19.699  0.00  0.00    -0.398 OA
ATOM     85  O3  NAG d1181      12.288 -11.951  22.903  0.00  0.00    -0.391 OA
ATOM     86  C5  NAG d1181      14.976 -13.455  20.773  0.00  0.00     0.089 C 
ATOM     87  O7  NAG d1181      10.500  -9.116  19.671  0.00  0.00    -0.274 OA
ATOM     88  C7  NAG d1181      10.870 -10.136  20.249  0.00  0.00     0.214 C 
ATOM     89  C6  NAG d1181      15.805 -14.745  20.701  0.00  0.00     0.043 C 
ATOM     90  H   NAG d1181      11.942 -12.430  20.304  0.00  0.00     0.084 H 
ATOM     91  H   NAG d1181      10.338 -11.960  21.181  0.00  0.00     0.040 H 
ATOM     92  H   NAG d1181       9.301 -11.499  19.851  0.00  0.00     0.040 H 
ATOM     93  H   NAG d1181       9.170 -10.676  21.387  0.00  0.00     0.040 H 
ATOM     94  H   NAG d1181      13.422 -13.975  23.640  0.00  0.00     0.210 HD
ATOM     95  H   NAG d1181      14.050 -11.401  22.179  0.00  0.00     0.090 H 
ATOM     96  H   NAG d1181      14.568 -11.127  19.548  0.00  0.00     0.132 H 
ATOM     97  H   NAG d1181      12.760  -9.628  20.697  0.00  0.00     0.163 HD
ATOM     98  H   NAG d1181      13.073 -14.187  21.425  0.00  0.00     0.091 H 
ATOM     99  H   NAG d1181      15.865 -16.419  19.678  0.00  0.00     0.209 HD
ATOM    100  H   NAG d1181      11.545 -12.542  22.706  0.00  0.00     0.210 HD
ATOM    101  H   NAG d1181      15.660 -12.711  21.126  0.00  0.00     0.090 H 
ATOM    102  H   NAG d1181      16.822 -14.493  20.482  0.00  0.00     0.078 H 
ATOM    103  H   NAG d1181      15.731 -15.245  21.644  0.00  0.00     0.078 H 
ATOM    104  C4  NAG d1179      15.746  -8.885  12.260  0.00  0.00     0.089 C 
ATOM    105  N2  NAG d1179      13.303 -11.431  10.804  0.00  0.00    -0.349 N 
ATOM    106  C6  NAG d1179      16.594  -6.882  10.964  0.00  0.00     0.043 C 
ATOM    107  O4  NAG d1179      15.777  -8.200  13.508  0.00  0.00    -0.390 OA
ATOM    108  O6  NAG d1179      17.756  -7.525  10.479  0.00  0.00    -0.398 OA
ATOM    109  C1  NAG d1179      14.234  -9.405   9.850  0.00  0.00     0.154 C 
ATOM    110  C5  NAG d1179      15.473  -7.893  11.132  0.00  0.00     0.089 C 
ATOM    111  O5  NAG d1179      15.358  -8.580   9.899  0.00  0.00    -0.349 OA
ATOM    112  C2  NAG d1179      14.427 -10.514  10.880  0.00  0.00     0.087 C 
ATOM    113  C8  NAG d1179      12.239 -13.554  10.547  0.00  0.00    -0.003 C 
ATOM    114  C7  NAG d1179      13.474 -12.752  10.785  0.00  0.00     0.214 C 
ATOM    115  C3  NAG d1179      14.651  -9.943  12.290  0.00  0.00     0.093 C 
ATOM    116  O3  NAG d1179      15.047 -10.981  13.175  0.00  0.00    -0.348 OA
ATOM    117  O7  NAG d1179      14.555 -13.303  10.962  0.00  0.00    -0.274 OA
ATOM    118  H   NAG d1179      16.692  -9.356  12.090  0.00  0.00     0.091 H 
ATOM    119  H   NAG d1179      12.390 -11.066  10.766  0.00  0.00     0.163 HD
ATOM    120  H   NAG d1179      16.808  -6.430  11.909  0.00  0.00     0.078 H 
ATOM    121  H   NAG d1179      16.289  -6.133  10.264  0.00  0.00     0.078 H 
ATOM    122  H   NAG d1179      14.920  -7.773  13.664  0.00  0.00     0.210 HD
ATOM    123  H   NAG d1179      18.036  -8.205  11.111  0.00  0.00     0.209 HD
ATOM    124  H   NAG d1179      13.367  -8.800  10.012  0.00  0.00     0.132 H 
ATOM    125  H   NAG d1179      14.568  -7.387  11.395  0.00  0.00     0.090 H 
ATOM    126  H   NAG d1179      15.317 -11.064  10.655  0.00  0.00     0.084 H 
ATOM    127  H   NAG d1179      11.405 -12.896  10.416  0.00  0.00     0.040 H 
ATOM    128  H   NAG d1179      12.061 -14.192  11.387  0.00  0.00     0.040 H 
ATOM    129  H   NAG d1179      12.365 -14.149   9.666  0.00  0.00     0.040 H 
ATOM    130  H   NAG d1179      13.735  -9.506  12.626  0.00  0.00     0.091 H 
ATOM    131  O5  BDP d1180      14.361 -10.144  15.211  0.00  0.00    -0.340 OA
ATOM    132  O6A BDP d1180      12.736  -8.402  17.565  0.00  0.00    -0.646 OA
ATOM    133  O2  BDP d1180      13.848 -13.504  13.943  0.00  0.00    -0.388 OA
ATOM    134  O3  BDP d1180      14.303 -13.893  16.824  0.00  0.00    -0.390 OA
ATOM    135  C5  BDP d1180      13.555 -10.269  16.362  0.00  0.00     0.152 C 
ATOM    136  C2  BDP d1180      14.375 -12.550  14.840  0.00  0.00     0.110 C 
ATOM    137  C3  BDP d1180      13.715 -12.765  16.200  0.00  0.00     0.092 C 
ATOM    138  C6  BDP d1180      13.760  -9.029  17.219  0.00  0.00     0.206 C 
ATOM    139  C1  BDP d1180      14.128 -11.156  14.263  0.00  0.00     0.160 C 
ATOM    140  C4  BDP d1180      13.912 -11.553  17.095  0.00  0.00     0.103 C 
ATOM    141  O6B BDP d1180      14.941  -8.701  17.506  0.00  0.00    -0.646 OA
ATOM    142  O4  BDP d1180      13.066 -11.696  18.203  0.00  0.00    -0.348 OA
ATOM    143  H   BDP d1180      14.254 -13.386  13.070  0.00  0.00     0.210 HD
ATOM    144  H   BDP d1180      14.183 -14.673  16.260  0.00  0.00     0.210 HD
ATOM    145  H   BDP d1180      12.518 -10.334  16.110  0.00  0.00     0.104 H 
ATOM    146  H   BDP d1180      15.432 -12.655  14.974  0.00  0.00     0.094 H 
ATOM    147  H   BDP d1180      12.667 -12.917  16.051  0.00  0.00     0.091 H 
ATOM    148  H   BDP d1180      13.107 -11.083  13.952  0.00  0.00     0.133 H 
ATOM    149  H   BDP d1180      14.938 -11.494  17.392  0.00  0.00     0.092 H 
ATOM    150  C3  BDP d1176       8.708 -13.397  -1.398  0.00  0.00     0.092 C 
ATOM    151  O4  BDP d1176      10.261 -12.810   0.430  0.00  0.00    -0.348 OA
ATOM    152  O3  BDP d1176       7.819 -12.303  -1.208  0.00  0.00    -0.390 OA
ATOM    153  O5  BDP d1176       9.363 -16.140  -0.923  0.00  0.00    -0.340 OA
ATOM    154  O2  BDP d1176       7.481 -14.186  -3.313  0.00  0.00    -0.388 OA
ATOM    155  C1  BDP d1176       8.754 -15.842  -2.162  0.00  0.00     0.160 C 
ATOM    156  O6B BDP d1176      11.952 -15.770   1.048  0.00  0.00    -0.646 OA
ATOM    157  C5  BDP d1176      10.174 -15.100  -0.367  0.00  0.00     0.152 C 
ATOM    158  O6A BDP d1176       9.876 -16.112   1.775  0.00  0.00    -0.646 OA
ATOM    159  C6  BDP d1176      10.701 -15.694   0.919  0.00  0.00     0.206 C 
ATOM    160  C4  BDP d1176       9.398 -13.811  -0.087  0.00  0.00     0.103 C 
ATOM    161  C2  BDP d1176       7.929 -14.561  -2.022  0.00  0.00     0.110 C 
ATOM    162  H   BDP d1176       9.493 -13.099  -2.062  0.00  0.00     0.091 H 
ATOM    163  H   BDP d1176       7.105 -12.567  -0.606  0.00  0.00     0.210 HD
ATOM    164  H   BDP d1176       6.954 -13.374  -3.250  0.00  0.00     0.210 HD
ATOM    165  H   BDP d1176       9.519 -15.725  -2.902  0.00  0.00     0.133 H 
ATOM    166  H   BDP d1176      10.943 -14.807  -1.050  0.00  0.00     0.104 H 
ATOM    167  H   BDP d1176       8.649 -13.959   0.663  0.00  0.00     0.092 H 
ATOM    168  H   BDP d1176       7.114 -14.770  -1.360  0.00  0.00     0.094 H 
ENDROOT
TORSDOF 43
ENDMDL
MODEL 63
REMARK VINA RESULT:      -5.3      6.471      9.104
REMARK  0 active torsions:
REMARK  status: ('A' for Active; 'I' for Inactive)
REMARK       I    between atoms: C3_1  and  O3_90 
REMARK       I    between atoms: O1_4  and  C1_76 
REMARK       I    between atoms: C2_5  and  N2_21 
REMARK       I    between atoms: C8_6  and  C7_66 
REMARK       I    between atoms: C4_7  and  O4_24 
REMARK       I    between atoms: N2_9  and  C2_60 
REMARK       I    between atoms: N2_9  and  C7_69 
REMARK       I    between atoms: O4_12  and  C4_26 
REMARK       I    between atoms: O3_13  and  C3_65 
REMARK       I    between atoms: O3_13  and  C1_61 
REMARK       I    between atoms: C3_14  and  O3_35 
REMARK       I    between atoms: C6_15  and  C5_53 
REMARK       I    between atoms: C6_15  and  O6_46 
REMARK       I    between atoms: O6_16  and  C6_54 
REMARK       I    between atoms: C4_17  and  O4_49 
REMARK       I    between atoms: O4_18  and  C4_28 
REMARK       I    between atoms: O4_18  and  C1_47 
REMARK       I    between atoms: C3_19  and  O3_43 
REMARK       I    between atoms: C1_20  and  O4_91 
REMARK       I    between atoms: N2_21  and  C7_66 
REMARK       I    between atoms: O3_22  and  C3_82 
REMARK       I    between atoms: C7_23  and  C8_62 
REMARK       I    between atoms: C7_23  and  N2_51 
REMARK       I    between atoms: C2_25  and  N2_41 
REMARK       I    between atoms: C1_27  and  O3_90 
REMARK       I    between atoms: O6_29  and  C6_74 
REMARK       I    between atoms: O2_30  and  C2_37 
REMARK       I    between atoms: C2_31  and  O2_42 
REMARK       I    between atoms: O3_32  and  C3_45 
REMARK       I    between atoms: O4_33  and  C4_73 
REMARK       I    between atoms: O4_34  and  C4_84 
REMARK       I    between atoms: O4_34  and  C1_85 
REMARK       I    between atoms: C5_36  and  C6_48 
REMARK       I    between atoms: C6_38  and  C5_40 
REMARK       I    between atoms: C6_38  and  O6_89 
REMARK       I    between atoms: N2_41  and  C7_50 
REMARK       I    between atoms: C5_44  and  C6_74 
REMARK       I    between atoms: C7_50  and  C8_75 
REMARK       I    between atoms: N2_51  and  C2_58 
REMARK       I    between atoms: C1_52  and  O3_87 
REMARK       I    between atoms: C6_54  and  C5_86 
REMARK       I    between atoms: O2_59  and  C2_93 
REMARK       I    between atoms: C8_64  and  C7_69 
REMARK       I    between atoms: C6_70  and  C5_80 
REMARK       I    between atoms: C4_72  and  O4_91 
REMARK       I    between atoms: C5_77  and  C6_79 
REMARK       I    between atoms: C3_83  and  O3_87 
ROOT
ATOM      1  C3  NAG d1177      14.063 -18.537   7.180  0.00  0.00     0.093 C 
ATOM      2  O7  NAG d1177      17.646 -17.078   6.921  0.00  0.00    -0.274 OA
ATOM      3  C4  NAG d1177      13.465 -19.693   8.000  0.00  0.00     0.089 C 
ATOM      4  C2  NAG d1177      15.043 -17.740   8.025  0.00  0.00     0.087 C 
ATOM      5  C6  NAG d1177      12.465 -20.355  10.253  0.00  0.00     0.043 C 
ATOM      6  C5  NAG d1177      12.952 -19.211   9.348  0.00  0.00     0.089 C 
ATOM      7  N2  NAG d1177      15.456 -16.489   7.361  0.00  0.00    -0.349 N 
ATOM      8  O4  NAG d1177      12.412 -20.315   7.290  0.00  0.00    -0.390 OA
ATOM      9  C7  NAG d1177      16.673 -16.260   6.863  0.00  0.00     0.214 C 
ATOM     10  O5  NAG d1177      13.981 -18.511  10.037  0.00  0.00    -0.349 OA
ATOM     11  C8  NAG d1177      16.795 -14.881   6.269  0.00  0.00    -0.003 C 
ATOM     12  C1  NAG d1177      14.418 -17.353   9.364  0.00  0.00     0.154 C 
ATOM     13  O6  NAG d1177      13.527 -21.235  10.574  0.00  0.00    -0.398 OA
ATOM     14  O3  NAG d1177      14.786 -19.055   6.097  0.00  0.00    -0.348 OA
ATOM     15  H   NAG d1177      13.257 -17.914   6.851  0.00  0.00     0.091 H 
ATOM     16  H   NAG d1177      14.248 -20.403   8.169  0.00  0.00     0.091 H 
ATOM     17  H   NAG d1177      15.894 -18.373   8.167  0.00  0.00     0.084 H 
ATOM     18  H   NAG d1177      11.698 -20.901   9.743  0.00  0.00     0.078 H 
ATOM     19  H   NAG d1177      12.085 -19.934  11.159  0.00  0.00     0.078 H 
ATOM     20  H   NAG d1177      12.119 -18.573   9.140  0.00  0.00     0.090 H 
ATOM     21  H   NAG d1177      14.785 -15.772   7.280  0.00  0.00     0.163 HD
ATOM     22  H   NAG d1177      11.702 -19.673   7.136  0.00  0.00     0.210 HD
ATOM     23  H   NAG d1177      17.784 -14.745   5.884  0.00  0.00     0.040 H 
ATOM     24  H   NAG d1177      16.603 -14.149   7.025  0.00  0.00     0.040 H 
ATOM     25  H   NAG d1177      16.085 -14.770   5.476  0.00  0.00     0.040 H 
ATOM     26  H   NAG d1177      13.569 -16.723   9.201  0.00  0.00     0.132 H 
ATOM     27  H   NAG d1177      13.882 -21.625   9.759  0.00  0.00     0.209 HD
ATOM     28  O6A BDP d1178      10.943 -20.131   3.454  0.00  0.00    -0.646 OA
ATOM     29  O4  BDP d1178      13.199 -17.856   1.030  0.00  0.00    -0.348 OA
ATOM     30  O3  BDP d1178      15.771 -18.992   1.474  0.00  0.00    -0.390 OA
ATOM     31  C1  BDP d1178      14.360 -18.510   4.839  0.00  0.00     0.160 C 
ATOM     32  C4  BDP d1178      13.504 -18.680   2.131  0.00  0.00     0.103 C 
ATOM     33  C2  BDP d1178      15.342 -18.996   3.794  0.00  0.00     0.110 C 
ATOM     34  O2  BDP d1178      16.650 -18.612   4.131  0.00  0.00    -0.388 OA
ATOM     35  O6B BDP d1178      10.334 -18.265   2.391  0.00  0.00    -0.646 OA
ATOM     36  O5  BDP d1178      13.063 -18.952   4.484  0.00  0.00    -0.340 OA
ATOM     37  C6  BDP d1178      11.173 -18.966   3.023  0.00  0.00     0.206 C 
ATOM     38  C5  BDP d1178      12.566 -18.381   3.290  0.00  0.00     0.152 C 
ATOM     39  C3  BDP d1178      14.977 -18.379   2.473  0.00  0.00     0.092 C 
ATOM     40  H   BDP d1178      15.553 -18.610   0.608  0.00  0.00     0.210 HD
ATOM     41  H   BDP d1178      14.331 -17.444   4.908  0.00  0.00     0.133 H 
ATOM     42  H   BDP d1178      13.374 -19.720   1.915  0.00  0.00     0.092 H 
ATOM     43  H   BDP d1178      15.299 -20.064   3.738  0.00  0.00     0.094 H 
ATOM     44  H   BDP d1178      16.699 -17.644   4.185  0.00  0.00     0.210 HD
ATOM     45  H   BDP d1178      12.501 -17.318   3.389  0.00  0.00     0.104 H 
ATOM     46  H   BDP d1178      15.131 -17.321   2.523  0.00  0.00     0.091 H 
ATOM     47  O1  NAG d1175      15.786 -10.561  18.357  0.00  0.00    -0.369 OA
ATOM     48  O3  NAG d1175      15.020 -13.394  14.708  0.00  0.00    -0.348 OA
ATOM     49  O6  NAG d1175      16.193  -7.380  14.506  0.00  0.00    -0.398 OA
ATOM     50  C7  NAG d1175      14.954 -14.183  17.688  0.00  0.00     0.214 C 
ATOM     51  O4  NAG d1175      15.731 -11.109  12.906  0.00  0.00    -0.390 OA
ATOM     52  N2  NAG d1175      15.703 -13.099  17.447  0.00  0.00    -0.349 N 
ATOM     53  C6  NAG d1175      15.400  -8.486  14.167  0.00  0.00     0.043 C 
ATOM     54  C2  NAG d1175      15.351 -11.995  16.541  0.00  0.00     0.087 C 
ATOM     55  C8  NAG d1175      13.492 -14.132  17.383  0.00  0.00    -0.003 C 
ATOM     56  O7  NAG d1175      15.444 -15.222  18.157  0.00  0.00    -0.274 OA
ATOM     57  C3  NAG d1175      15.745 -12.242  15.093  0.00  0.00     0.093 C 
ATOM     58  C4  NAG d1175      15.363 -10.996  14.282  0.00  0.00     0.089 C 
ATOM     59  C1  NAG d1175      16.073 -10.735  16.999  0.00  0.00     0.151 C 
ATOM     60  C5  NAG d1175      15.930  -9.711  14.897  0.00  0.00     0.089 C 
ATOM     61  O5  NAG d1175      15.614  -9.604  16.272  0.00  0.00    -0.349 OA
ATOM     62  H   NAG d1175      16.099 -11.333  18.855  0.00  0.00     0.212 HD
ATOM     63  H   NAG d1175      15.863  -6.593  14.047  0.00  0.00     0.209 HD
ATOM     64  H   NAG d1175      15.361 -11.928  12.539  0.00  0.00     0.210 HD
ATOM     65  H   NAG d1175      16.565 -13.036  17.919  0.00  0.00     0.163 HD
ATOM     66  H   NAG d1175      15.445  -8.649  13.111  0.00  0.00     0.078 H 
ATOM     67  H   NAG d1175      14.384  -8.306  14.450  0.00  0.00     0.078 H 
ATOM     68  H   NAG d1175      14.286 -11.902  16.579  0.00  0.00     0.084 H 
ATOM     69  H   NAG d1175      13.243 -13.169  16.989  0.00  0.00     0.040 H 
ATOM     70  H   NAG d1175      12.934 -14.305  18.280  0.00  0.00     0.040 H 
ATOM     71  H   NAG d1175      13.251 -14.886  16.662  0.00  0.00     0.040 H 
ATOM     72  H   NAG d1175      16.791 -12.407  14.937  0.00  0.00     0.091 H 
ATOM     73  H   NAG d1175      14.296 -10.931  14.323  0.00  0.00     0.091 H 
ATOM     74  H   NAG d1175      17.125 -10.833  16.832  0.00  0.00     0.132 H 
ATOM     75  H   NAG d1175      16.994  -9.759  14.794  0.00  0.00     0.090 H 
ATOM     76  C2  NAG d1181       4.003 -15.887  -6.609  0.00  0.00     0.087 C 
ATOM     77  C8  NAG d1181       1.847 -17.118  -5.034  0.00  0.00    -0.003 C 
ATOM     78  O5  NAG d1181       5.787 -14.209  -6.680  0.00  0.00    -0.349 OA
ATOM     79  O4  NAG d1181       3.101 -13.215  -8.989  0.00  0.00    -0.390 OA
ATOM     80  C3  NAG d1181       3.451 -15.337  -7.915  0.00  0.00     0.086 C 
ATOM     81  C1  NAG d1181       5.494 -15.581  -6.457  0.00  0.00     0.154 C 
ATOM     82  N2  NAG d1181       3.781 -17.320  -6.514  0.00  0.00    -0.349 N 
ATOM     83  C4  NAG d1181       3.729 -13.839  -7.891  0.00  0.00     0.089 C 
ATOM     84  O6  NAG d1181       5.934 -11.558  -6.877  0.00  0.00    -0.398 OA
ATOM     85  O3  NAG d1181       2.072 -15.628  -8.069  0.00  0.00    -0.391 OA
ATOM     86  C5  NAG d1181       5.259 -13.671  -7.890  0.00  0.00     0.089 C 
ATOM     87  O7  NAG d1181       3.284 -18.992  -5.086  0.00  0.00    -0.274 OA
ATOM     88  C7  NAG d1181       3.035 -17.881  -5.550  0.00  0.00     0.214 C 
ATOM     89  C6  NAG d1181       5.743 -12.230  -8.106  0.00  0.00     0.043 C 
ATOM     90  H   NAG d1181       3.477 -15.401  -5.815  0.00  0.00     0.084 H 
ATOM     91  H   NAG d1181       1.778 -16.178  -5.542  0.00  0.00     0.040 H 
ATOM     92  H   NAG d1181       1.960 -16.948  -3.984  0.00  0.00     0.040 H 
ATOM     93  H   NAG d1181       0.956 -17.684  -5.210  0.00  0.00     0.040 H 
ATOM     94  H   NAG d1181       2.143 -13.355  -8.936  0.00  0.00     0.210 HD
ATOM     95  H   NAG d1181       3.923 -15.795  -8.759  0.00  0.00     0.090 H 
ATOM     96  H   NAG d1181       6.087 -16.100  -7.180  0.00  0.00     0.132 H 
ATOM     97  H   NAG d1181       4.197 -17.906  -7.187  0.00  0.00     0.163 HD
ATOM     98  H   NAG d1181       3.327 -13.364  -7.020  0.00  0.00     0.091 H 
ATOM     99  H   NAG d1181       6.238 -10.653  -7.048  0.00  0.00     0.209 HD
ATOM    100  H   NAG d1181       1.576 -15.239  -7.332  0.00  0.00     0.210 HD
ATOM    101  H   NAG d1181       5.629 -14.212  -8.736  0.00  0.00     0.090 H 
ATOM    102  H   NAG d1181       6.670 -12.250  -8.639  0.00  0.00     0.078 H 
ATOM    103  H   NAG d1181       4.995 -11.705  -8.663  0.00  0.00     0.078 H 
ATOM    104  C4  NAG d1179      12.093 -18.442  -2.943  0.00  0.00     0.089 C 
ATOM    105  N2  NAG d1179      10.918 -16.630   0.203  0.00  0.00    -0.349 N 
ATOM    106  C6  NAG d1179      13.848 -20.267  -2.915  0.00  0.00     0.043 C 
ATOM    107  O4  NAG d1179      11.380 -19.025  -4.029  0.00  0.00    -0.390 OA
ATOM    108  O6  NAG d1179      14.938 -19.402  -3.163  0.00  0.00    -0.398 OA
ATOM    109  C1  NAG d1179      12.509 -18.436  -0.081  0.00  0.00     0.154 C 
ATOM    110  C5  NAG d1179      12.774 -19.537  -2.126  0.00  0.00     0.089 C 
ATOM    111  O5  NAG d1179      13.416 -18.972  -0.996  0.00  0.00    -0.349 OA
ATOM    112  C2  NAG d1179      11.818 -17.253  -0.750  0.00  0.00     0.087 C 
ATOM    113  C8  NAG d1179      10.018 -14.833   1.496  0.00  0.00    -0.003 C 
ATOM    114  C7  NAG d1179      10.877 -15.309   0.373  0.00  0.00     0.214 C 
ATOM    115  C3  NAG d1179      11.124 -17.669  -2.057  0.00  0.00     0.093 C 
ATOM    116  O3  NAG d1179      10.688 -16.516  -2.762  0.00  0.00    -0.348 OA
ATOM    117  O7  NAG d1179      11.480 -14.511  -0.337  0.00  0.00    -0.274 OA
ATOM    118  H   NAG d1179      12.838 -17.775  -3.324  0.00  0.00     0.091 H 
ATOM    119  H   NAG d1179      10.320 -17.199   0.740  0.00  0.00     0.163 HD
ATOM    120  H   NAG d1179      13.440 -20.599  -3.846  0.00  0.00     0.078 H 
ATOM    121  H   NAG d1179      14.189 -21.108  -2.348  0.00  0.00     0.078 H 
ATOM    122  H   NAG d1179      10.704 -19.629  -3.686  0.00  0.00     0.210 HD
ATOM    123  H   NAG d1179      14.633 -18.638  -3.677  0.00  0.00     0.209 HD
ATOM    124  H   NAG d1179      11.846 -19.216   0.230  0.00  0.00     0.132 H 
ATOM    125  H   NAG d1179      12.003 -20.224  -1.847  0.00  0.00     0.090 H 
ATOM    126  H   NAG d1179      12.547 -16.525  -1.039  0.00  0.00     0.084 H 
ATOM    127  H   NAG d1179       9.580 -15.674   1.992  0.00  0.00     0.040 H 
ATOM    128  H   NAG d1179       9.243 -14.204   1.110  0.00  0.00     0.040 H 
ATOM    129  H   NAG d1179      10.614 -14.280   2.191  0.00  0.00     0.040 H 
ATOM    130  H   NAG d1179      10.286 -18.287  -1.813  0.00  0.00     0.091 H 
ATOM    131  O5  BDP d1180       8.945 -17.364  -4.011  0.00  0.00    -0.340 OA
ATOM    132  O6A BDP d1180       6.423 -19.291  -5.081  0.00  0.00    -0.646 OA
ATOM    133  O2  BDP d1180       8.954 -14.300  -2.070  0.00  0.00    -0.388 OA
ATOM    134  O3  BDP d1180       7.325 -13.642  -4.430  0.00  0.00    -0.390 OA
ATOM    135  C5  BDP d1180       7.572 -17.362  -4.333  0.00  0.00     0.152 C 
ATOM    136  C2  BDP d1180       8.876 -15.049  -3.264  0.00  0.00     0.110 C 
ATOM    137  C3  BDP d1180       7.460 -14.912  -3.816  0.00  0.00     0.092 C 
ATOM    138  C6  BDP d1180       7.322 -18.466  -5.349  0.00  0.00     0.206 C 
ATOM    139  C1  BDP d1180       9.267 -16.494  -2.955  0.00  0.00     0.160 C 
ATOM    140  C4  BDP d1180       7.175 -15.988  -4.850  0.00  0.00     0.103 C 
ATOM    141  O6B BDP d1180       8.045 -18.490  -6.379  0.00  0.00    -0.646 OA
ATOM    142  O4  BDP d1180       5.797 -15.979  -5.110  0.00  0.00    -0.348 OA
ATOM    143  H   BDP d1180       9.848 -14.373  -1.701  0.00  0.00     0.210 HD
ATOM    144  H   BDP d1180       7.506 -12.947  -3.777  0.00  0.00     0.210 HD
ATOM    145  H   BDP d1180       6.967 -17.556  -3.472  0.00  0.00     0.104 H 
ATOM    146  H   BDP d1180       9.551 -14.693  -4.015  0.00  0.00     0.094 H 
ATOM    147  H   BDP d1180       6.767 -15.018  -3.007  0.00  0.00     0.091 H 
ATOM    148  H   BDP d1180       8.731 -16.822  -2.088  0.00  0.00     0.133 H 
ATOM    149  H   BDP d1180       7.740 -15.787  -5.736  0.00  0.00     0.092 H 
ATOM    150  C3  BDP d1176      15.368 -16.533  12.616  0.00  0.00     0.092 C 
ATOM    151  O4  BDP d1176      15.377 -16.629  10.149  0.00  0.00    -0.348 OA
ATOM    152  O3  BDP d1176      14.735 -17.791  12.821  0.00  0.00    -0.390 OA
ATOM    153  O5  BDP d1176      15.164 -13.689  12.392  0.00  0.00    -0.340 OA
ATOM    154  O2  BDP d1176      15.629 -16.170  14.982  0.00  0.00    -0.388 OA
ATOM    155  C1  BDP d1176      15.578 -14.196  13.643  0.00  0.00     0.160 C 
ATOM    156  O6B BDP d1176      15.810 -13.325   9.202  0.00  0.00    -0.646 OA
ATOM    157  C5  BDP d1176      15.531 -14.475  11.254  0.00  0.00     0.152 C 
ATOM    158  O6A BDP d1176      13.754 -13.433  10.049  0.00  0.00    -0.646 OA
ATOM    159  C6  BDP d1176      14.985 -13.698  10.079  0.00  0.00     0.206 C 
ATOM    160  C4  BDP d1176      14.949 -15.891  11.283  0.00  0.00     0.103 C 
ATOM    161  C2  BDP d1176      15.051 -15.622  13.809  0.00  0.00     0.110 C 
ATOM    162  H   BDP d1176      16.426 -16.679  12.553  0.00  0.00     0.091 H 
ATOM    163  H   BDP d1176      13.775 -17.664  12.879  0.00  0.00     0.210 HD
ATOM    164  H   BDP d1176      15.309 -17.076  15.107  0.00  0.00     0.210 HD
ATOM    165  H   BDP d1176      16.647 -14.176  13.686  0.00  0.00     0.133 H 
ATOM    166  H   BDP d1176      16.590 -14.622  11.216  0.00  0.00     0.104 H 
ATOM    167  H   BDP d1176      13.880 -15.876  11.228  0.00  0.00     0.092 H 
ATOM    168  H   BDP d1176      13.984 -15.570  13.875  0.00  0.00     0.094 H 
ENDROOT
TORSDOF 43
ENDMDL
MODEL 64
REMARK VINA RESULT:      -5.2      4.179     18.708
REMARK  0 active torsions:
REMARK  status: ('A' for Active; 'I' for Inactive)
REMARK       I    between atoms: C3_1  and  O3_90 
REMARK       I    between atoms: O1_4  and  C1_76 
REMARK       I    between atoms: C2_5  and  N2_21 
REMARK       I    between atoms: C8_6  and  C7_66 
REMARK       I    between atoms: C4_7  and  O4_24 
REMARK       I    between atoms: N2_9  and  C2_60 
REMARK       I    between atoms: N2_9  and  C7_69 
REMARK       I    between atoms: O4_12  and  C4_26 
REMARK       I    between atoms: O3_13  and  C3_65 
REMARK       I    between atoms: O3_13  and  C1_61 
REMARK       I    between atoms: C3_14  and  O3_35 
REMARK       I    between atoms: C6_15  and  C5_53 
REMARK       I    between atoms: C6_15  and  O6_46 
REMARK       I    between atoms: O6_16  and  C6_54 
REMARK       I    between atoms: C4_17  and  O4_49 
REMARK       I    between atoms: O4_18  and  C4_28 
REMARK       I    between atoms: O4_18  and  C1_47 
REMARK       I    between atoms: C3_19  and  O3_43 
REMARK       I    between atoms: C1_20  and  O4_91 
REMARK       I    between atoms: N2_21  and  C7_66 
REMARK       I    between atoms: O3_22  and  C3_82 
REMARK       I    between atoms: C7_23  and  C8_62 
REMARK       I    between atoms: C7_23  and  N2_51 
REMARK       I    between atoms: C2_25  and  N2_41 
REMARK       I    between atoms: C1_27  and  O3_90 
REMARK       I    between atoms: O6_29  and  C6_74 
REMARK       I    between atoms: O2_30  and  C2_37 
REMARK       I    between atoms: C2_31  and  O2_42 
REMARK       I    between atoms: O3_32  and  C3_45 
REMARK       I    between atoms: O4_33  and  C4_73 
REMARK       I    between atoms: O4_34  and  C4_84 
REMARK       I    between atoms: O4_34  and  C1_85 
REMARK       I    between atoms: C5_36  and  C6_48 
REMARK       I    between atoms: C6_38  and  C5_40 
REMARK       I    between atoms: C6_38  and  O6_89 
REMARK       I    between atoms: N2_41  and  C7_50 
REMARK       I    between atoms: C5_44  and  C6_74 
REMARK       I    between atoms: C7_50  and  C8_75 
REMARK       I    between atoms: N2_51  and  C2_58 
REMARK       I    between atoms: C1_52  and  O3_87 
REMARK       I    between atoms: C6_54  and  C5_86 
REMARK       I    between atoms: O2_59  and  C2_93 
REMARK       I    between atoms: C8_64  and  C7_69 
REMARK       I    between atoms: C6_70  and  C5_80 
REMARK       I    between atoms: C4_72  and  O4_91 
REMARK       I    between atoms: C5_77  and  C6_79 
REMARK       I    between atoms: C3_83  and  O3_87 
ROOT
ATOM      1  C3  NAG d1177      15.680 -12.592   4.200  0.00  0.00     0.093 C 
ATOM      2  O7  NAG d1177      16.877 -16.279   4.130  0.00  0.00    -0.274 OA
ATOM      3  C4  NAG d1177      16.210 -11.310   3.533  0.00  0.00     0.089 C 
ATOM      4  C2  NAG d1177      15.746 -13.760   3.231  0.00  0.00     0.087 C 
ATOM      5  C6  NAG d1177      16.168  -9.892   1.412  0.00  0.00     0.043 C 
ATOM      6  C5  NAG d1177      15.571 -11.089   2.171  0.00  0.00     0.089 C 
ATOM      7  N2  NAG d1177      15.031 -14.944   3.742  0.00  0.00    -0.349 N 
ATOM      8  O4  NAG d1177      15.970 -10.185   4.355  0.00  0.00    -0.390 OA
ATOM      9  C7  NAG d1177      15.622 -16.069   4.153  0.00  0.00     0.214 C 
ATOM     10  O5  NAG d1177      15.736 -12.249   1.364  0.00  0.00    -0.349 OA
ATOM     11  C8  NAG d1177      14.625 -17.107   4.598  0.00  0.00    -0.003 C 
ATOM     12  C1  NAG d1177      15.107 -13.393   1.892  0.00  0.00     0.154 C 
ATOM     13  O6  NAG d1177      17.540 -10.102   1.129  0.00  0.00    -0.398 OA
ATOM     14  O3  NAG d1177      16.493 -12.922   5.293  0.00  0.00    -0.348 OA
ATOM     15  H   NAG d1177      14.670 -12.411   4.505  0.00  0.00     0.091 H 
ATOM     16  H   NAG d1177      17.265 -11.434   3.398  0.00  0.00     0.091 H 
ATOM     17  H   NAG d1177      16.785 -13.986   3.112  0.00  0.00     0.084 H 
ATOM     18  H   NAG d1177      16.064  -9.012   2.012  0.00  0.00     0.078 H 
ATOM     19  H   NAG d1177      15.642  -9.778   0.488  0.00  0.00     0.078 H 
ATOM     20  H   NAG d1177      14.538 -10.886   2.355  0.00  0.00     0.090 H 
ATOM     21  H   NAG d1177      14.048 -14.902   3.784  0.00  0.00     0.163 HD
ATOM     22  H   NAG d1177      15.015 -10.072   4.478  0.00  0.00     0.210 HD
ATOM     23  H   NAG d1177      15.145 -17.986   4.916  0.00  0.00     0.040 H 
ATOM     24  H   NAG d1177      13.977 -17.352   3.782  0.00  0.00     0.040 H 
ATOM     25  H   NAG d1177      14.045 -16.721   5.410  0.00  0.00     0.040 H 
ATOM     26  H   NAG d1177      14.071 -13.168   2.033  0.00  0.00     0.132 H 
ATOM     27  H   NAG d1177      18.029 -10.207   1.960  0.00  0.00     0.209 HD
ATOM     28  O6A BDP d1178      14.706  -9.584   8.221  0.00  0.00    -0.646 OA
ATOM     29  O4  BDP d1178      14.326 -13.009  10.285  0.00  0.00    -0.348 OA
ATOM     30  O3  BDP d1178      16.874 -14.192   9.831  0.00  0.00    -0.390 OA
ATOM     31  C1  BDP d1178      15.747 -13.078   6.508  0.00  0.00     0.160 C 
ATOM     32  C4  BDP d1178      15.200 -12.600   9.260  0.00  0.00     0.103 C 
ATOM     33  C2  BDP d1178      16.705 -13.622   7.547  0.00  0.00     0.110 C 
ATOM     34  O2  BDP d1178      17.274 -14.828   7.107  0.00  0.00    -0.388 OA
ATOM     35  O6B BDP d1178      12.845 -10.427   9.118  0.00  0.00    -0.646 OA
ATOM     36  O5  BDP d1178      15.227 -11.845   6.972  0.00  0.00    -0.340 OA
ATOM     37  C6  BDP d1178      13.949 -10.550   8.519  0.00  0.00     0.206 C 
ATOM     38  C5  BDP d1178      14.418 -11.957   8.125  0.00  0.00     0.152 C 
ATOM     39  C3  BDP d1178      15.939 -13.877   8.815  0.00  0.00     0.092 C 
ATOM     40  H   BDP d1178      16.404 -14.361  10.662  0.00  0.00     0.210 HD
ATOM     41  H   BDP d1178      14.919 -13.732   6.333  0.00  0.00     0.133 H 
ATOM     42  H   BDP d1178      15.897 -11.856   9.586  0.00  0.00     0.092 H 
ATOM     43  H   BDP d1178      17.487 -12.912   7.713  0.00  0.00     0.094 H 
ATOM     44  H   BDP d1178      16.572 -15.480   6.953  0.00  0.00     0.210 HD
ATOM     45  H   BDP d1178      13.571 -12.578   7.922  0.00  0.00     0.104 H 
ATOM     46  H   BDP d1178      15.236 -14.667   8.650  0.00  0.00     0.091 H 
ATOM     47  O1  NAG d1175      11.229 -17.851  -7.801  0.00  0.00    -0.369 OA
ATOM     48  O3  NAG d1175      12.724 -15.832  -3.849  0.00  0.00    -0.348 OA
ATOM     49  O6  NAG d1175       8.898 -20.599  -4.319  0.00  0.00    -0.398 OA
ATOM     50  C7  NAG d1175      13.417 -14.967  -6.726  0.00  0.00     0.214 C 
ATOM     51  O4  NAG d1175      11.365 -18.024  -2.327  0.00  0.00    -0.390 OA
ATOM     52  N2  NAG d1175      13.066 -16.256  -6.635  0.00  0.00    -0.349 N 
ATOM     53  C6  NAG d1175       9.211 -19.323  -3.829  0.00  0.00     0.043 C 
ATOM     54  C2  NAG d1175      11.957 -16.790  -5.829  0.00  0.00     0.087 C 
ATOM     55  C8  NAG d1175      12.418 -13.919  -6.356  0.00  0.00    -0.003 C 
ATOM     56  O7  NAG d1175      14.546 -14.625  -7.112  0.00  0.00    -0.274 OA
ATOM     57  C3  NAG d1175      12.335 -17.082  -4.385  0.00  0.00     0.093 C 
ATOM     58  C4  NAG d1175      11.102 -17.674  -3.687  0.00  0.00     0.089 C 
ATOM     59  C1  NAG d1175      11.486 -18.099  -6.448  0.00  0.00     0.151 C 
ATOM     60  C5  NAG d1175      10.519 -18.865  -4.457  0.00  0.00     0.089 C 
ATOM     61  O5  NAG d1175      10.295 -18.550  -5.818  0.00  0.00    -0.349 OA
ATOM     62  H   NAG d1175      12.041 -17.543  -8.233  0.00  0.00     0.212 HD
ATOM     63  H   NAG d1175       8.065 -20.900  -3.925  0.00  0.00     0.209 HD
ATOM     64  H   NAG d1175      11.732 -17.257  -1.861  0.00  0.00     0.210 HD
ATOM     65  H   NAG d1175      13.597 -16.903  -7.153  0.00  0.00     0.163 HD
ATOM     66  H   NAG d1175       9.316 -19.362  -2.766  0.00  0.00     0.078 H 
ATOM     67  H   NAG d1175       8.429 -18.635  -4.078  0.00  0.00     0.078 H 
ATOM     68  H   NAG d1175      11.198 -16.036  -5.823  0.00  0.00     0.084 H 
ATOM     69  H   NAG d1175      11.506 -14.388  -6.049  0.00  0.00     0.040 H 
ATOM     70  H   NAG d1175      12.229 -13.291  -7.201  0.00  0.00     0.040 H 
ATOM     71  H   NAG d1175      12.803 -13.328  -5.551  0.00  0.00     0.040 H 
ATOM     72  H   NAG d1175      13.130 -17.788  -4.266  0.00  0.00     0.091 H 
ATOM     73  H   NAG d1175      10.364 -16.899  -3.680  0.00  0.00     0.091 H 
ATOM     74  H   NAG d1175      12.234 -18.854  -6.325  0.00  0.00     0.132 H 
ATOM     75  H   NAG d1175      11.240 -19.654  -4.403  0.00  0.00     0.090 H 
ATOM     76  C2  NAG d1181       6.532  -8.070  18.137  0.00  0.00     0.087 C 
ATOM     77  C8  NAG d1181       6.144  -5.477  16.806  0.00  0.00    -0.003 C 
ATOM     78  O5  NAG d1181       6.406 -10.509  17.948  0.00  0.00    -0.349 OA
ATOM     79  O4  NAG d1181       3.807  -9.343  20.276  0.00  0.00    -0.390 OA
ATOM     80  C3  NAG d1181       5.697  -8.138  19.406  0.00  0.00     0.086 C 
ATOM     81  C1  NAG d1181       7.270  -9.385  17.880  0.00  0.00     0.154 C 
ATOM     82  N2  NAG d1181       7.483  -6.973  18.199  0.00  0.00    -0.349 N 
ATOM     83  C4  NAG d1181       4.738  -9.307  19.216  0.00  0.00     0.089 C 
ATOM     84  O6  NAG d1181       4.475 -12.340  17.867  0.00  0.00    -0.398 OA
ATOM     85  O3  NAG d1181       5.019  -6.918  19.658  0.00  0.00    -0.391 OA
ATOM     86  C5  NAG d1181       5.600 -10.578  19.121  0.00  0.00     0.089 C 
ATOM     87  O7  NAG d1181       8.498  -5.375  16.976  0.00  0.00    -0.274 OA
ATOM     88  C7  NAG d1181       7.470  -5.946  17.335  0.00  0.00     0.214 C 
ATOM     89  C6  NAG d1181       4.807 -11.892  19.166  0.00  0.00     0.043 C 
ATOM     90  H   NAG d1181       5.857  -7.898  17.325  0.00  0.00     0.084 H 
ATOM     91  H   NAG d1181       5.362  -6.080  17.219  0.00  0.00     0.040 H 
ATOM     92  H   NAG d1181       6.135  -5.563  15.739  0.00  0.00     0.040 H 
ATOM     93  H   NAG d1181       5.991  -4.455  17.082  0.00  0.00     0.040 H 
ATOM     94  H   NAG d1181       3.296  -8.519  20.285  0.00  0.00     0.210 HD
ATOM     95  H   NAG d1181       6.313  -8.291  20.267  0.00  0.00     0.090 H 
ATOM     96  H   NAG d1181       8.017  -9.578  18.622  0.00  0.00     0.132 H 
ATOM     97  H   NAG d1181       8.168  -6.984  18.906  0.00  0.00     0.163 HD
ATOM     98  H   NAG d1181       4.156  -9.215  18.323  0.00  0.00     0.091 H 
ATOM     99  H   NAG d1181       3.976 -13.169  17.929  0.00  0.00     0.209 HD
ATOM    100  H   NAG d1181       4.436  -6.713  18.911  0.00  0.00     0.210 HD
ATOM    101  H   NAG d1181       6.213 -10.601  19.998  0.00  0.00     0.090 H 
ATOM    102  H   NAG d1181       5.398 -12.639  19.651  0.00  0.00     0.078 H 
ATOM    103  H   NAG d1181       3.898 -11.717  19.703  0.00  0.00     0.078 H 
ATOM    104  C4  NAG d1179      13.877 -12.206  14.347  0.00  0.00     0.089 C 
ATOM    105  N2  NAG d1179      11.879 -12.146  11.096  0.00  0.00    -0.349 N 
ATOM    106  C6  NAG d1179      16.403 -12.369  14.417  0.00  0.00     0.043 C 
ATOM    107  O4  NAG d1179      13.810 -11.403  15.522  0.00  0.00    -0.390 OA
ATOM    108  O6  NAG d1179      16.439 -13.778  14.521  0.00  0.00    -0.398 OA
ATOM    109  C1  NAG d1179      14.271 -12.229  11.482  0.00  0.00     0.154 C 
ATOM    110  C5  NAG d1179      15.188 -11.938  13.613  0.00  0.00     0.089 C 
ATOM    111  O5  NAG d1179      15.224 -12.670  12.401  0.00  0.00    -0.349 OA
ATOM    112  C2  NAG d1179      12.893 -12.530  12.061  0.00  0.00     0.087 C 
ATOM    113  C8  NAG d1179       9.988 -12.479   9.675  0.00  0.00    -0.003 C 
ATOM    114  C7  NAG d1179      10.855 -12.943  10.796  0.00  0.00     0.214 C 
ATOM    115  C3  NAG d1179      12.702 -11.872  13.438  0.00  0.00     0.093 C 
ATOM    116  O3  NAG d1179      11.510 -12.352  14.043  0.00  0.00    -0.348 OA
ATOM    117  O7  NAG d1179      10.606 -13.987  11.390  0.00  0.00    -0.274 OA
ATOM    118  H   NAG d1179      13.835 -13.240  14.621  0.00  0.00     0.091 H 
ATOM    119  H   NAG d1179      11.950 -11.271  10.651  0.00  0.00     0.163 HD
ATOM    120  H   NAG d1179      16.350 -11.942  15.396  0.00  0.00     0.078 H 
ATOM    121  H   NAG d1179      17.289 -12.030  13.922  0.00  0.00     0.078 H 
ATOM    122  H   NAG d1179      13.848 -10.466  15.276  0.00  0.00     0.210 HD
ATOM    123  H   NAG d1179      15.636 -14.089  14.970  0.00  0.00     0.209 HD
ATOM    124  H   NAG d1179      14.449 -11.192  11.286  0.00  0.00     0.132 H 
ATOM    125  H   NAG d1179      15.224 -10.881  13.444  0.00  0.00     0.090 H 
ATOM    126  H   NAG d1179      12.798 -13.582  12.238  0.00  0.00     0.084 H 
ATOM    127  H   NAG d1179      10.367 -11.555   9.290  0.00  0.00     0.040 H 
ATOM    128  H   NAG d1179       8.990 -12.332  10.034  0.00  0.00     0.040 H 
ATOM    129  H   NAG d1179       9.984 -13.214   8.899  0.00  0.00     0.040 H 
ATOM    130  H   NAG d1179      12.640 -10.813  13.300  0.00  0.00     0.091 H 
ATOM    131  O5  BDP d1180      10.971 -10.613  15.458  0.00  0.00    -0.340 OA
ATOM    132  O6A BDP d1180      10.757  -7.570  16.842  0.00  0.00    -0.646 OA
ATOM    133  O2  BDP d1180       8.733 -12.382  13.217  0.00  0.00    -0.388 OA
ATOM    134  O3  BDP d1180       7.071 -11.808  15.577  0.00  0.00    -0.390 OA
ATOM    135  C5  BDP d1180      10.066  -9.603  15.846  0.00  0.00     0.152 C 
ATOM    136  C2  BDP d1180       9.198 -11.966  14.484  0.00  0.00     0.110 C 
ATOM    137  C3  BDP d1180       8.152 -11.034  15.089  0.00  0.00     0.092 C 
ATOM    138  C6  BDP d1180      10.698  -8.811  16.980  0.00  0.00     0.206 C 
ATOM    139  C1  BDP d1180      10.565 -11.305  14.303  0.00  0.00     0.160 C 
ATOM    140  C4  BDP d1180       8.740 -10.235  16.240  0.00  0.00     0.103 C 
ATOM    141  O6B BDP d1180      11.139  -9.452  17.969  0.00  0.00    -0.646 OA
ATOM    142  O4  BDP d1180       7.830  -9.220  16.566  0.00  0.00    -0.348 OA
ATOM    143  H   BDP d1180       9.383 -12.976  12.813  0.00  0.00     0.210 HD
ATOM    144  H   BDP d1180       6.689 -12.323  14.849  0.00  0.00     0.210 HD
ATOM    145  H   BDP d1180       9.861  -8.929  15.041  0.00  0.00     0.104 H 
ATOM    146  H   BDP d1180       9.330 -12.786  15.160  0.00  0.00     0.094 H 
ATOM    147  H   BDP d1180       7.821 -10.355  14.331  0.00  0.00     0.091 H 
ATOM    148  H   BDP d1180      10.507 -10.598  13.503  0.00  0.00     0.133 H 
ATOM    149  H   BDP d1180       8.914 -10.886  17.071  0.00  0.00     0.092 H 
ATOM    150  C3  BDP d1176      15.244 -14.303  -1.469  0.00  0.00     0.092 C 
ATOM    151  O4  BDP d1176      15.212 -14.505   0.991  0.00  0.00    -0.348 OA
ATOM    152  O3  BDP d1176      15.801 -12.995  -1.514  0.00  0.00    -0.390 OA
ATOM    153  O5  BDP d1176      12.938 -15.993  -1.525  0.00  0.00    -0.340 OA
ATOM    154  O2  BDP d1176      15.243 -14.489  -3.870  0.00  0.00    -0.388 OA
ATOM    155  C1  BDP d1176      13.648 -15.854  -2.738  0.00  0.00     0.160 C 
ATOM    156  O6B BDP d1176      12.936 -17.050   1.574  0.00  0.00    -0.646 OA
ATOM    157  C5  BDP d1176      13.723 -15.888  -0.334  0.00  0.00     0.152 C 
ATOM    158  O6A BDP d1176      11.725 -15.328   0.847  0.00  0.00    -0.646 OA
ATOM    159  C6  BDP d1176      12.725 -16.092   0.783  0.00  0.00     0.206 C 
ATOM    160  C4  BDP d1176      14.424 -14.535  -0.189  0.00  0.00     0.103 C 
ATOM    161  C2  BDP d1176      14.400 -14.521  -2.731  0.00  0.00     0.110 C 
ATOM    162  H   BDP d1176      16.038 -15.021  -1.445  0.00  0.00     0.091 H 
ATOM    163  H   BDP d1176      15.086 -12.340  -1.536  0.00  0.00     0.210 HD
ATOM    164  H   BDP d1176      15.732 -13.651  -3.887  0.00  0.00     0.210 HD
ATOM    165  H   BDP d1176      14.327 -16.675  -2.836  0.00  0.00     0.133 H 
ATOM    166  H   BDP d1176      14.518 -16.603  -0.334  0.00  0.00     0.104 H 
ATOM    167  H   BDP d1176      13.719 -13.737  -0.083  0.00  0.00     0.092 H 
ATOM    168  H   BDP d1176      13.673 -13.737  -2.748  0.00  0.00     0.094 H 
ENDROOT
TORSDOF 43
ENDMDL
MODEL 65
REMARK VINA RESULT:      -5.2      5.200      5.915
REMARK  0 active torsions:
REMARK  status: ('A' for Active; 'I' for Inactive)
REMARK       I    between atoms: C3_1  and  O3_90 
REMARK       I    between atoms: O1_4  and  C1_76 
REMARK       I    between atoms: C2_5  and  N2_21 
REMARK       I    between atoms: C8_6  and  C7_66 
REMARK       I    between atoms: C4_7  and  O4_24 
REMARK       I    between atoms: N2_9  and  C2_60 
REMARK       I    between atoms: N2_9  and  C7_69 
REMARK       I    between atoms: O4_12  and  C4_26 
REMARK       I    between atoms: O3_13  and  C3_65 
REMARK       I    between atoms: O3_13  and  C1_61 
REMARK       I    between atoms: C3_14  and  O3_35 
REMARK       I    between atoms: C6_15  and  C5_53 
REMARK       I    between atoms: C6_15  and  O6_46 
REMARK       I    between atoms: O6_16  and  C6_54 
REMARK       I    between atoms: C4_17  and  O4_49 
REMARK       I    between atoms: O4_18  and  C4_28 
REMARK       I    between atoms: O4_18  and  C1_47 
REMARK       I    between atoms: C3_19  and  O3_43 
REMARK       I    between atoms: C1_20  and  O4_91 
REMARK       I    between atoms: N2_21  and  C7_66 
REMARK       I    between atoms: O3_22  and  C3_82 
REMARK       I    between atoms: C7_23  and  C8_62 
REMARK       I    between atoms: C7_23  and  N2_51 
REMARK       I    between atoms: C2_25  and  N2_41 
REMARK       I    between atoms: C1_27  and  O3_90 
REMARK       I    between atoms: O6_29  and  C6_74 
REMARK       I    between atoms: O2_30  and  C2_37 
REMARK       I    between atoms: C2_31  and  O2_42 
REMARK       I    between atoms: O3_32  and  C3_45 
REMARK       I    between atoms: O4_33  and  C4_73 
REMARK       I    between atoms: O4_34  and  C4_84 
REMARK       I    between atoms: O4_34  and  C1_85 
REMARK       I    between atoms: C5_36  and  C6_48 
REMARK       I    between atoms: C6_38  and  C5_40 
REMARK       I    between atoms: C6_38  and  O6_89 
REMARK       I    between atoms: N2_41  and  C7_50 
REMARK       I    between atoms: C5_44  and  C6_74 
REMARK       I    between atoms: C7_50  and  C8_75 
REMARK       I    between atoms: N2_51  and  C2_58 
REMARK       I    between atoms: C1_52  and  O3_87 
REMARK       I    between atoms: C6_54  and  C5_86 
REMARK       I    between atoms: O2_59  and  C2_93 
REMARK       I    between atoms: C8_64  and  C7_69 
REMARK       I    between atoms: C6_70  and  C5_80 
REMARK       I    between atoms: C4_72  and  O4_91 
REMARK       I    between atoms: C5_77  and  C6_79 
REMARK       I    between atoms: C3_83  and  O3_87 
ROOT
ATOM      1  C3  NAG d1177      14.976 -10.395  10.397  0.00  0.00     0.093 C 
ATOM      2  O7  NAG d1177      14.911  -6.539  10.800  0.00  0.00    -0.274 OA
ATOM      3  C4  NAG d1177      15.871 -11.491  11.003  0.00  0.00     0.089 C 
ATOM      4  C2  NAG d1177      14.628  -9.355  11.449  0.00  0.00     0.087 C 
ATOM      5  C6  NAG d1177      16.221 -13.026  13.011  0.00  0.00     0.043 C 
ATOM      6  C5  NAG d1177      15.294 -12.022  12.305  0.00  0.00     0.089 C 
ATOM      7  N2  NAG d1177      13.585  -8.423  10.982  0.00  0.00    -0.349 N 
ATOM      8  O4  NAG d1177      16.036 -12.559  10.090  0.00  0.00    -0.390 OA
ATOM      9  C7  NAG d1177      13.793  -7.138  10.687  0.00  0.00     0.214 C 
ATOM     10  O5  NAG d1177      15.047 -10.945  13.201  0.00  0.00    -0.349 OA
ATOM     11  C8  NAG d1177      12.528  -6.440  10.260  0.00  0.00    -0.003 C 
ATOM     12  C1  NAG d1177      14.099 -10.022  12.718  0.00  0.00     0.154 C 
ATOM     13  O6  NAG d1177      17.441 -12.413  13.389  0.00  0.00    -0.398 OA
ATOM     14  O3  NAG d1177      15.674  -9.729   9.381  0.00  0.00    -0.348 OA
ATOM     15  H   NAG d1177      14.090 -10.863  10.021  0.00  0.00     0.091 H 
ATOM     16  H   NAG d1177      16.824 -11.049  11.208  0.00  0.00     0.091 H 
ATOM     17  H   NAG d1177      15.533  -8.819  11.646  0.00  0.00     0.084 H 
ATOM     18  H   NAG d1177      16.429 -13.837  12.345  0.00  0.00     0.078 H 
ATOM     19  H   NAG d1177      15.731 -13.381  13.892  0.00  0.00     0.078 H 
ATOM     20  H   NAG d1177      14.389 -12.530  12.047  0.00  0.00     0.090 H 
ATOM     21  H   NAG d1177      12.671  -8.774  10.879  0.00  0.00     0.163 HD
ATOM     22  H   NAG d1177      15.174 -12.962   9.903  0.00  0.00     0.210 HD
ATOM     23  H   NAG d1177      12.745  -5.416  10.035  0.00  0.00     0.040 H 
ATOM     24  H   NAG d1177      11.810  -6.487  11.051  0.00  0.00     0.040 H 
ATOM     25  H   NAG d1177      12.132  -6.920   9.389  0.00  0.00     0.040 H 
ATOM     26  H   NAG d1177      13.197 -10.554  12.501  0.00  0.00     0.132 H 
ATOM     27  H   NAG d1177      17.897 -12.085  12.597  0.00  0.00     0.209 HD
ATOM     28  O6A BDP d1178      15.164 -13.198   6.123  0.00  0.00    -0.646 OA
ATOM     29  O4  BDP d1178      13.762  -9.911   4.288  0.00  0.00    -0.348 OA
ATOM     30  O3  BDP d1178      15.773  -8.017   4.975  0.00  0.00    -0.390 OA
ATOM     31  C1  BDP d1178      14.958  -9.716   8.138  0.00  0.00     0.160 C 
ATOM     32  C4  BDP d1178      14.687 -10.106   5.332  0.00  0.00     0.103 C 
ATOM     33  C2  BDP d1178      15.722  -8.806   7.198  0.00  0.00     0.110 C 
ATOM     34  O2  BDP d1178      15.854  -7.524   7.756  0.00  0.00    -0.388 OA
ATOM     35  O6B BDP d1178      13.160 -12.922   5.179  0.00  0.00    -0.646 OA
ATOM     36  O5  BDP d1178      14.882 -11.005   7.558  0.00  0.00    -0.340 OA
ATOM     37  C6  BDP d1178      14.145 -12.503   5.850  0.00  0.00     0.206 C 
ATOM     38  C5  BDP d1178      14.119 -11.060   6.370  0.00  0.00     0.152 C 
ATOM     39  C3  BDP d1178      14.957  -8.702   5.909  0.00  0.00     0.092 C 
ATOM     40  H   BDP d1178      15.300  -7.937   4.131  0.00  0.00     0.210 HD
ATOM     41  H   BDP d1178      13.958  -9.379   8.310  0.00  0.00     0.133 H 
ATOM     42  H   BDP d1178      15.598 -10.555   4.996  0.00  0.00     0.092 H 
ATOM     43  H   BDP d1178      16.697  -9.211   7.029  0.00  0.00     0.094 H 
ATOM     44  H   BDP d1178      14.974  -7.147   7.914  0.00  0.00     0.210 HD
ATOM     45  H   BDP d1178      13.110 -10.763   6.566  0.00  0.00     0.104 H 
ATOM     46  H   BDP d1178      14.031  -8.196   6.087  0.00  0.00     0.091 H 
ATOM     47  O1  NAG d1175       8.667  -7.895  22.457  0.00  0.00    -0.369 OA
ATOM     48  O3  NAG d1175      10.866  -8.979  18.467  0.00  0.00    -0.348 OA
ATOM     49  O6  NAG d1175       5.688  -5.750  19.047  0.00  0.00    -0.398 OA
ATOM     50  C7  NAG d1175      11.706  -9.822  21.312  0.00  0.00     0.214 C 
ATOM     51  O4  NAG d1175       8.920  -7.217  17.027  0.00  0.00    -0.390 OA
ATOM     52  N2  NAG d1175      10.959  -8.710  21.292  0.00  0.00    -0.349 N 
ATOM     53  C6  NAG d1175       6.414  -6.811  18.488  0.00  0.00     0.043 C 
ATOM     54  C2  NAG d1175       9.765  -8.492  20.462  0.00  0.00     0.087 C 
ATOM     55  C8  NAG d1175      11.114 -11.099  20.810  0.00  0.00    -0.003 C 
ATOM     56  O7  NAG d1175      12.872  -9.816  21.738  0.00  0.00    -0.274 OA
ATOM     57  C3  NAG d1175      10.075  -7.972  19.067  0.00  0.00     0.093 C 
ATOM     58  C4  NAG d1175       8.741  -7.748  18.341  0.00  0.00     0.089 C 
ATOM     59  C1  NAG d1175       8.875  -7.462  21.143  0.00  0.00     0.151 C 
ATOM     60  C5  NAG d1175       7.778  -6.877  19.157  0.00  0.00     0.089 C 
ATOM     61  O5  NAG d1175       7.623  -7.364  20.477  0.00  0.00    -0.349 OA
ATOM     62  H   NAG d1175       9.521  -7.963  22.914  0.00  0.00     0.212 HD
ATOM     63  H   NAG d1175       4.815  -5.699  18.627  0.00  0.00     0.209 HD
ATOM     64  H   NAG d1175       9.532  -7.782  16.530  0.00  0.00     0.210 HD
ATOM     65  H   NAG d1175      11.234  -7.974  21.885  0.00  0.00     0.163 HD
ATOM     66  H   NAG d1175       6.536  -6.649  17.438  0.00  0.00     0.078 H 
ATOM     67  H   NAG d1175       5.889  -7.732  18.640  0.00  0.00     0.078 H 
ATOM     68  H   NAG d1175       9.292  -9.447  20.357  0.00  0.00     0.084 H 
ATOM     69  H   NAG d1175      10.110 -10.922  20.484  0.00  0.00     0.040 H 
ATOM     70  H   NAG d1175      11.112 -11.825  21.596  0.00  0.00     0.040 H 
ATOM     71  H   NAG d1175      11.697 -11.463  19.989  0.00  0.00     0.040 H 
ATOM     72  H   NAG d1175      10.601  -7.041  19.046  0.00  0.00     0.091 H 
ATOM     73  H   NAG d1175       8.294  -8.715  18.236  0.00  0.00     0.091 H 
ATOM     74  H   NAG d1175       9.341  -6.500  21.118  0.00  0.00     0.132 H 
ATOM     75  H   NAG d1175       8.205  -5.898  19.202  0.00  0.00     0.090 H 
ATOM     76  C2  NAG d1181       8.254 -16.392  -4.341  0.00  0.00     0.087 C 
ATOM     77  C8  NAG d1181       8.684 -19.076  -3.222  0.00  0.00    -0.003 C 
ATOM     78  O5  NAG d1181       7.338 -14.147  -3.987  0.00  0.00    -0.349 OA
ATOM     79  O4  NAG d1181       5.336 -15.879  -6.542  0.00  0.00    -0.390 OA
ATOM     80  C3  NAG d1181       7.485 -16.485  -5.649  0.00  0.00     0.086 C 
ATOM     81  C1  NAG d1181       8.518 -14.937  -3.948  0.00  0.00     0.154 C 
ATOM     82  N2  NAG d1181       9.511 -17.116  -4.424  0.00  0.00    -0.349 N 
ATOM     83  C4  NAG d1181       6.193 -15.706  -5.434  0.00  0.00     0.089 C 
ATOM     84  O6  NAG d1181       4.916 -13.046  -3.891  0.00  0.00    -0.398 OA
ATOM     85  O3  NAG d1181       7.247 -17.831  -6.026  0.00  0.00    -0.391 OA
ATOM     86  C5  NAG d1181       6.593 -14.239  -5.198  0.00  0.00     0.089 C 
ATOM     87  O7  NAG d1181      10.949 -18.403  -3.259  0.00  0.00    -0.274 OA
ATOM     88  C7  NAG d1181       9.804 -18.163  -3.638  0.00  0.00     0.214 C 
ATOM     89  C6  NAG d1181       5.418 -13.250  -5.196  0.00  0.00     0.043 C 
ATOM     90  H   NAG d1181       7.645 -16.840  -3.585  0.00  0.00     0.084 H 
ATOM     91  H   NAG d1181       7.763 -18.723  -3.637  0.00  0.00     0.040 H 
ATOM     92  H   NAG d1181       8.613 -19.090  -2.154  0.00  0.00     0.040 H 
ATOM     93  H   NAG d1181       8.880 -20.065  -3.579  0.00  0.00     0.040 H 
ATOM     94  H   NAG d1181       5.120 -16.820  -6.639  0.00  0.00     0.210 HD
ATOM     95  H   NAG d1181       8.046 -16.069  -6.459  0.00  0.00     0.090 H 
ATOM     96  H   NAG d1181       9.185 -14.451  -4.629  0.00  0.00     0.132 H 
ATOM     97  H   NAG d1181      10.179 -16.825  -5.087  0.00  0.00     0.163 HD
ATOM     98  H   NAG d1181       5.643 -16.057  -4.586  0.00  0.00     0.091 H 
ATOM     99  H   NAG d1181       4.177 -12.418  -3.923  0.00  0.00     0.209 HD
ATOM    100  H   NAG d1181       6.738 -18.276  -5.332  0.00  0.00     0.210 HD
ATOM    101  H   NAG d1181       7.194 -13.945  -6.034  0.00  0.00     0.090 H 
ATOM    102  H   NAG d1181       5.751 -12.313  -5.591  0.00  0.00     0.078 H 
ATOM    103  H   NAG d1181       4.633 -13.660  -5.797  0.00  0.00     0.078 H 
ATOM    104  C4  NAG d1179      13.733 -10.462   0.160  0.00  0.00     0.089 C 
ATOM    105  N2  NAG d1179      11.755 -11.440   3.274  0.00  0.00    -0.349 N 
ATOM    106  C6  NAG d1179      16.070  -9.493   0.252  0.00  0.00     0.043 C 
ATOM    107  O4  NAG d1179      13.968 -11.140  -1.071  0.00  0.00    -0.390 OA
ATOM    108  O6  NAG d1179      15.650  -8.144   0.249  0.00  0.00    -0.398 OA
ATOM    109  C1  NAG d1179      14.003 -10.562   3.037  0.00  0.00     0.154 C 
ATOM    110  C5  NAG d1179      15.034 -10.358   0.950  0.00  0.00     0.089 C 
ATOM    111  O5  NAG d1179      14.791  -9.760   2.210  0.00  0.00    -0.349 OA
ATOM    112  C2  NAG d1179      12.621 -10.669   2.401  0.00  0.00     0.087 C 
ATOM    113  C8  NAG d1179       9.812 -11.854   4.601  0.00  0.00    -0.003 C 
ATOM    114  C7  NAG d1179      10.519 -11.041   3.569  0.00  0.00     0.214 C 
ATOM    115  C3  NAG d1179      12.699 -11.232   0.972  0.00  0.00     0.093 C 
ATOM    116  O3  NAG d1179      11.437 -11.109   0.333  0.00  0.00    -0.348 OA
ATOM    117  O7  NAG d1179       9.965 -10.085   3.038  0.00  0.00    -0.274 OA
ATOM    118  H   NAG d1179      13.366  -9.477  -0.042  0.00  0.00     0.091 H 
ATOM    119  H   NAG d1179      12.091 -12.281   3.660  0.00  0.00     0.163 HD
ATOM    120  H   NAG d1179      16.190  -9.828  -0.757  0.00  0.00     0.078 H 
ATOM    121  H   NAG d1179      17.001  -9.571   0.773  0.00  0.00     0.078 H 
ATOM    122  H   NAG d1179      14.300 -12.033  -0.890  0.00  0.00     0.210 HD
ATOM    123  H   NAG d1179      14.806  -8.069  -0.222  0.00  0.00     0.209 HD
ATOM    124  H   NAG d1179      14.501 -11.499   3.170  0.00  0.00     0.132 H 
ATOM    125  H   NAG d1179      15.405 -11.358   1.045  0.00  0.00     0.090 H 
ATOM    126  H   NAG d1179      12.196  -9.692   2.294  0.00  0.00     0.084 H 
ATOM    127  H   NAG d1179      10.458 -12.637   4.942  0.00  0.00     0.040 H 
ATOM    128  H   NAG d1179       8.929 -12.281   4.175  0.00  0.00     0.040 H 
ATOM    129  H   NAG d1179       9.545 -11.229   5.427  0.00  0.00     0.040 H 
ATOM    130  H   NAG d1179      12.980 -12.263   1.031  0.00  0.00     0.091 H 
ATOM    131  O5  BDP d1180      11.538 -12.800  -1.231  0.00  0.00    -0.340 OA
ATOM    132  O6A BDP d1180      12.368 -15.620  -2.838  0.00  0.00    -0.646 OA
ATOM    133  O2  BDP d1180       8.775 -12.043   0.993  0.00  0.00    -0.388 OA
ATOM    134  O3  BDP d1180       7.468 -12.912  -1.495  0.00  0.00    -0.390 OA
ATOM    135  C5  BDP d1180      11.023 -14.010  -1.742  0.00  0.00     0.152 C 
ATOM    136  C2  BDP d1180       9.391 -12.176  -0.269  0.00  0.00     0.110 C 
ATOM    137  C3  BDP d1180       8.725 -13.339  -1.000  0.00  0.00     0.092 C 
ATOM    138  C6  BDP d1180      11.915 -14.456  -2.890  0.00  0.00     0.206 C 
ATOM    139  C1  BDP d1180      10.891 -12.377  -0.056  0.00  0.00     0.160 C 
ATOM    140  C4  BDP d1180       9.577 -13.805  -2.168  0.00  0.00     0.103 C 
ATOM    141  O6B BDP d1180      12.156 -13.625  -3.804  0.00  0.00    -0.646 OA
ATOM    142  O4  BDP d1180       9.057 -15.026  -2.619  0.00  0.00    -0.348 OA
ATOM    143  H   BDP d1180       9.183 -11.308   1.477  0.00  0.00     0.210 HD
ATOM    144  H   BDP d1180       6.915 -12.612  -0.756  0.00  0.00     0.210 HD
ATOM    145  H   BDP d1180      11.021 -14.781  -1.000  0.00  0.00     0.104 H 
ATOM    146  H   BDP d1180       9.272 -11.303  -0.877  0.00  0.00     0.094 H 
ATOM    147  H   BDP d1180       8.606 -14.151  -0.314  0.00  0.00     0.091 H 
ATOM    148  H   BDP d1180      11.040 -13.132   0.688  0.00  0.00     0.133 H 
ATOM    149  H   BDP d1180       9.558 -13.063  -2.940  0.00  0.00     0.092 H 
ATOM    150  C3  BDP d1176      13.823  -9.409  16.138  0.00  0.00     0.092 C 
ATOM    151  O4  BDP d1176      13.808  -9.017  13.701  0.00  0.00    -0.348 OA
ATOM    152  O3  BDP d1176      14.772 -10.469  16.123  0.00  0.00    -0.390 OA
ATOM    153  O5  BDP d1176      11.092  -8.559  16.178  0.00  0.00    -0.340 OA
ATOM    154  O2  BDP d1176      13.682  -9.441  18.542  0.00  0.00    -0.388 OA
ATOM    155  C1  BDP d1176      11.769  -8.568  17.417  0.00  0.00     0.160 C 
ATOM    156  O6B BDP d1176      10.850  -7.296  13.166  0.00  0.00    -0.646 OA
ATOM    157  C5  BDP d1176      11.908  -8.304  15.030  0.00  0.00     0.152 C 
ATOM    158  O6A BDP d1176      10.240  -9.370  13.696  0.00  0.00    -0.646 OA
ATOM    159  C6  BDP d1176      10.935  -8.335  13.874  0.00  0.00     0.206 C 
ATOM    160  C4  BDP d1176      13.015  -9.343  14.832  0.00  0.00     0.103 C 
ATOM    161  C2  BDP d1176      12.912  -9.583  17.361  0.00  0.00     0.110 C 
ATOM    162  H   BDP d1176      14.341  -8.475  16.212  0.00  0.00     0.091 H 
ATOM    163  H   BDP d1176      14.308 -11.318  16.056  0.00  0.00     0.210 HD
ATOM    164  H   BDP d1176      14.415 -10.076  18.528  0.00  0.00     0.210 HD
ATOM    165  H   BDP d1176      12.141  -7.583  17.613  0.00  0.00     0.133 H 
ATOM    166  H   BDP d1176      12.428  -7.374  15.128  0.00  0.00     0.104 H 
ATOM    167  H   BDP d1176      12.610 -10.313  14.627  0.00  0.00     0.092 H 
ATOM    168  H   BDP d1176      12.478 -10.557  17.279  0.00  0.00     0.094 H 
ENDROOT
TORSDOF 43
ENDMDL
MODEL 66
REMARK VINA RESULT:      -5.1      5.234     19.078
REMARK  0 active torsions:
REMARK  status: ('A' for Active; 'I' for Inactive)
REMARK       I    between atoms: C3_1  and  O3_90 
REMARK       I    between atoms: O1_4  and  C1_76 
REMARK       I    between atoms: C2_5  and  N2_21 
REMARK       I    between atoms: C8_6  and  C7_66 
REMARK       I    between atoms: C4_7  and  O4_24 
REMARK       I    between atoms: N2_9  and  C2_60 
REMARK       I    between atoms: N2_9  and  C7_69 
REMARK       I    between atoms: O4_12  and  C4_26 
REMARK       I    between atoms: O3_13  and  C3_65 
REMARK       I    between atoms: O3_13  and  C1_61 
REMARK       I    between atoms: C3_14  and  O3_35 
REMARK       I    between atoms: C6_15  and  C5_53 
REMARK       I    between atoms: C6_15  and  O6_46 
REMARK       I    between atoms: O6_16  and  C6_54 
REMARK       I    between atoms: C4_17  and  O4_49 
REMARK       I    between atoms: O4_18  and  C4_28 
REMARK       I    between atoms: O4_18  and  C1_47 
REMARK       I    between atoms: C3_19  and  O3_43 
REMARK       I    between atoms: C1_20  and  O4_91 
REMARK       I    between atoms: N2_21  and  C7_66 
REMARK       I    between atoms: O3_22  and  C3_82 
REMARK       I    between atoms: C7_23  and  C8_62 
REMARK       I    between atoms: C7_23  and  N2_51 
REMARK       I    between atoms: C2_25  and  N2_41 
REMARK       I    between atoms: C1_27  and  O3_90 
REMARK       I    between atoms: O6_29  and  C6_74 
REMARK       I    between atoms: O2_30  and  C2_37 
REMARK       I    between atoms: C2_31  and  O2_42 
REMARK       I    between atoms: O3_32  and  C3_45 
REMARK       I    between atoms: O4_33  and  C4_73 
REMARK       I    between atoms: O4_34  and  C4_84 
REMARK       I    between atoms: O4_34  and  C1_85 
REMARK       I    between atoms: C5_36  and  C6_48 
REMARK       I    between atoms: C6_38  and  C5_40 
REMARK       I    between atoms: C6_38  and  O6_89 
REMARK       I    between atoms: N2_41  and  C7_50 
REMARK       I    between atoms: C5_44  and  C6_74 
REMARK       I    between atoms: C7_50  and  C8_75 
REMARK       I    between atoms: N2_51  and  C2_58 
REMARK       I    between atoms: C1_52  and  O3_87 
REMARK       I    between atoms: C6_54  and  C5_86 
REMARK       I    between atoms: O2_59  and  C2_93 
REMARK       I    between atoms: C8_64  and  C7_69 
REMARK       I    between atoms: C6_70  and  C5_80 
REMARK       I    between atoms: C4_72  and  O4_91 
REMARK       I    between atoms: C5_77  and  C6_79 
REMARK       I    between atoms: C3_83  and  O3_87 
ROOT
ATOM      1  C3  NAG d1177      13.358  -7.900   2.542  0.00  0.00     0.093 C 
ATOM      2  O7  NAG d1177      17.117  -7.375   1.747  0.00  0.00    -0.274 OA
ATOM      3  C4  NAG d1177      12.095  -7.097   2.185  0.00  0.00     0.089 C 
ATOM      4  C2  NAG d1177      14.300  -7.963   1.351  0.00  0.00     0.087 C 
ATOM      5  C6  NAG d1177      10.300  -6.711   0.413  0.00  0.00     0.043 C 
ATOM      6  C5  NAG d1177      11.489  -7.571   0.873  0.00  0.00     0.089 C 
ATOM      7  N2  NAG d1177      15.404  -8.916   1.569  0.00  0.00    -0.349 N 
ATOM      8  O4  NAG d1177      11.131  -7.201   3.215  0.00  0.00    -0.390 OA
ATOM      9  C7  NAG d1177      16.679  -8.570   1.758  0.00  0.00     0.214 C 
ATOM     10  O5  NAG d1177      12.474  -7.548  -0.153  0.00  0.00    -0.349 OA
ATOM     11  C8  NAG d1177      17.576  -9.770   1.928  0.00  0.00    -0.003 C 
ATOM     12  C1  NAG d1177      13.558  -8.412   0.094  0.00  0.00     0.154 C 
ATOM     13  O6  NAG d1177      10.708  -5.379   0.153  0.00  0.00    -0.398 OA
ATOM     14  O3  NAG d1177      14.049  -7.252   3.575  0.00  0.00    -0.348 OA
ATOM     15  H   NAG d1177      13.053  -8.884   2.833  0.00  0.00     0.091 H 
ATOM     16  H   NAG d1177      12.388  -6.074   2.074  0.00  0.00     0.091 H 
ATOM     17  H   NAG d1177      14.693  -6.974   1.233  0.00  0.00     0.084 H 
ATOM     18  H   NAG d1177       9.554  -6.705   1.180  0.00  0.00     0.078 H 
ATOM     19  H   NAG d1177       9.906  -7.129  -0.489  0.00  0.00     0.078 H 
ATOM     20  H   NAG d1177      11.132  -8.564   1.050  0.00  0.00     0.090 H 
ATOM     21  H   NAG d1177      15.184  -9.876   1.575  0.00  0.00     0.163 HD
ATOM     22  H   NAG d1177      10.865  -8.128   3.316  0.00  0.00     0.210 HD
ATOM     23  H   NAG d1177      18.584  -9.443   2.076  0.00  0.00     0.040 H 
ATOM     24  H   NAG d1177      17.524 -10.380   1.051  0.00  0.00     0.040 H 
ATOM     25  H   NAG d1177      17.256 -10.337   2.777  0.00  0.00     0.040 H 
ATOM     26  H   NAG d1177      13.172  -9.400   0.232  0.00  0.00     0.132 H 
ATOM     27  H   NAG d1177      11.068  -4.986   0.964  0.00  0.00     0.209 HD
ATOM     28  O6A BDP d1178      11.084  -8.655   7.061  0.00  0.00    -0.646 OA
ATOM     29  O4  BDP d1178      14.715  -9.808   8.334  0.00  0.00    -0.348 OA
ATOM     30  O3  BDP d1178      16.248  -7.481   7.754  0.00  0.00    -0.390 OA
ATOM     31  C1  BDP d1178      14.299  -8.113   4.696  0.00  0.00     0.160 C 
ATOM     32  C4  BDP d1178      14.283  -8.793   7.459  0.00  0.00     0.103 C 
ATOM     33  C2  BDP d1178      15.212  -7.357   5.638  0.00  0.00     0.110 C 
ATOM     34  O2  BDP d1178      16.392  -6.976   4.978  0.00  0.00    -0.388 OA
ATOM     35  O6B BDP d1178      11.717 -10.705   7.676  0.00  0.00    -0.646 OA
ATOM     36  O5  BDP d1178      13.107  -8.442   5.386  0.00  0.00    -0.340 OA
ATOM     37  C6  BDP d1178      11.927  -9.594   7.114  0.00  0.00     0.206 C 
ATOM     38  C5  BDP d1178      13.290  -9.351   6.452  0.00  0.00     0.152 C 
ATOM     39  C3  BDP d1178      15.564  -8.258   6.787  0.00  0.00     0.092 C 
ATOM     40  H   BDP d1178      16.487  -8.042   8.509  0.00  0.00     0.210 HD
ATOM     41  H   BDP d1178      14.734  -9.026   4.349  0.00  0.00     0.133 H 
ATOM     42  H   BDP d1178      13.768  -8.004   7.965  0.00  0.00     0.092 H 
ATOM     43  H   BDP d1178      14.712  -6.477   5.985  0.00  0.00     0.094 H 
ATOM     44  H   BDP d1178      16.854  -7.768   4.658  0.00  0.00     0.210 HD
ATOM     45  H   BDP d1178      13.685 -10.275   6.085  0.00  0.00     0.104 H 
ATOM     46  H   BDP d1178      16.156  -9.074   6.428  0.00  0.00     0.091 H 
ATOM     47  O1  NAG d1175      15.168 -12.201 -10.486  0.00  0.00    -0.369 OA
ATOM     48  O3  NAG d1175      14.302 -10.705  -6.134  0.00  0.00    -0.348 OA
ATOM     49  O6  NAG d1175      18.059 -15.264  -7.771  0.00  0.00    -0.398 OA
ATOM     50  C7  NAG d1175      13.029  -9.633  -8.730  0.00  0.00     0.214 C 
ATOM     51  O4  NAG d1175      16.453 -12.554  -5.172  0.00  0.00    -0.390 OA
ATOM     52  N2  NAG d1175      14.219 -10.213  -8.929  0.00  0.00    -0.349 N 
ATOM     53  C6  NAG d1175      16.990 -14.771  -7.009  0.00  0.00     0.043 C 
ATOM     54  C2  NAG d1175      14.682 -11.463  -8.304  0.00  0.00     0.087 C 
ATOM     55  C8  NAG d1175      11.905 -10.457  -8.190  0.00  0.00    -0.003 C 
ATOM     56  O7  NAG d1175      12.839  -8.433  -8.983  0.00  0.00    -0.274 OA
ATOM     57  C3  NAG d1175      15.322 -11.264  -6.939  0.00  0.00     0.093 C 
ATOM     58  C4  NAG d1175      15.795 -12.636  -6.437  0.00  0.00     0.089 C 
ATOM     59  C1  NAG d1175      15.725 -12.105  -9.206  0.00  0.00     0.151 C 
ATOM     60  C5  NAG d1175      16.675 -13.355  -7.467  0.00  0.00     0.089 C 
ATOM     61  O5  NAG d1175      16.057 -13.406  -8.739  0.00  0.00    -0.349 OA
ATOM     62  H   NAG d1175      14.941 -11.314 -10.807  0.00  0.00     0.212 HD
ATOM     63  H   NAG d1175      18.268 -16.167  -7.487  0.00  0.00     0.209 HD
ATOM     64  H   NAG d1175      15.878 -12.096  -4.538  0.00  0.00     0.210 HD
ATOM     65  H   NAG d1175      14.839  -9.765  -9.548  0.00  0.00     0.163 HD
ATOM     66  H   NAG d1175      17.259 -14.763  -5.974  0.00  0.00     0.078 H 
ATOM     67  H   NAG d1175      16.130 -15.395  -7.141  0.00  0.00     0.078 H 
ATOM     68  H   NAG d1175      13.813 -12.073  -8.172  0.00  0.00     0.084 H 
ATOM     69  H   NAG d1175      12.242 -11.460  -8.031  0.00  0.00     0.040 H 
ATOM     70  H   NAG d1175      11.096 -10.460  -8.891  0.00  0.00     0.040 H 
ATOM     71  H   NAG d1175      11.571 -10.041  -7.262  0.00  0.00     0.040 H 
ATOM     72  H   NAG d1175      16.176 -10.620  -6.937  0.00  0.00     0.091 H 
ATOM     73  H   NAG d1175      14.911 -13.223  -6.300  0.00  0.00     0.091 H 
ATOM     74  H   NAG d1175      16.618 -11.516  -9.212  0.00  0.00     0.132 H 
ATOM     75  H   NAG d1175      17.581 -12.793  -7.549  0.00  0.00     0.090 H 
ATOM     76  C2  NAG d1181      10.045 -17.226  16.699  0.00  0.00     0.087 C 
ATOM     77  C8  NAG d1181       7.214 -17.035  15.930  0.00  0.00    -0.003 C 
ATOM     78  O5  NAG d1181      12.328 -17.767  15.992  0.00  0.00    -0.349 OA
ATOM     79  O4  NAG d1181      11.175 -20.301  18.397  0.00  0.00    -0.390 OA
ATOM     80  C3  NAG d1181      10.205 -18.162  17.886  0.00  0.00     0.086 C 
ATOM     81  C1  NAG d1181      11.399 -16.714  16.202  0.00  0.00     0.154 C 
ATOM     82  N2  NAG d1181       9.185 -16.104  17.034  0.00  0.00    -0.349 N 
ATOM     83  C4  NAG d1181      11.107 -19.295  17.411  0.00  0.00     0.089 C 
ATOM     84  O6  NAG d1181      13.703 -19.979  15.441  0.00  0.00    -0.398 OA
ATOM     85  O3  NAG d1181       8.953 -18.631  18.360  0.00  0.00    -0.391 OA
ATOM     86  C5  NAG d1181      12.475 -18.667  17.088  0.00  0.00     0.089 C 
ATOM     87  O7  NAG d1181       7.599 -14.723  16.222  0.00  0.00    -0.274 OA
ATOM     88  C7  NAG d1181       8.023 -15.862  16.407  0.00  0.00     0.214 C 
ATOM     89  C6  NAG d1181      13.595 -19.682  16.818  0.00  0.00     0.043 C 
ATOM     90  H   NAG d1181       9.589 -17.790  15.913  0.00  0.00     0.084 H 
ATOM     91  H   NAG d1181       7.726 -17.943  16.171  0.00  0.00     0.040 H 
ATOM     92  H   NAG d1181       7.082 -16.970  14.870  0.00  0.00     0.040 H 
ATOM     93  H   NAG d1181       6.257 -17.027  16.409  0.00  0.00     0.040 H 
ATOM     94  H   NAG d1181      10.288 -20.657  18.557  0.00  0.00     0.210 HD
ATOM     95  H   NAG d1181      10.641 -17.657  18.722  0.00  0.00     0.090 H 
ATOM     96  H   NAG d1181      11.875 -16.078  16.919  0.00  0.00     0.132 H 
ATOM     97  H   NAG d1181       9.468 -15.493  17.752  0.00  0.00     0.163 HD
ATOM     98  H   NAG d1181      10.729 -19.774  16.533  0.00  0.00     0.091 H 
ATOM     99  H   NAG d1181      14.417 -20.621  15.304  0.00  0.00     0.209 HD
ATOM    100  H   NAG d1181       8.496 -19.105  17.648  0.00  0.00     0.210 HD
ATOM    101  H   NAG d1181      12.788 -18.143  17.967  0.00  0.00     0.090 H 
ATOM    102  H   NAG d1181      14.523 -19.275  17.160  0.00  0.00     0.078 H 
ATOM    103  H   NAG d1181      13.360 -20.587  17.339  0.00  0.00     0.078 H 
ATOM    104  C4  NAG d1179      14.667 -10.443  12.451  0.00  0.00     0.089 C 
ATOM    105  N2  NAG d1179      13.579 -12.122   9.200  0.00  0.00    -0.349 N 
ATOM    106  C6  NAG d1179      15.320  -8.001  12.596  0.00  0.00     0.043 C 
ATOM    107  O4  NAG d1179      14.117 -10.464  13.764  0.00  0.00    -0.390 OA
ATOM    108  O6  NAG d1179      16.702  -8.225  12.402  0.00  0.00    -0.398 OA
ATOM    109  C1  NAG d1179      14.193  -9.823   9.666  0.00  0.00     0.154 C 
ATOM    110  C5  NAG d1179      14.513  -9.049  11.848  0.00  0.00     0.089 C 
ATOM    111  O5  NAG d1179      14.983  -9.043  10.512  0.00  0.00    -0.349 OA
ATOM    112  C2  NAG d1179      14.335 -11.276  10.106  0.00  0.00     0.087 C 
ATOM    113  C8  NAG d1179      13.255 -13.917   7.658  0.00  0.00    -0.003 C 
ATOM    114  C7  NAG d1179      14.090 -13.242   8.693  0.00  0.00     0.214 C 
ATOM    115  C3  NAG d1179      13.941 -11.461  11.581  0.00  0.00     0.093 C 
ATOM    116  O3  NAG d1179      14.295 -12.765  12.017  0.00  0.00    -0.348 OA
ATOM    117  O7  NAG d1179      15.165 -13.721   9.041  0.00  0.00    -0.274 OA
ATOM    118  H   NAG d1179      15.708 -10.691  12.497  0.00  0.00     0.091 H 
ATOM    119  H   NAG d1179      12.663 -11.860   8.954  0.00  0.00     0.163 HD
ATOM    120  H   NAG d1179      15.095  -8.059  13.640  0.00  0.00     0.078 H 
ATOM    121  H   NAG d1179      15.066  -7.030  12.224  0.00  0.00     0.078 H 
ATOM    122  H   NAG d1179      13.175 -10.240  13.724  0.00  0.00     0.210 HD
ATOM    123  H   NAG d1179      16.937  -9.104  12.738  0.00  0.00     0.209 HD
ATOM    124  H   NAG d1179      13.192  -9.448   9.702  0.00  0.00     0.132 H 
ATOM    125  H   NAG d1179      13.472  -8.812  11.909  0.00  0.00     0.090 H 
ATOM    126  H   NAG d1179      15.363 -11.570  10.052  0.00  0.00     0.084 H 
ATOM    127  H   NAG d1179      12.362 -13.349   7.494  0.00  0.00     0.040 H 
ATOM    128  H   NAG d1179      12.995 -14.899   7.995  0.00  0.00     0.040 H 
ATOM    129  H   NAG d1179      13.806 -13.987   6.744  0.00  0.00     0.040 H 
ATOM    130  H   NAG d1179      12.884 -11.321  11.667  0.00  0.00     0.091 H 
ATOM    131  O5  BDP d1180      12.803 -13.102  13.743  0.00  0.00    -0.340 OA
ATOM    132  O6A BDP d1180      10.114 -12.886  15.729  0.00  0.00    -0.646 OA
ATOM    133  O2  BDP d1180      13.628 -15.425  11.081  0.00  0.00    -0.388 OA
ATOM    134  O3  BDP d1180      13.231 -17.148  13.432  0.00  0.00    -0.390 OA
ATOM    135  C5  BDP d1180      11.737 -13.842  14.295  0.00  0.00     0.152 C 
ATOM    136  C2  BDP d1180      13.571 -15.000  12.426  0.00  0.00     0.110 C 
ATOM    137  C3  BDP d1180      12.596 -15.910  13.168  0.00  0.00     0.092 C 
ATOM    138  C6  BDP d1180      11.323 -13.176  15.598  0.00  0.00     0.206 C 
ATOM    139  C1  BDP d1180      13.160 -13.528  12.451  0.00  0.00     0.160 C 
ATOM    140  C4  BDP d1180      12.170 -15.287  14.487  0.00  0.00     0.103 C 
ATOM    141  O6B BDP d1180      12.221 -12.940  16.448  0.00  0.00    -0.646 OA
ATOM    142  O4  BDP d1180      11.085 -16.026  14.980  0.00  0.00    -0.348 OA
ATOM    143  H   BDP d1180      14.244 -14.859  10.589  0.00  0.00     0.210 HD
ATOM    144  H   BDP d1180      13.508 -17.554  12.596  0.00  0.00     0.210 HD
ATOM    145  H   BDP d1180      10.889 -13.856  13.642  0.00  0.00     0.104 H 
ATOM    146  H   BDP d1180      14.518 -15.072  12.919  0.00  0.00     0.094 H 
ATOM    147  H   BDP d1180      11.728 -16.051  12.557  0.00  0.00     0.091 H 
ATOM    148  H   BDP d1180      12.309 -13.392  11.816  0.00  0.00     0.133 H 
ATOM    149  H   BDP d1180      12.994 -15.302  15.169  0.00  0.00     0.092 H 
ATOM    150  C3  BDP d1176      13.789  -8.160  -3.375  0.00  0.00     0.092 C 
ATOM    151  O4  BDP d1176      14.467  -8.432  -1.017  0.00  0.00    -0.348 OA
ATOM    152  O3  BDP d1176      12.629  -7.378  -3.117  0.00  0.00    -0.390 OA
ATOM    153  O5  BDP d1176      14.961 -10.717  -3.890  0.00  0.00    -0.340 OA
ATOM    154  O2  BDP d1176      13.488  -7.994  -5.758  0.00  0.00    -0.388 OA
ATOM    155  C1  BDP d1176      14.721  -9.895  -5.013  0.00  0.00     0.160 C 
ATOM    156  O6B BDP d1176      16.595 -11.164  -1.087  0.00  0.00    -0.646 OA
ATOM    157  C5  BDP d1176      15.248 -10.028  -2.669  0.00  0.00     0.152 C 
ATOM    158  O6A BDP d1176      14.564 -11.985  -1.486  0.00  0.00    -0.646 OA
ATOM    159  C6  BDP d1176      15.476 -11.135  -1.667  0.00  0.00     0.206 C 
ATOM    160  C4  BDP d1176      14.110  -9.111  -2.210  0.00  0.00     0.103 C 
ATOM    161  C2  BDP d1176      13.585  -8.922  -4.691  0.00  0.00     0.110 C 
ATOM    162  H   BDP d1176      14.635  -7.512  -3.468  0.00  0.00     0.091 H 
ATOM    163  H   BDP d1176      11.858  -7.961  -3.032  0.00  0.00     0.210 HD
ATOM    164  H   BDP d1176      12.773  -7.365  -5.576  0.00  0.00     0.210 HD
ATOM    165  H   BDP d1176      15.621  -9.367  -5.252  0.00  0.00     0.133 H 
ATOM    166  H   BDP d1176      16.087  -9.374  -2.785  0.00  0.00     0.104 H 
ATOM    167  H   BDP d1176      13.230  -9.670  -1.969  0.00  0.00     0.092 H 
ATOM    168  H   BDP d1176      12.689  -9.494  -4.574  0.00  0.00     0.094 H 
ENDROOT
TORSDOF 43
ENDMDL
MODEL 67
REMARK VINA RESULT:      -1.1      4.940     18.426
REMARK  0 active torsions:
REMARK  status: ('A' for Active; 'I' for Inactive)
REMARK       I    between atoms: C3_1  and  O3_90 
REMARK       I    between atoms: O1_4  and  C1_76 
REMARK       I    between atoms: C2_5  and  N2_21 
REMARK       I    between atoms: C8_6  and  C7_66 
REMARK       I    between atoms: C4_7  and  O4_24 
REMARK       I    between atoms: N2_9  and  C2_60 
REMARK       I    between atoms: N2_9  and  C7_69 
REMARK       I    between atoms: O4_12  and  C4_26 
REMARK       I    between atoms: O3_13  and  C3_65 
REMARK       I    between atoms: O3_13  and  C1_61 
REMARK       I    between atoms: C3_14  and  O3_35 
REMARK       I    between atoms: C6_15  and  C5_53 
REMARK       I    between atoms: C6_15  and  O6_46 
REMARK       I    between atoms: O6_16  and  C6_54 
REMARK       I    between atoms: C4_17  and  O4_49 
REMARK       I    between atoms: O4_18  and  C4_28 
REMARK       I    between atoms: O4_18  and  C1_47 
REMARK       I    between atoms: C3_19  and  O3_43 
REMARK       I    between atoms: C1_20  and  O4_91 
REMARK       I    between atoms: N2_21  and  C7_66 
REMARK       I    between atoms: O3_22  and  C3_82 
REMARK       I    between atoms: C7_23  and  C8_62 
REMARK       I    between atoms: C7_23  and  N2_51 
REMARK       I    between atoms: C2_25  and  N2_41 
REMARK       I    between atoms: C1_27  and  O3_90 
REMARK       I    between atoms: O6_29  and  C6_74 
REMARK       I    between atoms: O2_30  and  C2_37 
REMARK       I    between atoms: C2_31  and  O2_42 
REMARK       I    between atoms: O3_32  and  C3_45 
REMARK       I    between atoms: O4_33  and  C4_73 
REMARK       I    between atoms: O4_34  and  C4_84 
REMARK       I    between atoms: O4_34  and  C1_85 
REMARK       I    between atoms: C5_36  and  C6_48 
REMARK       I    between atoms: C6_38  and  C5_40 
REMARK       I    between atoms: C6_38  and  O6_89 
REMARK       I    between atoms: N2_41  and  C7_50 
REMARK       I    between atoms: C5_44  and  C6_74 
REMARK       I    between atoms: C7_50  and  C8_75 
REMARK       I    between atoms: N2_51  and  C2_58 
REMARK       I    between atoms: C1_52  and  O3_87 
REMARK       I    between atoms: C6_54  and  C5_86 
REMARK       I    between atoms: O2_59  and  C2_93 
REMARK       I    between atoms: C8_64  and  C7_69 
REMARK       I    between atoms: C6_70  and  C5_80 
REMARK       I    between atoms: C4_72  and  O4_91 
REMARK       I    between atoms: C5_77  and  C6_79 
REMARK       I    between atoms: C3_83  and  O3_87 
ROOT
ATOM      1  C3  NAG d1177       9.882 -11.235   1.285  0.00  0.00     0.093 C 
ATOM      2  O7  NAG d1177      12.843 -10.546  -1.122  0.00  0.00    -0.274 OA
ATOM      3  C4  NAG d1177       8.364 -11.017   1.158  0.00  0.00     0.089 C 
ATOM      4  C2  NAG d1177      10.451 -11.769  -0.019  0.00  0.00     0.087 C 
ATOM      5  C6  NAG d1177       6.176 -12.022   0.312  0.00  0.00     0.043 C 
ATOM      6  C5  NAG d1177       7.675 -12.242   0.577  0.00  0.00     0.089 C 
ATOM      7  N2  NAG d1177      11.848 -12.215   0.129  0.00  0.00    -0.349 N 
ATOM      8  O4  NAG d1177       7.798 -10.711   2.417  0.00  0.00    -0.390 OA
ATOM      9  C7  NAG d1177      12.905 -11.591  -0.398  0.00  0.00     0.214 C 
ATOM     10  O5  NAG d1177       8.291 -12.608  -0.652  0.00  0.00    -0.349 OA
ATOM     11  C8  NAG d1177      14.198 -12.302  -0.092  0.00  0.00    -0.003 C 
ATOM     12  C1  NAG d1177       9.645 -12.969  -0.513  0.00  0.00     0.154 C 
ATOM     13  O6  NAG d1177       5.975 -11.010  -0.659  0.00  0.00    -0.398 OA
ATOM     14  O3  NAG d1177      10.512 -10.007   1.532  0.00  0.00    -0.348 OA
ATOM     15  H   NAG d1177      10.051 -11.928   2.082  0.00  0.00     0.091 H 
ATOM     16  H   NAG d1177       8.213 -10.194   0.491  0.00  0.00     0.091 H 
ATOM     17  H   NAG d1177      10.401 -10.959  -0.717  0.00  0.00     0.084 H 
ATOM     18  H   NAG d1177       5.699 -11.732   1.224  0.00  0.00     0.078 H 
ATOM     19  H   NAG d1177       5.757 -12.935  -0.056  0.00  0.00     0.078 H 
ATOM     20  H   NAG d1177       7.773 -13.016   1.308  0.00  0.00     0.090 H 
ATOM     21  H   NAG d1177      12.014 -13.032   0.654  0.00  0.00     0.163 HD
ATOM     22  H   NAG d1177       7.933 -11.456   3.023  0.00  0.00     0.210 HD
ATOM     23  H   NAG d1177      15.012 -11.767  -0.534  0.00  0.00     0.040 H 
ATOM     24  H   NAG d1177      14.163 -13.293  -0.494  0.00  0.00     0.040 H 
ATOM     25  H   NAG d1177      14.336 -12.352   0.968  0.00  0.00     0.040 H 
ATOM     26  H   NAG d1177       9.706 -13.766   0.198  0.00  0.00     0.132 H 
ATOM     27  H   NAG d1177       6.351 -10.174  -0.338  0.00  0.00     0.209 HD
ATOM     28  O6A BDP d1178       9.256  -9.767   6.144  0.00  0.00    -0.646 OA
ATOM     29  O4  BDP d1178      13.248  -9.317   6.186  0.00  0.00    -0.348 OA
ATOM     30  O3  BDP d1178      13.599  -7.465   4.053  0.00  0.00    -0.390 OA
ATOM     31  C1  BDP d1178      11.336 -10.037   2.705  0.00  0.00     0.160 C 
ATOM     32  C4  BDP d1178      12.264  -9.060   5.212  0.00  0.00     0.103 C 
ATOM     33  C2  BDP d1178      12.102  -8.731   2.740  0.00  0.00     0.110 C 
ATOM     34  O2  BDP d1178      12.849  -8.567   1.563  0.00  0.00    -0.388 OA
ATOM     35  O6B BDP d1178      10.745 -10.970   7.293  0.00  0.00    -0.646 OA
ATOM     36  O5  BDP d1178      10.568 -10.145   3.889  0.00  0.00    -0.340 OA
ATOM     37  C6  BDP d1178      10.376 -10.341   6.262  0.00  0.00     0.206 C 
ATOM     38  C5  BDP d1178      11.337 -10.257   5.069  0.00  0.00     0.152 C 
ATOM     39  C3  BDP d1178      13.040  -8.759   3.914  0.00  0.00     0.092 C 
ATOM     40  H   BDP d1178      14.210  -7.457   4.807  0.00  0.00     0.210 HD
ATOM     41  H   BDP d1178      11.982 -10.888   2.661  0.00  0.00     0.133 H 
ATOM     42  H   BDP d1178      11.633  -8.236   5.472  0.00  0.00     0.092 H 
ATOM     43  H   BDP d1178      11.411  -7.919   2.827  0.00  0.00     0.094 H 
ATOM     44  H   BDP d1178      13.479  -9.300   1.475  0.00  0.00     0.210 HD
ATOM     45  H   BDP d1178      11.945 -11.136   5.030  0.00  0.00     0.104 H 
ATOM     46  H   BDP d1178      13.786  -9.509   3.752  0.00  0.00     0.091 H 
ATOM     47  O1  NAG d1175       9.879 -21.606  -7.877  0.00  0.00    -0.369 OA
ATOM     48  O3  NAG d1175       9.625 -18.142  -4.737  0.00  0.00    -0.348 OA
ATOM     49  O6  NAG d1175      14.285 -22.044  -5.530  0.00  0.00    -0.398 OA
ATOM     50  C7  NAG d1175       7.440 -18.949  -6.758  0.00  0.00     0.214 C 
ATOM     51  O4  NAG d1175      12.478 -18.706  -4.024  0.00  0.00    -0.390 OA
ATOM     52  N2  NAG d1175       8.672 -19.308  -7.143  0.00  0.00    -0.349 N 
ATOM     53  C6  NAG d1175      13.334 -21.422  -4.709  0.00  0.00     0.043 C 
ATOM     54  C2  NAG d1175       9.709 -19.888  -6.276  0.00  0.00     0.087 C 
ATOM     55  C8  NAG d1175       6.880 -19.529  -5.499  0.00  0.00    -0.003 C 
ATOM     56  O7  NAG d1175       6.757 -18.152  -7.420  0.00  0.00    -0.274 OA
ATOM     57  C3  NAG d1175      10.545 -18.851  -5.542  0.00  0.00     0.093 C 
ATOM     58  C4  NAG d1175      11.607 -19.597  -4.723  0.00  0.00     0.089 C 
ATOM     59  C1  NAG d1175      10.659 -20.715  -7.132  0.00  0.00     0.151 C 
ATOM     60  C5  NAG d1175      12.407 -20.586  -5.578  0.00  0.00     0.089 C 
ATOM     61  O5  NAG d1175      11.559 -21.448  -6.314  0.00  0.00    -0.349 OA
ATOM     62  H   NAG d1175       9.263 -21.107  -8.437  0.00  0.00     0.212 HD
ATOM     63  H   NAG d1175      14.881 -22.581  -4.986  0.00  0.00     0.209 HD
ATOM     64  H   NAG d1175      11.950 -18.090  -3.490  0.00  0.00     0.210 HD
ATOM     65  H   NAG d1175       8.903 -19.171  -8.090  0.00  0.00     0.163 HD
ATOM     66  H   NAG d1175      13.829 -20.792  -4.000  0.00  0.00     0.078 H 
ATOM     67  H   NAG d1175      12.768 -22.162  -4.181  0.00  0.00     0.078 H 
ATOM     68  H   NAG d1175       9.195 -20.473  -5.542  0.00  0.00     0.084 H 
ATOM     69  H   NAG d1175       7.598 -20.191  -5.061  0.00  0.00     0.040 H 
ATOM     70  H   NAG d1175       5.985 -20.071  -5.724  0.00  0.00     0.040 H 
ATOM     71  H   NAG d1175       6.656 -18.740  -4.812  0.00  0.00     0.040 H 
ATOM     72  H   NAG d1175      11.066 -18.168  -6.180  0.00  0.00     0.091 H 
ATOM     73  H   NAG d1175      11.072 -20.162  -3.988  0.00  0.00     0.091 H 
ATOM     74  H   NAG d1175      11.233 -20.073  -7.767  0.00  0.00     0.132 H 
ATOM     75  H   NAG d1175      12.985 -20.007  -6.267  0.00  0.00     0.090 H 
ATOM     76  C2  NAG d1181      13.941 -11.570  18.071  0.00  0.00     0.087 C 
ATOM     77  C8  NAG d1181      11.150 -12.371  18.534  0.00  0.00    -0.003 C 
ATOM     78  O5  NAG d1181      16.007 -11.974  16.817  0.00  0.00    -0.349 OA
ATOM     79  O4  NAG d1181      16.527 -12.912  20.336  0.00  0.00    -0.390 OA
ATOM     80  C3  NAG d1181      14.730 -11.641  19.368  0.00  0.00     0.086 C 
ATOM     81  C1  NAG d1181      14.834 -11.177  16.892  0.00  0.00     0.154 C 
ATOM     82  N2  NAG d1181      12.835 -10.635  18.185  0.00  0.00    -0.349 N 
ATOM     83  C4  NAG d1181      15.843 -12.654  19.129  0.00  0.00     0.089 C 
ATOM     84  O6  NAG d1181      17.929 -13.816  16.808  0.00  0.00    -0.398 OA
ATOM     85  O3  NAG d1181      13.906 -11.993  20.468  0.00  0.00    -0.391 OA
ATOM     86  C5  NAG d1181      16.748 -12.068  18.031  0.00  0.00     0.089 C 
ATOM     87  O7  NAG d1181      10.699 -10.261  17.571  0.00  0.00    -0.274 OA
ATOM     88  C7  NAG d1181      11.551 -11.003  18.055  0.00  0.00     0.214 C 
ATOM     89  C6  NAG d1181      18.063 -12.832  17.813  0.00  0.00     0.043 C 
ATOM     90  H   NAG d1181      13.551 -12.548  17.885  0.00  0.00     0.084 H 
ATOM     91  H   NAG d1181      12.009 -12.878  18.923  0.00  0.00     0.040 H 
ATOM     92  H   NAG d1181      10.745 -12.931  17.717  0.00  0.00     0.040 H 
ATOM     93  H   NAG d1181      10.412 -12.277  19.303  0.00  0.00     0.040 H 
ATOM     94  H   NAG d1181      15.908 -13.277  20.987  0.00  0.00     0.210 HD
ATOM     95  H   NAG d1181      15.137 -10.686  19.627  0.00  0.00     0.090 H 
ATOM     96  H   NAG d1181      15.199 -10.175  16.981  0.00  0.00     0.132 H 
ATOM     97  H   NAG d1181      13.036  -9.688  18.367  0.00  0.00     0.163 HD
ATOM     98  H   NAG d1181      15.468 -13.601  18.802  0.00  0.00     0.091 H 
ATOM     99  H   NAG d1181      18.773 -14.279  16.695  0.00  0.00     0.209 HD
ATOM    100  H   NAG d1181      13.499 -12.857  20.302  0.00  0.00     0.210 HD
ATOM    101  H   NAG d1181      17.050 -11.098  18.365  0.00  0.00     0.090 H 
ATOM    102  H   NAG d1181      18.823 -12.139  17.522  0.00  0.00     0.078 H 
ATOM    103  H   NAG d1181      18.322 -13.321  18.729  0.00  0.00     0.078 H 
ATOM    104  C4  NAG d1179      14.466  -7.559   9.760  0.00  0.00     0.089 C 
ATOM    105  N2  NAG d1179      13.318 -10.926   8.377  0.00  0.00    -0.349 N 
ATOM    106  C6  NAG d1179      14.168  -5.376   8.513  0.00  0.00     0.043 C 
ATOM    107  O4  NAG d1179      14.309  -6.951  11.039  0.00  0.00    -0.390 OA
ATOM    108  O6  NAG d1179      15.438  -5.407   7.893  0.00  0.00    -0.398 OA
ATOM    109  C1  NAG d1179      13.118  -8.689   7.464  0.00  0.00     0.154 C 
ATOM    110  C5  NAG d1179      13.655  -6.791   8.719  0.00  0.00     0.089 C 
ATOM    111  O5  NAG d1179      13.740  -7.439   7.463  0.00  0.00    -0.349 OA
ATOM    112  C2  NAG d1179      13.900  -9.596   8.407  0.00  0.00     0.087 C 
ATOM    113  C8  NAG d1179      13.320 -13.297   8.090  0.00  0.00    -0.003 C 
ATOM    114  C7  NAG d1179      14.069 -12.020   8.267  0.00  0.00     0.214 C 
ATOM    115  C3  NAG d1179      13.984  -9.003   9.824  0.00  0.00     0.093 C 
ATOM    116  O3  NAG d1179      14.898  -9.752  10.610  0.00  0.00    -0.348 OA
ATOM    117  O7  NAG d1179      15.295 -12.015   8.318  0.00  0.00    -0.274 OA
ATOM    118  H   NAG d1179      15.500  -7.540   9.482  0.00  0.00     0.091 H 
ATOM    119  H   NAG d1179      12.340 -11.021   8.439  0.00  0.00     0.163 HD
ATOM    120  H   NAG d1179      14.248  -4.886   9.461  0.00  0.00     0.078 H 
ATOM    121  H   NAG d1179      13.484  -4.843   7.887  0.00  0.00     0.078 H 
ATOM    122  H   NAG d1179      13.373  -6.967  11.292  0.00  0.00     0.210 HD
ATOM    123  H   NAG d1179      16.061  -5.890   8.459  0.00  0.00     0.209 HD
ATOM    124  H   NAG d1179      12.092  -8.552   7.735  0.00  0.00     0.132 H 
ATOM    125  H   NAG d1179      12.651  -6.760   9.088  0.00  0.00     0.090 H 
ATOM    126  H   NAG d1179      14.915  -9.673   8.076  0.00  0.00     0.084 H 
ATOM    127  H   NAG d1179      12.269 -13.095   8.070  0.00  0.00     0.040 H 
ATOM    128  H   NAG d1179      13.540 -13.956   8.904  0.00  0.00     0.040 H 
ATOM    129  H   NAG d1179      13.611 -13.758   7.170  0.00  0.00     0.040 H 
ATOM    130  H   NAG d1179      13.009  -9.039  10.262  0.00  0.00     0.091 H 
ATOM    131  O5  BDP d1180      14.120  -9.348  12.743  0.00  0.00    -0.340 OA
ATOM    132  O6A BDP d1180      12.132  -8.575  15.325  0.00  0.00    -0.646 OA
ATOM    133  O2  BDP d1180      15.069 -12.553  11.333  0.00  0.00    -0.388 OA
ATOM    134  O3  BDP d1180      15.945 -12.722  14.136  0.00  0.00    -0.390 OA
ATOM    135  C5  BDP d1180      13.584  -9.842  13.950  0.00  0.00     0.152 C 
ATOM    136  C2  BDP d1180      15.192 -11.474  12.234  0.00  0.00     0.110 C 
ATOM    137  C3  BDP d1180      14.848 -11.983  13.631  0.00  0.00     0.092 C 
ATOM    138  C6  BDP d1180      13.287  -8.657  14.856  0.00  0.00     0.206 C 
ATOM    139  C1  BDP d1180      14.279 -10.343  11.761  0.00  0.00     0.160 C 
ATOM    140  C4  BDP d1180      14.561 -10.826  14.574  0.00  0.00     0.103 C 
ATOM    141  O6B BDP d1180      14.211  -7.826  15.058  0.00  0.00    -0.646 OA
ATOM    142  O4  BDP d1180      13.992 -11.355  15.741  0.00  0.00    -0.348 OA
ATOM    143  H   BDP d1180      15.284 -12.252  10.436  0.00  0.00     0.210 HD
ATOM    144  H   BDP d1180      16.137 -13.463  13.540  0.00  0.00     0.210 HD
ATOM    145  H   BDP d1180      12.670 -10.374  13.785  0.00  0.00     0.104 H 
ATOM    146  H   BDP d1180      16.188 -11.082  12.270  0.00  0.00     0.094 H 
ATOM    147  H   BDP d1180      13.975 -12.598  13.564  0.00  0.00     0.091 H 
ATOM    148  H   BDP d1180      13.311 -10.743  11.544  0.00  0.00     0.133 H 
ATOM    149  H   BDP d1180      15.472 -10.306  14.784  0.00  0.00     0.092 H 
ATOM    150  C3  BDP d1176       8.895 -14.645  -3.476  0.00  0.00     0.092 C 
ATOM    151  O4  BDP d1176      10.188 -13.431  -1.758  0.00  0.00    -0.348 OA
ATOM    152  O3  BDP d1176       7.629 -14.084  -3.147  0.00  0.00    -0.390 OA
ATOM    153  O5  BDP d1176      10.775 -16.785  -3.218  0.00  0.00    -0.340 OA
ATOM    154  O2  BDP d1176       7.972 -15.887  -5.320  0.00  0.00    -0.388 OA
ATOM    155  C1  BDP d1176       9.972 -16.785  -4.380  0.00  0.00     0.160 C 
ATOM    156  O6B BDP d1176      13.097 -15.288  -1.460  0.00  0.00    -0.646 OA
ATOM    157  C5  BDP d1176      11.074 -15.495  -2.675  0.00  0.00     0.152 C 
ATOM    158  O6A BDP d1176      11.493 -16.555  -0.577  0.00  0.00    -0.646 OA
ATOM    159  C6  BDP d1176      11.943 -15.795  -1.475  0.00  0.00     0.206 C 
ATOM    160  C4  BDP d1176       9.828 -14.710  -2.256  0.00  0.00     0.103 C 
ATOM    161  C2  BDP d1176       8.673 -16.030  -4.096  0.00  0.00     0.110 C 
ATOM    162  H   BDP d1176       9.384 -14.012  -4.187  0.00  0.00     0.091 H 
ATOM    163  H   BDP d1176       7.181 -14.654  -2.502  0.00  0.00     0.210 HD
ATOM    164  H   BDP d1176       7.143 -15.410  -5.165  0.00  0.00     0.210 HD
ATOM    165  H   BDP d1176      10.518 -16.322  -5.176  0.00  0.00     0.133 H 
ATOM    166  H   BDP d1176      11.550 -14.873  -3.404  0.00  0.00     0.104 H 
ATOM    167  H   BDP d1176       9.312 -15.194  -1.453  0.00  0.00     0.092 H 
ATOM    168  H   BDP d1176       8.116 -16.597  -3.379  0.00  0.00     0.094 H 
ENDROOT
TORSDOF 43
ENDMDL
MODEL 68
REMARK VINA RESULT:      -0.5      5.455      9.354
REMARK  0 active torsions:
REMARK  status: ('A' for Active; 'I' for Inactive)
REMARK       I    between atoms: C3_1  and  O3_90 
REMARK       I    between atoms: O1_4  and  C1_76 
REMARK       I    between atoms: C2_5  and  N2_21 
REMARK       I    between atoms: C8_6  and  C7_66 
REMARK       I    between atoms: C4_7  and  O4_24 
REMARK       I    between atoms: N2_9  and  C2_60 
REMARK       I    between atoms: N2_9  and  C7_69 
REMARK       I    between atoms: O4_12  and  C4_26 
REMARK       I    between atoms: O3_13  and  C3_65 
REMARK       I    between atoms: O3_13  and  C1_61 
REMARK       I    between atoms: C3_14  and  O3_35 
REMARK       I    between atoms: C6_15  and  C5_53 
REMARK       I    between atoms: C6_15  and  O6_46 
REMARK       I    between atoms: O6_16  and  C6_54 
REMARK       I    between atoms: C4_17  and  O4_49 
REMARK       I    between atoms: O4_18  and  C4_28 
REMARK       I    between atoms: O4_18  and  C1_47 
REMARK       I    between atoms: C3_19  and  O3_43 
REMARK       I    between atoms: C1_20  and  O4_91 
REMARK       I    between atoms: N2_21  and  C7_66 
REMARK       I    between atoms: O3_22  and  C3_82 
REMARK       I    between atoms: C7_23  and  C8_62 
REMARK       I    between atoms: C7_23  and  N2_51 
REMARK       I    between atoms: C2_25  and  N2_41 
REMARK       I    between atoms: C1_27  and  O3_90 
REMARK       I    between atoms: O6_29  and  C6_74 
REMARK       I    between atoms: O2_30  and  C2_37 
REMARK       I    between atoms: C2_31  and  O2_42 
REMARK       I    between atoms: O3_32  and  C3_45 
REMARK       I    between atoms: O4_33  and  C4_73 
REMARK       I    between atoms: O4_34  and  C4_84 
REMARK       I    between atoms: O4_34  and  C1_85 
REMARK       I    between atoms: C5_36  and  C6_48 
REMARK       I    between atoms: C6_38  and  C5_40 
REMARK       I    between atoms: C6_38  and  O6_89 
REMARK       I    between atoms: N2_41  and  C7_50 
REMARK       I    between atoms: C5_44  and  C6_74 
REMARK       I    between atoms: C7_50  and  C8_75 
REMARK       I    between atoms: N2_51  and  C2_58 
REMARK       I    between atoms: C1_52  and  O3_87 
REMARK       I    between atoms: C6_54  and  C5_86 
REMARK       I    between atoms: O2_59  and  C2_93 
REMARK       I    between atoms: C8_64  and  C7_69 
REMARK       I    between atoms: C6_70  and  C5_80 
REMARK       I    between atoms: C4_72  and  O4_91 
REMARK       I    between atoms: C5_77  and  C6_79 
REMARK       I    between atoms: C3_83  and  O3_87 
ROOT
ATOM      1  C3  NAG d1177      13.326 -14.706   2.711  0.00  0.00     0.093 C 
ATOM      2  O7  NAG d1177      14.007 -10.888   2.692  0.00  0.00    -0.274 OA
ATOM      3  C4  NAG d1177      14.213 -15.921   3.035  0.00  0.00     0.089 C 
ATOM      4  C2  NAG d1177      13.589 -13.580   3.698  0.00  0.00     0.087 C 
ATOM      5  C6  NAG d1177      15.103 -17.415   4.901  0.00  0.00     0.043 C 
ATOM      6  C5  NAG d1177      14.133 -16.289   4.508  0.00  0.00     0.089 C 
ATOM      7  N2  NAG d1177      12.599 -12.494   3.575  0.00  0.00    -0.349 N 
ATOM      8  O4  NAG d1177      13.836 -17.035   2.249  0.00  0.00    -0.390 OA
ATOM      9  C7  NAG d1177      12.862 -11.279   3.087  0.00  0.00     0.214 C 
ATOM     10  O5  NAG d1177      14.430 -15.151   5.308  0.00  0.00    -0.349 OA
ATOM     11  C8  NAG d1177      11.652 -10.381   3.112  0.00  0.00    -0.003 C 
ATOM     12  C1  NAG d1177      13.519 -14.091   5.136  0.00  0.00     0.154 C 
ATOM     13  O6  NAG d1177      16.449 -17.018   4.708  0.00  0.00    -0.398 OA
ATOM     14  O3  NAG d1177      13.650 -14.215   1.438  0.00  0.00    -0.348 OA
ATOM     15  H   NAG d1177      12.304 -15.019   2.760  0.00  0.00     0.091 H 
ATOM     16  H   NAG d1177      15.222 -15.650   2.805  0.00  0.00     0.091 H 
ATOM     17  H   NAG d1177      14.566 -13.209   3.469  0.00  0.00     0.084 H 
ATOM     18  H   NAG d1177      14.902 -18.276   4.298  0.00  0.00     0.078 H 
ATOM     19  H   NAG d1177      14.959 -17.643   5.936  0.00  0.00     0.078 H 
ATOM     20  H   NAG d1177      13.135 -16.634   4.676  0.00  0.00     0.090 H 
ATOM     21  H   NAG d1177      11.679 -12.678   3.873  0.00  0.00     0.163 HD
ATOM     22  H   NAG d1177      12.921 -17.282   2.456  0.00  0.00     0.210 HD
ATOM     23  H   NAG d1177      11.912  -9.423   2.713  0.00  0.00     0.040 H 
ATOM     24  H   NAG d1177      11.313 -10.268   4.120  0.00  0.00     0.040 H 
ATOM     25  H   NAG d1177      10.873 -10.815   2.520  0.00  0.00     0.040 H 
ATOM     26  H   NAG d1177      12.537 -14.460   5.344  0.00  0.00     0.132 H 
ATOM     27  H   NAG d1177      16.594 -16.809   3.772  0.00  0.00     0.209 HD
ATOM     28  O6A BDP d1178      11.362 -17.658  -0.976  0.00  0.00    -0.646 OA
ATOM     29  O4  BDP d1178       9.854 -14.244  -2.462  0.00  0.00    -0.348 OA
ATOM     30  O3  BDP d1178      12.231 -12.719  -2.816  0.00  0.00    -0.390 OA
ATOM     31  C1  BDP d1178      12.507 -14.121   0.576  0.00  0.00     0.160 C 
ATOM     32  C4  BDP d1178      11.079 -14.563  -1.845  0.00  0.00     0.103 C 
ATOM     33  C2  BDP d1178      12.957 -13.400  -0.677  0.00  0.00     0.110 C 
ATOM     34  O2  BDP d1178      13.492 -12.143  -0.355  0.00  0.00    -0.388 OA
ATOM     35  O6B BDP d1178       9.215 -17.061  -1.092  0.00  0.00    -0.646 OA
ATOM     36  O5  BDP d1178      12.011 -15.397   0.213  0.00  0.00    -0.340 OA
ATOM     37  C6  BDP d1178      10.436 -16.801  -0.905  0.00  0.00     0.206 C 
ATOM     38  C5  BDP d1178      10.837 -15.358  -0.572  0.00  0.00     0.152 C 
ATOM     39  C3  BDP d1178      11.765 -13.210  -1.572  0.00  0.00     0.092 C 
ATOM     40  H   BDP d1178      11.478 -12.587  -3.414  0.00  0.00     0.210 HD
ATOM     41  H   BDP d1178      11.722 -13.603   1.086  0.00  0.00     0.133 H 
ATOM     42  H   BDP d1178      11.700 -15.181  -2.459  0.00  0.00     0.092 H 
ATOM     43  H   BDP d1178      13.710 -13.981  -1.167  0.00  0.00     0.094 H 
ATOM     44  H   BDP d1178      12.817 -11.608   0.091  0.00  0.00     0.210 HD
ATOM     45  H   BDP d1178      10.049 -14.877  -0.033  0.00  0.00     0.104 H 
ATOM     46  H   BDP d1178      11.075 -12.539  -1.103  0.00  0.00     0.091 H 
ATOM     47  O1  NAG d1175      12.831 -10.649  15.932  0.00  0.00    -0.369 OA
ATOM     48  O3  NAG d1175      13.057 -12.264  11.542  0.00  0.00    -0.348 OA
ATOM     49  O6  NAG d1175       9.093  -8.134  13.737  0.00  0.00    -0.398 OA
ATOM     50  C7  NAG d1175      14.829 -13.134  13.910  0.00  0.00     0.214 C 
ATOM     51  O4  NAG d1175      10.986 -10.235  10.790  0.00  0.00    -0.390 OA
ATOM     52  N2  NAG d1175      14.313 -11.908  14.063  0.00  0.00    -0.349 N 
ATOM     53  C6  NAG d1175       9.366  -9.329  13.056  0.00  0.00     0.043 C 
ATOM     54  C2  NAG d1175      12.933 -11.510  13.743  0.00  0.00     0.087 C 
ATOM     55  C8  NAG d1175      13.901 -14.302  13.816  0.00  0.00    -0.003 C 
ATOM     56  O7  NAG d1175      16.054 -13.322  13.847  0.00  0.00    -0.274 OA
ATOM     57  C3  NAG d1175      12.733 -11.108  12.290  0.00  0.00     0.093 C 
ATOM     58  C4  NAG d1175      11.270 -10.675  12.119  0.00  0.00     0.089 C 
ATOM     59  C1  NAG d1175      12.556 -10.311  14.602  0.00  0.00     0.151 C 
ATOM     60  C5  NAG d1175      10.857  -9.615  13.147  0.00  0.00     0.089 C 
ATOM     61  O5  NAG d1175      11.174 -10.015  14.467  0.00  0.00    -0.349 OA
ATOM     62  H   NAG d1175      13.775 -10.852  16.026  0.00  0.00     0.212 HD
ATOM     63  H   NAG d1175       8.144  -7.942  13.685  0.00  0.00     0.209 HD
ATOM     64  H   NAG d1175      11.254 -10.921  10.158  0.00  0.00     0.210 HD
ATOM     65  H   NAG d1175      14.910 -11.211  14.420  0.00  0.00     0.163 HD
ATOM     66  H   NAG d1175       9.080  -9.232  12.030  0.00  0.00     0.078 H 
ATOM     67  H   NAG d1175       8.814 -10.133  13.498  0.00  0.00     0.078 H 
ATOM     68  H   NAG d1175      12.321 -12.367  13.933  0.00  0.00     0.084 H 
ATOM     69  H   NAG d1175      12.889 -13.960  13.889  0.00  0.00     0.040 H 
ATOM     70  H   NAG d1175      14.105 -14.985  14.615  0.00  0.00     0.040 H 
ATOM     71  H   NAG d1175      14.044 -14.796  12.878  0.00  0.00     0.040 H 
ATOM     72  H   NAG d1175      13.340 -10.288  11.967  0.00  0.00     0.091 H 
ATOM     73  H   NAG d1175      10.679 -11.549  12.299  0.00  0.00     0.091 H 
ATOM     74  H   NAG d1175      13.113  -9.450  14.295  0.00  0.00     0.132 H 
ATOM     75  H   NAG d1175      11.408  -8.727  12.918  0.00  0.00     0.090 H 
ATOM     76  C2  NAG d1181       0.445 -19.952  -7.533  0.00  0.00     0.087 C 
ATOM     77  C8  NAG d1181       0.879 -22.625  -6.388  0.00  0.00    -0.003 C 
ATOM     78  O5  NAG d1181       0.096 -17.567  -7.093  0.00  0.00    -0.349 OA
ATOM     79  O4  NAG d1181      -2.997 -19.006  -8.470  0.00  0.00    -0.390 OA
ATOM     80  C3  NAG d1181      -0.788 -19.955  -8.422  0.00  0.00     0.086 C 
ATOM     81  C1  NAG d1181       1.059 -18.554  -7.430  0.00  0.00     0.154 C 
ATOM     82  N2  NAG d1181       1.439 -20.893  -8.019  0.00  0.00    -0.349 N 
ATOM     83  C4  NAG d1181      -1.753 -18.948  -7.806  0.00  0.00     0.089 C 
ATOM     84  O6  NAG d1181      -1.889 -16.044  -6.183  0.00  0.00    -0.398 OA
ATOM     85  O3  NAG d1181      -1.356 -21.250  -8.531  0.00  0.00    -0.391 OA
ATOM     86  C5  NAG d1181      -1.077 -17.569  -7.903  0.00  0.00     0.089 C 
ATOM     87  O7  NAG d1181       3.012 -22.373  -7.373  0.00  0.00    -0.274 OA
ATOM     88  C7  NAG d1181       1.861 -21.946  -7.301  0.00  0.00     0.214 C 
ATOM     89  C6  NAG d1181      -1.989 -16.385  -7.550  0.00  0.00     0.043 C 
ATOM     90  H   NAG d1181       0.130 -20.253  -6.556  0.00  0.00     0.084 H 
ATOM     91  H   NAG d1181      -0.067 -22.127  -6.448  0.00  0.00     0.040 H 
ATOM     92  H   NAG d1181       1.240 -22.585  -5.381  0.00  0.00     0.040 H 
ATOM     93  H   NAG d1181       0.764 -23.646  -6.685  0.00  0.00     0.040 H 
ATOM     94  H   NAG d1181      -3.373 -19.895  -8.375  0.00  0.00     0.210 HD
ATOM     95  H   NAG d1181      -0.543 -19.678  -9.426  0.00  0.00     0.090 H 
ATOM     96  H   NAG d1181       1.462 -18.223  -8.364  0.00  0.00     0.132 H 
ATOM     97  H   NAG d1181       1.820 -20.753  -8.916  0.00  0.00     0.163 HD
ATOM     98  H   NAG d1181      -1.963 -19.161  -6.779  0.00  0.00     0.091 H 
ATOM     99  H   NAG d1181      -2.476 -15.295  -5.993  0.00  0.00     0.209 HD
ATOM    100  H   NAG d1181      -1.606 -21.568  -7.650  0.00  0.00     0.210 HD
ATOM    101  H   NAG d1181      -0.824 -17.421  -8.932  0.00  0.00     0.090 H 
ATOM    102  H   NAG d1181      -1.706 -15.540  -8.141  0.00  0.00     0.078 H 
ATOM    103  H   NAG d1181      -3.001 -16.670  -7.753  0.00  0.00     0.078 H 
ATOM    104  C4  NAG d1179       8.090 -14.939  -6.171  0.00  0.00     0.089 C 
ATOM    105  N2  NAG d1179       7.404 -15.424  -2.448  0.00  0.00    -0.349 N 
ATOM    106  C6  NAG d1179      10.385 -14.404  -7.098  0.00  0.00     0.043 C 
ATOM    107  O4  NAG d1179       7.708 -15.695  -7.317  0.00  0.00    -0.390 OA
ATOM    108  O6  NAG d1179      10.208 -13.003  -7.081  0.00  0.00    -0.398 OA
ATOM    109  C1  NAG d1179       9.472 -14.975  -3.631  0.00  0.00     0.154 C 
ATOM    110  C5  NAG d1179       9.599 -15.042  -5.964  0.00  0.00     0.089 C 
ATOM    111  O5  NAG d1179       9.974 -14.362  -4.780  0.00  0.00    -0.349 OA
ATOM    112  C2  NAG d1179       7.953 -14.856  -3.667  0.00  0.00     0.087 C 
ATOM    113  C8  NAG d1179       6.117 -15.430  -0.436  0.00  0.00    -0.003 C 
ATOM    114  C7  NAG d1179       6.464 -14.798  -1.741  0.00  0.00     0.214 C 
ATOM    115  C3  NAG d1179       7.366 -15.478  -4.945  0.00  0.00     0.093 C 
ATOM    116  O3  NAG d1179       5.988 -15.154  -5.053  0.00  0.00    -0.348 OA
ATOM    117  O7  NAG d1179       5.894 -13.779  -2.115  0.00  0.00    -0.274 OA
ATOM    118  H   NAG d1179       7.826 -13.912  -6.319  0.00  0.00     0.091 H 
ATOM    119  H   NAG d1179       7.736 -16.297  -2.136  0.00  0.00     0.163 HD
ATOM    120  H   NAG d1179      10.039 -14.794  -8.032  0.00  0.00     0.078 H 
ATOM    121  H   NAG d1179      11.424 -14.629  -6.974  0.00  0.00     0.078 H 
ATOM    122  H   NAG d1179       7.946 -16.626  -7.185  0.00  0.00     0.210 HD
ATOM    123  H   NAG d1179       9.266 -12.795  -7.193  0.00  0.00     0.209 HD
ATOM    124  H   NAG d1179       9.834 -15.981  -3.603  0.00  0.00     0.132 H 
ATOM    125  H   NAG d1179       9.822 -16.087  -5.915  0.00  0.00     0.090 H 
ATOM    126  H   NAG d1179       7.672 -13.823  -3.704  0.00  0.00     0.084 H 
ATOM    127  H   NAG d1179       6.720 -16.303  -0.290  0.00  0.00     0.040 H 
ATOM    128  H   NAG d1179       5.084 -15.707  -0.437  0.00  0.00     0.040 H 
ATOM    129  H   NAG d1179       6.300 -14.736   0.357  0.00  0.00     0.040 H 
ATOM    130  H   NAG d1179       7.489 -16.540  -4.890  0.00  0.00     0.091 H 
ATOM    131  O5  BDP d1180       5.199 -16.895  -6.343  0.00  0.00    -0.340 OA
ATOM    132  O6A BDP d1180       4.882 -19.877  -7.835  0.00  0.00    -0.646 OA
ATOM    133  O2  BDP d1180       3.706 -15.567  -3.316  0.00  0.00    -0.388 OA
ATOM    134  O3  BDP d1180       1.397 -16.281  -4.993  0.00  0.00    -0.390 OA
ATOM    135  C5  BDP d1180       4.346 -18.010  -6.482  0.00  0.00     0.152 C 
ATOM    136  C2  BDP d1180       3.737 -15.857  -4.697  0.00  0.00     0.110 C 
ATOM    137  C3  BDP d1180       2.667 -16.908  -4.983  0.00  0.00     0.092 C 
ATOM    138  C6  BDP d1180       4.626 -18.654  -7.832  0.00  0.00     0.206 C 
ATOM    139  C1  BDP d1180       5.148 -16.317  -5.062  0.00  0.00     0.160 C 
ATOM    140  C4  BDP d1180       2.900 -17.564  -6.333  0.00  0.00     0.103 C 
ATOM    141  O6B BDP d1180       4.602 -17.915  -8.850  0.00  0.00    -0.646 OA
ATOM    142  O4  BDP d1180       2.066 -18.688  -6.413  0.00  0.00    -0.348 OA
ATOM    143  H   BDP d1180       4.379 -14.900  -3.110  0.00  0.00     0.210 HD
ATOM    144  H   BDP d1180       1.238 -15.858  -4.135  0.00  0.00     0.210 HD
ATOM    145  H   BDP d1180       4.526 -18.739  -5.720  0.00  0.00     0.104 H 
ATOM    146  H   BDP d1180       3.517 -15.001  -5.300  0.00  0.00     0.094 H 
ATOM    147  H   BDP d1180       2.713 -17.659  -4.222  0.00  0.00     0.091 H 
ATOM    148  H   BDP d1180       5.467 -17.058  -4.358  0.00  0.00     0.133 H 
ATOM    149  H   BDP d1180       2.685 -16.862  -7.111  0.00  0.00     0.092 H 
ATOM    150  C3  BDP d1176      14.731 -13.308   8.309  0.00  0.00     0.092 C 
ATOM    151  O4  BDP d1176      13.800 -13.014   6.041  0.00  0.00    -0.348 OA
ATOM    152  O3  BDP d1176      15.424 -14.521   8.039  0.00  0.00    -0.390 OA
ATOM    153  O5  BDP d1176      12.407 -11.979   9.313  0.00  0.00    -0.340 OA
ATOM    154  O2  BDP d1176      15.563 -13.223  10.567  0.00  0.00    -0.388 OA
ATOM    155  C1  BDP d1176      13.514 -12.062  10.186  0.00  0.00     0.160 C 
ATOM    156  O6B BDP d1176      11.171 -10.809   6.515  0.00  0.00    -0.646 OA
ATOM    157  C5  BDP d1176      12.723 -11.920   7.919  0.00  0.00     0.152 C 
ATOM    158  O6A BDP d1176      10.520 -12.718   7.459  0.00  0.00    -0.646 OA
ATOM    159  C6  BDP d1176      11.376 -11.819   7.241  0.00  0.00     0.206 C 
ATOM    160  C4  BDP d1176      13.488 -13.148   7.418  0.00  0.00     0.103 C 
ATOM    161  C2  BDP d1176      14.372 -13.268   9.799  0.00  0.00     0.110 C 
ATOM    162  H   BDP d1176      15.369 -12.481   8.075  0.00  0.00     0.091 H 
ATOM    163  H   BDP d1176      14.850 -15.275   8.249  0.00  0.00     0.210 HD
ATOM    164  H   BDP d1176      16.124 -13.979  10.337  0.00  0.00     0.210 HD
ATOM    165  H   BDP d1176      14.077 -11.154  10.116  0.00  0.00     0.133 H 
ATOM    166  H   BDP d1176      13.372 -11.096   7.707  0.00  0.00     0.104 H 
ATOM    167  H   BDP d1176      12.895 -14.036   7.492  0.00  0.00     0.092 H 
ATOM    168  H   BDP d1176      13.801 -14.151   9.997  0.00  0.00     0.094 H 
ENDROOT
TORSDOF 43
ENDMDL
