REMARK  0 active torsions:
REMARK  status: ('A' for Active; 'I' for Inactive)
REMARK       I    between atoms: S_1  and  O2_2 
REMARK       I    between atoms: O2_2  and  C2_99 
REMARK       I    between atoms: C3_3  and  O3_50 
REMARK       I    between atoms: C2_5  and  O2_57 
REMARK       I    between atoms: O1S_6  and  S1_33 
REMARK       I    between atoms: O3_7  and  C3_52 
REMARK       I    between atoms: O6_9  and  C6_34 
REMARK       I    between atoms: O6_9  and  S2_17 
REMARK       I    between atoms: C2_13  and  N_73 
REMARK       I    between atoms: S_16  and  O2_57 
REMARK       I    between atoms: C1_20  and  O4_43 
REMARK       I    between atoms: C6_21  and  C5_67 
REMARK       I    between atoms: C6_21  and  O6_75 
REMARK       I    between atoms: N_22  and  C2_66 
REMARK       I    between atoms: N_22  and  S1_69 
REMARK       I    between atoms: S2_23  and  O6_75 
REMARK       I    between atoms: C1_24  and  O4_78 
REMARK       I    between atoms: C4_25  and  O4_78 
REMARK       I    between atoms: O3_26  and  C3_81 
REMARK       I    between atoms: O1S_27  and  S1_60 
REMARK       I    between atoms: O3S_28  and  S1_69 
REMARK       I    between atoms: O3_29  and  C3_87 
REMARK       I    between atoms: C6_30  and  C5_80 
REMARK       I    between atoms: O2S_32  and  S1_60 
REMARK       I    between atoms: S1_33  and  N_73 
REMARK       I    between atoms: S1_33  and  O2S_94 
REMARK       I    between atoms: S1_33  and  O3S_35 
REMARK       I    between atoms: C6_34  and  C5_38 
REMARK       I    between atoms: C2_36  and  O2_93 
REMARK       I    between atoms: O3_37  and  C3_65 
REMARK       I    between atoms: C1_40  and  O1_105 
REMARK       I    between atoms: O2S_41  and  S1_69 
REMARK       I    between atoms: C5_42  and  C6_54 
REMARK       I    between atoms: O4_43  and  C4_92 
REMARK       I    between atoms: O1_44  and  C1_62 
REMARK       I    between atoms: O1_44  and  C4_83 
REMARK       I    between atoms: C1_45  and  O4_102 
REMARK       I    between atoms: C4_46  and  O1_105 
REMARK       I    between atoms: O3S_47  and  S1_60 
REMARK       I    between atoms: C5_53  and  C6_61 
REMARK       I    between atoms: C6_54  and  O6_98 
REMARK       I    between atoms: O3_56  and  C3_84 
REMARK       I    between atoms: C5_59  and  C6_63 
REMARK       I    between atoms: S1_60  and  N_86 
REMARK       I    between atoms: S1_69  and  O1S_91 
REMARK       I    between atoms: O1_70  and  C1_96 
REMARK       I    between atoms: S_82  and  O2_93 
REMARK       I    between atoms: N_86  and  C2_90 
REMARK       I    between atoms: S2_95  and  O6_98 
REMARK       I    between atoms: C4_100  and  O4_102 
ROOT
ATOM      1  S   IDS d 303     108.352  31.717 113.995  0.00  0.00     0.252 S 
ATOM      2  O2  IDS d 303     107.466  30.848 115.233  0.00  0.00    -0.244 OA
ATOM      3  O61 IDS d 303     104.249  30.076 119.892  0.00  0.00    -0.646 OA
ATOM      4  O3  IDS d 303     108.601  29.380 118.269  0.00  0.00    -0.390 OA
ATOM      5  O3S IDS d 303     109.694  31.189 113.998  0.00  0.00    -0.572 OA
ATOM      6  C1  IDS d 303     107.518  32.140 117.252  0.00  0.00     0.161 C 
ATOM      7  C4  IDS d 303     106.278  29.394 117.582  0.00  0.00     0.103 C 
ATOM      8  O2S IDS d 303     107.694  31.508 112.735  0.00  0.00    -0.572 OA
ATOM      9  C3  IDS d 303     107.764  29.547 117.185  0.00  0.00     0.094 C 
ATOM     10  C5  IDS d 303     105.816  30.692 118.239  0.00  0.00     0.152 C 
ATOM     11  C6  IDS d 303     104.419  30.583 118.781  0.00  0.00     0.206 C 
ATOM     12  O62 IDS d 303     103.540  31.207 118.156  0.00  0.00    -0.646 OA
ATOM     13  O5  IDS d 303     106.176  31.938 117.672  0.00  0.00    -0.340 OA
ATOM     14  C2  IDS d 303     108.038  30.897 116.500  0.00  0.00     0.134 C 
ATOM     15  O1S IDS d 303     108.334  33.100 114.344  0.00  0.00    -0.572 OA
ATOM     16  H   IDS d 303     108.418  28.526 118.691  0.00  0.00     0.210 HD
ATOM     17  H   IDS d 303     107.488  32.991 116.604  0.00  0.00     0.133 H 
ATOM     18  H   IDS d 303     106.184  28.547 118.230  0.00  0.00     0.092 H 
ATOM     19  H   IDS d 303     107.973  28.770 116.479  0.00  0.00     0.091 H 
ATOM     20  H   IDS d 303     106.479  30.768 119.075  0.00  0.00     0.104 H 
ATOM     21  H   IDS d 303     109.101  31.020 116.475  0.00  0.00     0.097 H 
ATOM     22  C3  SGN d 306     116.348  38.190 121.087  0.00  0.00     0.083 C 
ATOM     23  O1S SGN d 306     116.050  40.865 118.573  0.00  0.00    -0.296 OA
ATOM     24  O4S SGN d 306     118.432  31.404 119.391  0.00  0.00    -0.572 OA
ATOM     25  O5S SGN d 306     116.092  31.698 119.560  0.00  0.00    -0.572 OA
ATOM     26  C2  SGN d 306     117.364  38.431 119.981  0.00  0.00     0.081 C 
ATOM     27  O5  SGN d 306     118.136  36.144 120.206  0.00  0.00    -0.350 OA
ATOM     28  C6  SGN d 306     116.835  34.380 121.246  0.00  0.00     0.067 C 
ATOM     29  S2  SGN d 306     117.365  31.974 120.164  0.00  0.00     0.251 S 
ATOM     30  S1  SGN d 306     117.449  40.946 118.910  0.00  0.00     0.156 S 
ATOM     31  O3S SGN d 306     117.772  42.270 119.380  0.00  0.00    -0.296 OA
ATOM     32  O4  SGN d 306     114.946  36.492 122.082  0.00  0.00    -0.348 OA
ATOM     33  O3  SGN d 306     115.244  39.053 120.887  0.00  0.00    -0.391 OA
ATOM     34  O6S SGN d 306     117.385  31.467 121.513  0.00  0.00    -0.572 OA
ATOM     35  C5  SGN d 306     117.170  35.861 121.263  0.00  0.00     0.091 C 
ATOM     36  O1  SGN d 306     119.344  37.901 121.260  0.00  0.00    -0.369 OA
ATOM     37  N   SGN d 306     117.822  39.779 120.171  0.00  0.00    -0.210 NA
ATOM     38  O6  SGN d 306     117.556  33.718 120.230  0.00  0.00    -0.254 OA
ATOM     39  C4  SGN d 306     115.909  36.723 121.037  0.00  0.00     0.095 C 
ATOM     40  O2S SGN d 306     118.258  40.608 117.780  0.00  0.00    -0.296 OA
ATOM     41  C1  SGN d 306     118.590  37.514 120.116  0.00  0.00     0.147 C 
ATOM     42  H   SGN d 306     116.773  38.392 122.048  0.00  0.00     0.089 H 
ATOM     43  H   SGN d 306     115.844  39.971 118.258  0.00  0.00     0.231 HD
ATOM     44  H   SGN d 306     116.913  38.246 119.028  0.00  0.00     0.076 H 
ATOM     45  H   SGN d 306     115.787  34.259 121.069  0.00  0.00     0.080 H 
ATOM     46  H   SGN d 306     117.103  33.956 122.191  0.00  0.00     0.080 H 
ATOM     47  H   SGN d 306     117.217  42.486 120.145  0.00  0.00     0.231 HD
ATOM     48  H   SGN d 306     114.850  38.878 120.018  0.00  0.00     0.210 HD
ATOM     49  H   SGN d 306     117.578  36.104 122.222  0.00  0.00     0.090 H 
ATOM     50  H   SGN d 306     119.630  38.823 121.162  0.00  0.00     0.212 HD
ATOM     51  H   SGN d 306     118.837  39.746 120.267  0.00  0.00     0.140 HD
ATOM     52  H   SGN d 306     115.459  36.475 120.099  0.00  0.00     0.091 H 
ATOM     53  H   SGN d 306     118.030  39.716 117.475  0.00  0.00     0.231 HD
ATOM     54  H   SGN d 306     119.229  37.601 119.262  0.00  0.00     0.131 H 
ATOM     55  C2  UAP d 301      98.807  28.703 115.513  0.00  0.00     0.132 C 
ATOM     56  S   UAP d 301      96.936  27.106 116.421  0.00  0.00     0.252 S 
ATOM     57  O1S UAP d 301      95.554  27.086 116.136  0.00  0.00    -0.572 OA
ATOM     58  C1  UAP d 301     100.021  28.298 114.703  0.00  0.00     0.161 C 
ATOM     59  O61 UAP d 301      98.970  31.820 111.522  0.00  0.00    -0.646 OA
ATOM     60  C5  UAP d 301      99.437  30.109 113.148  0.00  0.00     0.127 C 
ATOM     61  O3  UAP d 301      99.018  30.808 116.556  0.00  0.00    -0.393 OA
ATOM     62  O2  UAP d 301      97.716  27.947 115.111  0.00  0.00    -0.244 OA
ATOM     63  O5  UAP d 301      99.988  28.825 113.381  0.00  0.00    -0.343 OA
ATOM     64  C6  UAP d 301      99.491  30.709 111.748  0.00  0.00     0.203 C 
ATOM     65  O62 UAP d 301     100.047  30.013 110.871  0.00  0.00    -0.646 OA
ATOM     66  O3S UAP d 301      97.489  25.787 116.422  0.00  0.00    -0.572 OA
ATOM     67  O2S UAP d 301      97.176  27.801 117.662  0.00  0.00    -0.572 OA
ATOM     68  C3  UAP d 301      98.370  30.176 115.497  0.00  0.00     0.069 C 
ATOM     69  C4  UAP d 301      98.655  30.935 114.171  0.00  0.00    -0.005 C 
ATOM     70  H   UAP d 301      99.131  28.527 116.517  0.00  0.00     0.097 H 
ATOM     71  H   UAP d 301     100.068  27.236 114.577  0.00  0.00     0.133 H 
ATOM     72  H   UAP d 301     100.181  29.876 113.880  0.00  0.00     0.100 H 
ATOM     73  H   UAP d 301      98.835  30.329 117.379  0.00  0.00     0.210 HD
ATOM     74  H   UAP d 301      97.304  30.195 115.591  0.00  0.00     0.087 H 
ATOM     75  H   UAP d 301      97.719  31.216 113.734  0.00  0.00     0.041 H 
ATOM     76  H   UAP d 301      99.260  31.782 114.418  0.00  0.00     0.041 H 
ATOM     77  O5  IDS d 305     113.037  35.994 120.689  0.00  0.00    -0.340 OA
ATOM     78  O62 IDS d 305     111.545  36.840 118.510  0.00  0.00    -0.646 OA
ATOM     79  C1  IDS d 305     113.823  35.637 121.828  0.00  0.00     0.161 C 
ATOM     80  O3  IDS d 305     111.771  37.366 123.958  0.00  0.00    -0.390 OA
ATOM     81  C6  IDS d 305     111.251  37.386 119.598  0.00  0.00     0.206 C 
ATOM     82  C2  IDS d 305     112.983  35.513 123.127  0.00  0.00     0.134 C 
ATOM     83  C5  IDS d 305     111.894  36.795 120.853  0.00  0.00     0.152 C 
ATOM     84  C3  IDS d 305     111.607  36.191 123.269  0.00  0.00     0.094 C 
ATOM     85  S   IDS d 305     112.594  32.792 123.038  0.00  0.00     0.252 S 
ATOM     86  C4  IDS d 305     110.881  36.447 121.934  0.00  0.00     0.103 C 
ATOM     87  O3S IDS d 305     112.905  31.736 123.930  0.00  0.00    -0.572 OA
ATOM     88  O1S IDS d 305     113.325  32.639 121.831  0.00  0.00    -0.572 OA
ATOM     89  O2  IDS d 305     113.103  34.288 123.838  0.00  0.00    -0.244 OA
ATOM     90  O61 IDS d 305     110.312  38.190 119.723  0.00  0.00    -0.646 OA
ATOM     91  O2S IDS d 305     111.202  32.849 122.777  0.00  0.00    -0.572 OA
ATOM     92  H   IDS d 305     114.209  34.677 121.556  0.00  0.00     0.133 H 
ATOM     93  H   IDS d 305     112.229  37.189 124.795  0.00  0.00     0.210 HD
ATOM     94  H   IDS d 305     113.558  36.247 123.653  0.00  0.00     0.097 H 
ATOM     95  H   IDS d 305     112.431  37.606 121.300  0.00  0.00     0.104 H 
ATOM     96  H   IDS d 305     110.975  35.511 123.801  0.00  0.00     0.091 H 
ATOM     97  H   IDS d 305     110.194  37.254 122.081  0.00  0.00     0.092 H 
ATOM     98  O6  SGN d 304     106.959  35.487 117.673  0.00  0.00    -0.254 OA
ATOM     99  S2  SGN d 304     106.177  36.048 116.214  0.00  0.00     0.251 S 
ATOM    100  O5S SGN d 304     104.756  35.906 116.395  0.00  0.00    -0.572 OA
ATOM    101  N   SGN d 304     108.671  33.544 122.925  0.00  0.00    -0.210 NA
ATOM    102  O3S SGN d 304     106.770  33.896 124.667  0.00  0.00    -0.296 OA
ATOM    103  C6  SGN d 304     108.378  35.353 117.661  0.00  0.00     0.067 C 
ATOM    104  O3  SGN d 304     107.834  31.733 120.961  0.00  0.00    -0.391 OA
ATOM    105  C5  SGN d 304     108.774  34.776 118.997  0.00  0.00     0.091 C 
ATOM    106  O2S SGN d 304     108.954  33.683 125.465  0.00  0.00    -0.296 OA
ATOM    107  O1  SGN d 304     110.177  35.272 121.513  0.00  0.00    -0.348 OA
ATOM    108  O4S SGN d 304     106.516  37.422 116.001  0.00  0.00    -0.572 OA
ATOM    109  C1  SGN d 304     108.758  35.371 121.362  0.00  0.00     0.150 C 
ATOM    110  C3  SGN d 304     108.481  32.951 120.646  0.00  0.00     0.083 C 
ATOM    111  C2  SGN d 304     108.098  34.009 121.686  0.00  0.00     0.081 C 
ATOM    112  S1  SGN d 304     108.136  34.247 124.446  0.00  0.00     0.156 S 
ATOM    113  O6S SGN d 304     106.626  35.226 115.113  0.00  0.00    -0.572 OA
ATOM    114  O1S SGN d 304     108.274  35.675 124.423  0.00  0.00    -0.296 OA
ATOM    115  O5  SGN d 304     108.402  35.740 120.017  0.00  0.00    -0.349 OA
ATOM    116  C4  SGN d 304     108.041  33.447 119.274  0.00  0.00     0.095 C 
ATOM    117  O4  SGN d 304     108.414  32.461 118.300  0.00  0.00    -0.348 OA
ATOM    118  H   SGN d 304     109.677  33.701 122.864  0.00  0.00     0.140 HD
ATOM    119  H   SGN d 304     106.683  32.930 124.682  0.00  0.00     0.231 HD
ATOM    120  H   SGN d 304     108.837  36.310 117.523  0.00  0.00     0.080 H 
ATOM    121  H   SGN d 304     108.696  34.719 116.860  0.00  0.00     0.080 H 
ATOM    122  H   SGN d 304     108.124  31.430 121.836  0.00  0.00     0.210 HD
ATOM    123  H   SGN d 304     109.826  34.580 119.001  0.00  0.00     0.090 H 
ATOM    124  H   SGN d 304     108.849  32.719 125.467  0.00  0.00     0.231 HD
ATOM    125  H   SGN d 304     108.411  36.126 122.037  0.00  0.00     0.131 H 
ATOM    126  H   SGN d 304     109.538  32.786 120.645  0.00  0.00     0.089 H 
ATOM    127  H   SGN d 304     107.037  34.141 121.715  0.00  0.00     0.076 H 
ATOM    128  H   SGN d 304     107.711  36.043 123.724  0.00  0.00     0.231 HD
ATOM    129  H   SGN d 304     106.983  33.603 119.230  0.00  0.00     0.091 H 
ATOM    130  O5S SGN d 302     101.915  24.101 119.829  0.00  0.00    -0.572 OA
ATOM    131  C4  SGN d 302     102.322  28.099 115.374  0.00  0.00     0.095 C 
ATOM    132  O1S SGN d 302     105.804  28.719 111.191  0.00  0.00    -0.296 OA
ATOM    133  O3  SGN d 302     102.818  28.997 113.210  0.00  0.00    -0.391 OA
ATOM    134  O2S SGN d 302     106.119  26.740 112.444  0.00  0.00    -0.296 OA
ATOM    135  C1  SGN d 302     105.155  27.927 115.947  0.00  0.00     0.150 C 
ATOM    136  C5  SGN d 302     102.858  27.973 116.793  0.00  0.00     0.091 C 
ATOM    137  O3S SGN d 302     107.781  28.395 112.461  0.00  0.00    -0.296 OA
ATOM    138  O5  SGN d 302     104.136  27.284 116.758  0.00  0.00    -0.349 OA
ATOM    139  C6  SGN d 302     101.853  27.216 117.650  0.00  0.00     0.067 C 
ATOM    140  S1  SGN d 302     106.362  28.149 112.392  0.00  0.00     0.156 S 
ATOM    141  O4S SGN d 302     102.784  26.112 120.715  0.00  0.00    -0.572 OA
ATOM    142  O6S SGN d 302     100.540  25.998 119.966  0.00  0.00    -0.572 OA
ATOM    143  O4  SGN d 302     101.113  28.799 115.419  0.00  0.00    -0.348 OA
ATOM    144  N   SGN d 302     105.565  28.873 113.795  0.00  0.00    -0.210 NA
ATOM    145  C3  SGN d 302     103.314  28.875 114.531  0.00  0.00     0.083 C 
ATOM    146  C2  SGN d 302     104.608  28.077 114.525  0.00  0.00     0.081 C 
ATOM    147  S2  SGN d 302     101.889  25.536 119.751  0.00  0.00     0.251 S 
ATOM    148  O6  SGN d 302     102.397  26.010 118.138  0.00  0.00    -0.254 OA
ATOM    149  O1  SGN d 302     105.468  29.240 116.411  0.00  0.00    -0.348 OA
ATOM    150  H   SGN d 302     102.174  27.129 114.948  0.00  0.00     0.091 H 
ATOM    151  H   SGN d 302     106.236  28.327 110.416  0.00  0.00     0.231 HD
ATOM    152  H   SGN d 302     101.993  29.507 113.220  0.00  0.00     0.210 HD
ATOM    153  H   SGN d 302     106.544  26.310 111.685  0.00  0.00     0.231 HD
ATOM    154  H   SGN d 302     106.037  27.323 115.995  0.00  0.00     0.131 H 
ATOM    155  H   SGN d 302     103.002  28.942 117.222  0.00  0.00     0.090 H 
ATOM    156  H   SGN d 302     108.216  27.997 111.691  0.00  0.00     0.231 HD
ATOM    157  H   SGN d 302     100.989  26.994 117.059  0.00  0.00     0.080 H 
ATOM    158  H   SGN d 302     101.594  27.831 118.486  0.00  0.00     0.080 H 
ATOM    159  H   SGN d 302     105.077  29.707 113.468  0.00  0.00     0.140 HD
ATOM    160  H   SGN d 302     103.473  29.857 114.924  0.00  0.00     0.089 H 
ATOM    161  H   SGN d 302     104.440  27.108 114.102  0.00  0.00     0.076 H 
ENDROOT
TORSDOF 50
