MODEL 1
REMARK VINA RESULT:     -13.3      0.000      0.000
REMARK  0 active torsions:
REMARK  status: ('A' for Active; 'I' for Inactive)
REMARK       I    between atoms: S_1  and  O2_2 
REMARK       I    between atoms: O2_2  and  C2_99 
REMARK       I    between atoms: C3_3  and  O3_50 
REMARK       I    between atoms: C2_5  and  O2_57 
REMARK       I    between atoms: O1S_6  and  S1_33 
REMARK       I    between atoms: O3_7  and  C3_52 
REMARK       I    between atoms: O6_9  and  C6_34 
REMARK       I    between atoms: O6_9  and  S2_17 
REMARK       I    between atoms: C2_13  and  N_73 
REMARK       I    between atoms: S_16  and  O2_57 
REMARK       I    between atoms: C1_20  and  O4_43 
REMARK       I    between atoms: C6_21  and  C5_67 
REMARK       I    between atoms: C6_21  and  O6_75 
REMARK       I    between atoms: N_22  and  C2_66 
REMARK       I    between atoms: N_22  and  S1_69 
REMARK       I    between atoms: S2_23  and  O6_75 
REMARK       I    between atoms: C1_24  and  O4_78 
REMARK       I    between atoms: C4_25  and  O4_78 
REMARK       I    between atoms: O3_26  and  C3_81 
REMARK       I    between atoms: O1S_27  and  S1_60 
REMARK       I    between atoms: O3S_28  and  S1_69 
REMARK       I    between atoms: O3_29  and  C3_87 
REMARK       I    between atoms: C6_30  and  C5_80 
REMARK       I    between atoms: O2S_32  and  S1_60 
REMARK       I    between atoms: S1_33  and  N_73 
REMARK       I    between atoms: S1_33  and  O2S_94 
REMARK       I    between atoms: S1_33  and  O3S_35 
REMARK       I    between atoms: C6_34  and  C5_38 
REMARK       I    between atoms: C2_36  and  O2_93 
REMARK       I    between atoms: O3_37  and  C3_65 
REMARK       I    between atoms: C1_40  and  O1_105 
REMARK       I    between atoms: O2S_41  and  S1_69 
REMARK       I    between atoms: C5_42  and  C6_54 
REMARK       I    between atoms: O4_43  and  C4_92 
REMARK       I    between atoms: O1_44  and  C1_62 
REMARK       I    between atoms: O1_44  and  C4_83 
REMARK       I    between atoms: C1_45  and  O4_102 
REMARK       I    between atoms: C4_46  and  O1_105 
REMARK       I    between atoms: O3S_47  and  S1_60 
REMARK       I    between atoms: C5_53  and  C6_61 
REMARK       I    between atoms: C6_54  and  O6_98 
REMARK       I    between atoms: O3_56  and  C3_84 
REMARK       I    between atoms: C5_59  and  C6_63 
REMARK       I    between atoms: S1_60  and  N_86 
REMARK       I    between atoms: S1_69  and  O1S_91 
REMARK       I    between atoms: O1_70  and  C1_96 
REMARK       I    between atoms: S_82  and  O2_93 
REMARK       I    between atoms: N_86  and  C2_90 
REMARK       I    between atoms: S2_95  and  O6_98 
REMARK       I    between atoms: C4_100  and  O4_102 
ROOT
ATOM      1  S   IDS d 303      77.633  21.501 104.483  0.00  0.00     0.252 S 
ATOM      2  O2  IDS d 303      78.682  20.378 103.639  0.00  0.00    -0.244 OA
ATOM      3  O61 IDS d 303      83.213  17.017 102.733  0.00  0.00    -0.646 OA
ATOM      4  O3  IDS d 303      81.209  20.980 101.206  0.00  0.00    -0.390 OA
ATOM      5  O3S IDS d 303      77.429  22.622 103.600  0.00  0.00    -0.572 OA
ATOM      6  C1  IDS d 303      80.943  20.789 104.324  0.00  0.00     0.161 C 
ATOM      7  C4  IDS d 303      80.688  18.778 102.071  0.00  0.00     0.103 C 
ATOM      8  O2S IDS d 303      76.402  20.827 104.792  0.00  0.00    -0.572 OA
ATOM      9  C3  IDS d 303      80.248  20.246 101.872  0.00  0.00     0.094 C 
ATOM     10  C5  IDS d 303      81.661  18.718 103.245  0.00  0.00     0.152 C 
ATOM     11  C6  IDS d 303      82.246  17.346 103.423  0.00  0.00     0.206 C 
ATOM     12  O62 IDS d 303      81.842  16.703 104.411  0.00  0.00    -0.646 OA
ATOM     13  O5  IDS d 303      81.384  19.443 104.429  0.00  0.00    -0.340 OA
ATOM     14  C2  IDS d 303      79.887  20.922 103.206  0.00  0.00     0.134 C 
ATOM     15  O1S IDS d 303      78.301  21.894 105.681  0.00  0.00    -0.572 OA
ATOM     16  H   IDS d 303      81.427  20.544 100.368  0.00  0.00     0.210 HD
ATOM     17  H   IDS d 303      80.518  21.025 105.277  0.00  0.00     0.133 H 
ATOM     18  H   IDS d 303      81.121  18.425 101.157  0.00  0.00     0.092 H 
ATOM     19  H   IDS d 303      79.367  20.222 101.265  0.00  0.00     0.091 H 
ATOM     20  H   IDS d 303      82.449  19.362 102.916  0.00  0.00     0.104 H 
ATOM     21  H   IDS d 303      79.827  21.973 103.013  0.00  0.00     0.097 H 
ATOM     22  C3  SGN d 306      85.554  30.977 106.379  0.00  0.00     0.083 C 
ATOM     23  O1S SGN d 306      83.769  31.529 109.553  0.00  0.00    -0.296 OA
ATOM     24  O4S SGN d 306      82.175  30.950  99.910  0.00  0.00    -0.572 OA
ATOM     25  O5S SGN d 306      82.551  28.804 100.829  0.00  0.00    -0.572 OA
ATOM     26  C2  SGN d 306      84.477  32.033 106.573  0.00  0.00     0.081 C 
ATOM     27  O5  SGN d 306      84.106  32.080 104.178  0.00  0.00    -0.350 OA
ATOM     28  C6  SGN d 306      84.776  30.295 102.677  0.00  0.00     0.067 C 
ATOM     29  S2  SGN d 306      83.124  30.093 100.562  0.00  0.00     0.251 S 
ATOM     30  S1  SGN d 306      84.029  32.883 109.134  0.00  0.00     0.156 S 
ATOM     31  O3S SGN d 306      84.779  33.582 110.147  0.00  0.00    -0.296 OA
ATOM     32  O4  SGN d 306      86.203  29.117 104.980  0.00  0.00    -0.348 OA
ATOM     33  O3  SGN d 306      85.632  30.185 107.550  0.00  0.00    -0.391 OA
ATOM     34  O6S SGN d 306      84.311  29.942  99.758  0.00  0.00    -0.572 OA
ATOM     35  C5  SGN d 306      85.123  31.059 103.942  0.00  0.00     0.091 C 
ATOM     36  O1  SGN d 306      85.470  33.745 105.189  0.00  0.00    -0.369 OA
ATOM     37  N   SGN d 306      84.952  32.872 107.638  0.00  0.00    -0.210 NA
ATOM     38  O6  SGN d 306      83.590  30.798 102.101  0.00  0.00    -0.254 OA
ATOM     39  C4  SGN d 306      85.185  30.118 105.165  0.00  0.00     0.095 C 
ATOM     40  O2S SGN d 306      82.804  33.568 108.860  0.00  0.00    -0.296 OA
ATOM     41  C1  SGN d 306      84.315  32.925 105.332  0.00  0.00     0.147 C 
ATOM     42  H   SGN d 306      86.508  31.430 106.206  0.00  0.00     0.089 H 
ATOM     43  H   SGN d 306      83.264  31.068 108.864  0.00  0.00     0.231 HD
ATOM     44  H   SGN d 306      83.537  31.560 106.768  0.00  0.00     0.076 H 
ATOM     45  H   SGN d 306      84.640  29.262 102.916  0.00  0.00     0.080 H 
ATOM     46  H   SGN d 306      85.575  30.411 101.975  0.00  0.00     0.080 H 
ATOM     47  H   SGN d 306      85.606  33.108 110.323  0.00  0.00     0.231 HD
ATOM     48  H   SGN d 306      84.772  29.769 107.717  0.00  0.00     0.210 HD
ATOM     49  H   SGN d 306      86.085  31.509 103.813  0.00  0.00     0.090 H 
ATOM     50  H   SGN d 306      85.576  34.296 105.980  0.00  0.00     0.212 HD
ATOM     51  H   SGN d 306      84.976  33.829 107.285  0.00  0.00     0.140 HD
ATOM     52  H   SGN d 306      84.244  29.627 105.297  0.00  0.00     0.091 H 
ATOM     53  H   SGN d 306      82.311  33.087 108.177  0.00  0.00     0.231 HD
ATOM     54  H   SGN d 306      83.469  33.572 105.433  0.00  0.00     0.131 H 
ATOM     55  C2  UAP d 301      78.975  11.472 104.136  0.00  0.00     0.132 C 
ATOM     56  S   UAP d 301      79.592   9.196 102.988  0.00  0.00     0.252 S 
ATOM     57  O1S UAP d 301      79.395   7.876 103.446  0.00  0.00    -0.572 OA
ATOM     58  C1  UAP d 301      78.020  12.519 103.602  0.00  0.00     0.161 C 
ATOM     59  O61 UAP d 301      75.834  12.616 107.943  0.00  0.00    -0.646 OA
ATOM     60  C5  UAP d 301      76.977  12.526 105.827  0.00  0.00     0.127 C 
ATOM     61  O3  UAP d 301      80.472  12.291 105.764  0.00  0.00    -0.393 OA
ATOM     62  O2  UAP d 301      78.473  10.210 103.856  0.00  0.00    -0.244 OA
ATOM     63  O5  UAP d 301      76.865  12.663 104.422  0.00  0.00    -0.343 OA
ATOM     64  C6  UAP d 301      75.758  12.776 106.708  0.00  0.00     0.203 C 
ATOM     65  O62 UAP d 301      74.709  13.109 106.115  0.00  0.00    -0.646 OA
ATOM     66  O3S UAP d 301      79.246   9.327 101.607  0.00  0.00    -0.572 OA
ATOM     67  O2S UAP d 301      80.945   9.617 103.257  0.00  0.00    -0.572 OA
ATOM     68  C3  UAP d 301      79.335  11.497 105.629  0.00  0.00     0.069 C 
ATOM     69  C4  UAP d 301      78.212  12.015 106.570  0.00  0.00    -0.005 C 
ATOM     70  H   UAP d 301      79.887  11.715 103.632  0.00  0.00     0.097 H 
ATOM     71  H   UAP d 301      77.643  12.247 102.638  0.00  0.00     0.133 H 
ATOM     72  H   UAP d 301      77.586  13.156 105.214  0.00  0.00     0.100 H 
ATOM     73  H   UAP d 301      81.168  11.962 105.174  0.00  0.00     0.210 HD
ATOM     74  H   UAP d 301      79.496  10.485 105.937  0.00  0.00     0.087 H 
ATOM     75  H   UAP d 301      77.912  11.212 107.212  0.00  0.00     0.041 H 
ATOM     76  H   UAP d 301      78.615  12.843 107.115  0.00  0.00     0.041 H 
ATOM     77  O5  IDS d 305      84.851  27.165 105.421  0.00  0.00    -0.340 OA
ATOM     78  O62 IDS d 305      83.030  26.024 107.174  0.00  0.00    -0.646 OA
ATOM     79  C1  IDS d 305      85.822  27.792 104.582  0.00  0.00     0.161 C 
ATOM     80  O3  IDS d 305      88.423  26.326 106.263  0.00  0.00    -0.390 OA
ATOM     81  C6  IDS d 305      84.232  25.894 107.500  0.00  0.00     0.206 C 
ATOM     82  C2  IDS d 305      87.104  26.937 104.397  0.00  0.00     0.134 C 
ATOM     83  C5  IDS d 305      85.269  26.313 106.458  0.00  0.00     0.152 C 
ATOM     84  C3  IDS d 305      87.486  25.826 105.394  0.00  0.00     0.094 C 
ATOM     85  S   IDS d 305      86.397  25.750 102.019  0.00  0.00     0.252 S 
ATOM     86  C4  IDS d 305      86.297  25.228 106.170  0.00  0.00     0.103 C 
ATOM     87  O3S IDS d 305      86.992  25.718 100.734  0.00  0.00    -0.572 OA
ATOM     88  O1S IDS d 305      85.145  26.417 101.958  0.00  0.00    -0.572 OA
ATOM     89  O2  IDS d 305      87.496  26.674 103.056  0.00  0.00    -0.244 OA
ATOM     90  O61 IDS d 305      84.601  25.238 108.488  0.00  0.00    -0.646 OA
ATOM     91  O2S IDS d 305      86.242  24.443 102.545  0.00  0.00    -0.572 OA
ATOM     92  H   IDS d 305      85.308  27.876 103.648  0.00  0.00     0.133 H 
ATOM     93  H   IDS d 305      89.164  26.699 105.760  0.00  0.00     0.210 HD
ATOM     94  H   IDS d 305      87.753  27.699 104.778  0.00  0.00     0.097 H 
ATOM     95  H   IDS d 305      85.862  27.063 106.940  0.00  0.00     0.104 H 
ATOM     96  H   IDS d 305      87.880  25.012 104.821  0.00  0.00     0.091 H 
ATOM     97  H   IDS d 305      86.673  24.813 107.082  0.00  0.00     0.092 H 
ATOM     98  O6  SGN d 304      82.178  21.255 107.478  0.00  0.00    -0.254 OA
ATOM     99  S2  SGN d 304      80.944  20.697 108.583  0.00  0.00     0.251 S 
ATOM    100  O5S SGN d 304      81.173  19.297 108.825  0.00  0.00    -0.572 OA
ATOM    101  N   SGN d 304      86.705  22.236 103.896  0.00  0.00    -0.210 NA
ATOM    102  O3S SGN d 304      88.594  20.505 104.355  0.00  0.00    -0.296 OA
ATOM    103  C6  SGN d 304      82.048  22.569 106.940  0.00  0.00     0.067 C 
ATOM    104  O3  SGN d 304      84.423  20.920 102.948  0.00  0.00    -0.391 OA
ATOM    105  C5  SGN d 304      83.182  22.755 105.964  0.00  0.00     0.091 C 
ATOM    106  O2S SGN d 304      89.184  22.514 103.320  0.00  0.00    -0.296 OA
ATOM    107  O1  SGN d 304      85.654  24.209 105.394  0.00  0.00    -0.348 OA
ATOM    108  O4S SGN d 304      81.042  21.436 109.805  0.00  0.00    -0.572 OA
ATOM    109  C1  SGN d 304      85.617  22.888 105.940  0.00  0.00     0.150 C 
ATOM    110  C3  SGN d 304      84.367  21.906 103.961  0.00  0.00     0.083 C 
ATOM    111  C2  SGN d 304      85.649  21.845 104.797  0.00  0.00     0.081 C 
ATOM    112  S1  SGN d 304      88.379  21.916 104.331  0.00  0.00     0.156 S 
ATOM    113  O6S SGN d 304      79.654  20.893 107.960  0.00  0.00    -0.572 OA
ATOM    114  O1S SGN d 304      88.687  22.477 105.616  0.00  0.00    -0.296 OA
ATOM    115  O5  SGN d 304      84.422  22.677 106.714  0.00  0.00    -0.349 OA
ATOM    116  C4  SGN d 304      83.181  21.654 104.883  0.00  0.00     0.095 C 
ATOM    117  O4  SGN d 304      81.980  21.726 104.101  0.00  0.00    -0.348 OA
ATOM    118  H   SGN d 304      86.622  23.243 103.760  0.00  0.00     0.140 HD
ATOM    119  H   SGN d 304      88.385  20.132 103.484  0.00  0.00     0.231 HD
ATOM    120  H   SGN d 304      82.113  23.295 107.723  0.00  0.00     0.080 H 
ATOM    121  H   SGN d 304      81.102  22.692 106.456  0.00  0.00     0.080 H 
ATOM    122  H   SGN d 304      85.182  21.094 102.369  0.00  0.00     0.210 HD
ATOM    123  H   SGN d 304      83.075  23.700 105.472  0.00  0.00     0.090 H 
ATOM    124  H   SGN d 304      88.964  22.124 102.460  0.00  0.00     0.231 HD
ATOM    125  H   SGN d 304      86.472  22.774 106.575  0.00  0.00     0.131 H 
ATOM    126  H   SGN d 304      84.262  22.865 103.497  0.00  0.00     0.089 H 
ATOM    127  H   SGN d 304      85.774  20.872 105.224  0.00  0.00     0.076 H 
ATOM    128  H   SGN d 304      88.131  22.060 106.292  0.00  0.00     0.231 HD
ATOM    129  H   SGN d 304      83.240  20.692 105.350  0.00  0.00     0.091 H 
ATOM    130  O5S SGN d 302      81.880  12.998  97.914  0.00  0.00    -0.572 OA
ATOM    131  C4  SGN d 302      78.482  14.645 102.577  0.00  0.00     0.095 C 
ATOM    132  O1S SGN d 302      74.360  18.207 103.148  0.00  0.00    -0.296 OA
ATOM    133  O3  SGN d 302      76.566  15.416 103.790  0.00  0.00    -0.391 OA
ATOM    134  O2S SGN d 302      75.087  17.897 100.920  0.00  0.00    -0.296 OA
ATOM    135  C1  SGN d 302      78.824  17.288 101.445  0.00  0.00     0.150 C 
ATOM    136  C5  SGN d 302      79.795  15.100 101.957  0.00  0.00     0.091 C 
ATOM    137  O3S SGN d 302      75.394  19.979 101.957  0.00  0.00    -0.296 OA
ATOM    138  O5  SGN d 302      79.520  16.112 100.952  0.00  0.00    -0.349 OA
ATOM    139  C6  SGN d 302      80.509  13.903 101.343  0.00  0.00     0.067 C 
ATOM    140  S1  SGN d 302      75.356  18.553 102.164  0.00  0.00     0.156 S 
ATOM    141  O4S SGN d 302      83.162  14.419  99.300  0.00  0.00    -0.572 OA
ATOM    142  O6S SGN d 302      82.546  12.254 100.038  0.00  0.00    -0.572 OA
ATOM    143  O4  SGN d 302      78.766  13.701 103.569  0.00  0.00    -0.348 OA
ATOM    144  N   SGN d 302      76.936  17.991 102.724  0.00  0.00    -0.210 NA
ATOM    145  C3  SGN d 302      77.788  15.835 103.208  0.00  0.00     0.083 C 
ATOM    146  C2  SGN d 302      77.514  16.830 102.092  0.00  0.00     0.081 C 
ATOM    147  S2  SGN d 302      82.145  13.405  99.267  0.00  0.00     0.251 S 
ATOM    148  O6  SGN d 302      80.663  14.053  99.950  0.00  0.00    -0.254 OA
ATOM    149  O1  SGN d 302      79.566  17.974 102.453  0.00  0.00    -0.348 OA
ATOM    150  H   SGN d 302      77.848  14.218 101.829  0.00  0.00     0.091 H 
ATOM    151  H   SGN d 302      73.490  18.512 102.848  0.00  0.00     0.231 HD
ATOM    152  H   SGN d 302      76.747  14.782 104.501  0.00  0.00     0.210 HD
ATOM    153  H   SGN d 302      74.223  18.183 100.584  0.00  0.00     0.231 HD
ATOM    154  H   SGN d 302      78.673  17.947 100.616  0.00  0.00     0.131 H 
ATOM    155  H   SGN d 302      80.432  15.522 102.705  0.00  0.00     0.090 H 
ATOM    156  H   SGN d 302      74.526  20.284 101.649  0.00  0.00     0.231 HD
ATOM    157  H   SGN d 302      79.936  13.020 101.537  0.00  0.00     0.080 H 
ATOM    158  H   SGN d 302      81.481  13.829 101.783  0.00  0.00     0.080 H 
ATOM    159  H   SGN d 302      76.847  17.780 103.718  0.00  0.00     0.140 HD
ATOM    160  H   SGN d 302      78.392  16.276 103.973  0.00  0.00     0.089 H 
ATOM    161  H   SGN d 302      76.885  16.384 101.349  0.00  0.00     0.076 H 
ENDROOT
TORSDOF 50
ENDMDL
MODEL 2
REMARK VINA RESULT:     -12.8      3.531      4.834
REMARK  0 active torsions:
REMARK  status: ('A' for Active; 'I' for Inactive)
REMARK       I    between atoms: S_1  and  O2_2 
REMARK       I    between atoms: O2_2  and  C2_99 
REMARK       I    between atoms: C3_3  and  O3_50 
REMARK       I    between atoms: C2_5  and  O2_57 
REMARK       I    between atoms: O1S_6  and  S1_33 
REMARK       I    between atoms: O3_7  and  C3_52 
REMARK       I    between atoms: O6_9  and  C6_34 
REMARK       I    between atoms: O6_9  and  S2_17 
REMARK       I    between atoms: C2_13  and  N_73 
REMARK       I    between atoms: S_16  and  O2_57 
REMARK       I    between atoms: C1_20  and  O4_43 
REMARK       I    between atoms: C6_21  and  C5_67 
REMARK       I    between atoms: C6_21  and  O6_75 
REMARK       I    between atoms: N_22  and  C2_66 
REMARK       I    between atoms: N_22  and  S1_69 
REMARK       I    between atoms: S2_23  and  O6_75 
REMARK       I    between atoms: C1_24  and  O4_78 
REMARK       I    between atoms: C4_25  and  O4_78 
REMARK       I    between atoms: O3_26  and  C3_81 
REMARK       I    between atoms: O1S_27  and  S1_60 
REMARK       I    between atoms: O3S_28  and  S1_69 
REMARK       I    between atoms: O3_29  and  C3_87 
REMARK       I    between atoms: C6_30  and  C5_80 
REMARK       I    between atoms: O2S_32  and  S1_60 
REMARK       I    between atoms: S1_33  and  N_73 
REMARK       I    between atoms: S1_33  and  O2S_94 
REMARK       I    between atoms: S1_33  and  O3S_35 
REMARK       I    between atoms: C6_34  and  C5_38 
REMARK       I    between atoms: C2_36  and  O2_93 
REMARK       I    between atoms: O3_37  and  C3_65 
REMARK       I    between atoms: C1_40  and  O1_105 
REMARK       I    between atoms: O2S_41  and  S1_69 
REMARK       I    between atoms: C5_42  and  C6_54 
REMARK       I    between atoms: O4_43  and  C4_92 
REMARK       I    between atoms: O1_44  and  C1_62 
REMARK       I    between atoms: O1_44  and  C4_83 
REMARK       I    between atoms: C1_45  and  O4_102 
REMARK       I    between atoms: C4_46  and  O1_105 
REMARK       I    between atoms: O3S_47  and  S1_60 
REMARK       I    between atoms: C5_53  and  C6_61 
REMARK       I    between atoms: C6_54  and  O6_98 
REMARK       I    between atoms: O3_56  and  C3_84 
REMARK       I    between atoms: C5_59  and  C6_63 
REMARK       I    between atoms: S1_60  and  N_86 
REMARK       I    between atoms: S1_69  and  O1S_91 
REMARK       I    between atoms: O1_70  and  C1_96 
REMARK       I    between atoms: S_82  and  O2_93 
REMARK       I    between atoms: N_86  and  C2_90 
REMARK       I    between atoms: S2_95  and  O6_98 
REMARK       I    between atoms: C4_100  and  O4_102 
ROOT
ATOM      1  S   IDS d 303      76.154  21.995 104.479  0.00  0.00     0.252 S 
ATOM      2  O2  IDS d 303      76.920  21.643 102.942  0.00  0.00    -0.244 OA
ATOM      3  O61 IDS d 303      80.833  19.591  99.319  0.00  0.00    -0.646 OA
ATOM      4  O3  IDS d 303      79.087  23.636 100.944  0.00  0.00    -0.390 OA
ATOM      5  O3S IDS d 303      75.945  23.421 104.520  0.00  0.00    -0.572 OA
ATOM      6  C1  IDS d 303      79.292  21.555 103.279  0.00  0.00     0.161 C 
ATOM      7  C4  IDS d 303      78.457  21.368 100.371  0.00  0.00     0.103 C 
ATOM      8  O2S IDS d 303      74.917  21.268 104.546  0.00  0.00    -0.572 OA
ATOM      9  C3  IDS d 303      78.164  22.642 101.197  0.00  0.00     0.094 C 
ATOM     10  C5  IDS d 303      79.588  20.600 101.050  0.00  0.00     0.152 C 
ATOM     11  C6  IDS d 303      80.031  19.416 100.238  0.00  0.00     0.206 C 
ATOM     12  O62 IDS d 303      79.714  18.297 100.686  0.00  0.00    -0.646 OA
ATOM     13  O5  IDS d 303      79.586  20.435 102.456  0.00  0.00    -0.340 OA
ATOM     14  C2  IDS d 303      78.097  22.345 102.705  0.00  0.00     0.134 C 
ATOM     15  O1S IDS d 303      77.041  21.567 105.510  0.00  0.00    -0.572 OA
ATOM     16  H   IDS d 303      79.119  23.814  99.991  0.00  0.00     0.210 HD
ATOM     17  H   IDS d 303      79.052  21.147 104.239  0.00  0.00     0.133 H 
ATOM     18  H   IDS d 303      78.698  21.660  99.370  0.00  0.00     0.092 H 
ATOM     19  H   IDS d 303      77.202  22.993 100.886  0.00  0.00     0.091 H 
ATOM     20  H   IDS d 303      80.384  21.315 101.035  0.00  0.00     0.104 H 
ATOM     21  H   IDS d 303      78.130  23.289 103.207  0.00  0.00     0.097 H 
ATOM     22  C3  SGN d 306      85.318  28.312 110.158  0.00  0.00     0.083 C 
ATOM     23  O1S SGN d 306      84.127  26.770 113.283  0.00  0.00    -0.296 OA
ATOM     24  O4S SGN d 306      80.987  32.274 105.820  0.00  0.00    -0.572 OA
ATOM     25  O5S SGN d 306      81.251  30.023 105.149  0.00  0.00    -0.572 OA
ATOM     26  C2  SGN d 306      84.414  29.015 111.159  0.00  0.00     0.081 C 
ATOM     27  O5  SGN d 306      83.680  30.532 109.416  0.00  0.00    -0.350 OA
ATOM     28  C6  SGN d 306      83.896  30.064 107.045  0.00  0.00     0.067 C 
ATOM     29  S2  SGN d 306      81.921  31.204 105.616  0.00  0.00     0.251 S 
ATOM     30  S1  SGN d 306      84.474  28.095 113.734  0.00  0.00     0.156 S 
ATOM     31  O3S SGN d 306      85.449  28.021 114.793  0.00  0.00    -0.296 OA
ATOM     32  O4  SGN d 306      85.519  27.721 107.823  0.00  0.00    -0.348 OA
ATOM     33  O3  SGN d 306      85.486  26.966 110.563  0.00  0.00    -0.391 OA
ATOM     34  O6S SGN d 306      82.942  31.590 104.674  0.00  0.00    -0.572 OA
ATOM     35  C5  SGN d 306      84.522  29.883 108.416  0.00  0.00     0.091 C 
ATOM     36  O1  SGN d 306      85.370  31.223 110.941  0.00  0.00    -0.369 OA
ATOM     37  N   SGN d 306      85.144  29.018 112.396  0.00  0.00    -0.210 NA
ATOM     38  O6  SGN d 306      82.700  30.808 107.139  0.00  0.00    -0.254 OA
ATOM     39  C4  SGN d 306      84.666  28.387 108.773  0.00  0.00     0.095 C 
ATOM     40  O2S SGN d 306      83.308  28.795 114.178  0.00  0.00    -0.296 OA
ATOM     41  C1  SGN d 306      84.164  30.483 110.778  0.00  0.00     0.147 C 
ATOM     42  H   SGN d 306      86.278  28.781 110.114  0.00  0.00     0.089 H 
ATOM     43  H   SGN d 306      83.471  26.832 112.572  0.00  0.00     0.231 HD
ATOM     44  H   SGN d 306      83.467  28.517 111.204  0.00  0.00     0.076 H 
ATOM     45  H   SGN d 306      83.680  29.103 106.628  0.00  0.00     0.080 H 
ATOM     46  H   SGN d 306      84.583  30.594 106.420  0.00  0.00     0.080 H 
ATOM     47  H   SGN d 306      86.232  27.545 114.479  0.00  0.00     0.231 HD
ATOM     48  H   SGN d 306      84.620  26.531 110.605  0.00  0.00     0.210 HD
ATOM     49  H   SGN d 306      85.498  30.322 108.402  0.00  0.00     0.090 H 
ATOM     50  H   SGN d 306      85.661  31.166 111.865  0.00  0.00     0.212 HD
ATOM     51  H   SGN d 306      85.222  29.988 112.702  0.00  0.00     0.140 HD
ATOM     52  H   SGN d 306      83.707  27.914 108.759  0.00  0.00     0.091 H 
ATOM     53  H   SGN d 306      82.662  28.837 113.456  0.00  0.00     0.231 HD
ATOM     54  H   SGN d 306      83.425  30.923 111.414  0.00  0.00     0.131 H 
ATOM     55  C2  UAP d 301      76.253  14.342  97.852  0.00  0.00     0.132 C 
ATOM     56  S   UAP d 301      76.415  13.268  95.465  0.00  0.00     0.252 S 
ATOM     57  O1S UAP d 301      76.141  11.947  95.053  0.00  0.00    -0.572 OA
ATOM     58  C1  UAP d 301      75.354  15.489  98.264  0.00  0.00     0.161 C 
ATOM     59  O61 UAP d 301      73.901  12.865 102.089  0.00  0.00    -0.646 OA
ATOM     60  C5  UAP d 301      74.680  14.111 100.184  0.00  0.00     0.127 C 
ATOM     61  O3  UAP d 301      78.072  13.987  99.312  0.00  0.00    -0.393 OA
ATOM     62  O2  UAP d 301      75.571  13.520  96.967  0.00  0.00    -0.244 OA
ATOM     63  O5  UAP d 301      74.366  15.088  99.207  0.00  0.00    -0.343 OA
ATOM     64  C6  UAP d 301      73.652  13.755 101.251  0.00  0.00     0.203 C 
ATOM     65  O62 UAP d 301      72.568  14.377 101.202  0.00  0.00    -0.646 OA
ATOM     66  O3S UAP d 301      75.875  14.225  94.549  0.00  0.00    -0.572 OA
ATOM     67  O2S UAP d 301      77.833  13.441  95.664  0.00  0.00    -0.572 OA
ATOM     68  C3  UAP d 301      76.844  13.440  98.947  0.00  0.00     0.069 C 
ATOM     69  C4  UAP d 301      75.949  13.256 100.204  0.00  0.00    -0.005 C 
ATOM     70  H   UAP d 301      77.097  14.850  97.435  0.00  0.00     0.097 H 
ATOM     71  H   UAP d 301      74.802  15.869  97.429  0.00  0.00     0.133 H 
ATOM     72  H   UAP d 301      75.255  14.989  99.976  0.00  0.00     0.100 H 
ATOM     73  H   UAP d 301      78.624  14.098  98.522  0.00  0.00     0.210 HD
ATOM     74  H   UAP d 301      76.932  12.455  98.537  0.00  0.00     0.087 H 
ATOM     75  H   UAP d 301      75.662  12.227 100.269  0.00  0.00     0.041 H 
ATOM     76  H   UAP d 301      76.526  13.572 101.048  0.00  0.00     0.041 H 
ATOM     77  O5  IDS d 305      84.036  25.907 107.240  0.00  0.00    -0.340 OA
ATOM     78  O62 IDS d 305      82.392  23.915 108.250  0.00  0.00    -0.646 OA
ATOM     79  C1  IDS d 305      84.930  26.925 106.786  0.00  0.00     0.161 C 
ATOM     80  O3  IDS d 305      87.574  24.749 106.682  0.00  0.00    -0.390 OA
ATOM     81  C6  IDS d 305      83.607  23.618 108.187  0.00  0.00     0.206 C 
ATOM     82  C2  IDS d 305      86.059  26.375 105.874  0.00  0.00     0.134 C 
ATOM     83  C5  IDS d 305      84.510  24.599 107.438  0.00  0.00     0.152 C 
ATOM     84  C3  IDS d 305      86.462  24.888 105.891  0.00  0.00     0.094 C 
ATOM     85  S   IDS d 305      84.856  26.911 103.460  0.00  0.00     0.252 S 
ATOM     86  C4  IDS d 305      85.347  23.931 106.356  0.00  0.00     0.103 C 
ATOM     87  O3S IDS d 305      85.235  27.685 102.335  0.00  0.00    -0.572 OA
ATOM     88  O1S IDS d 305      83.696  27.465 104.062  0.00  0.00    -0.572 OA
ATOM     89  O2  IDS d 305      86.203  27.001 104.606  0.00  0.00    -0.244 OA
ATOM     90  O61 IDS d 305      84.048  22.493 108.477  0.00  0.00    -0.646 OA
ATOM     91  O2S IDS d 305      84.635  25.558 103.100  0.00  0.00    -0.572 OA
ATOM     92  H   IDS d 305      84.289  27.566 106.218  0.00  0.00     0.133 H 
ATOM     93  H   IDS d 305      88.266  25.357 106.377  0.00  0.00     0.210 HD
ATOM     94  H   IDS d 305      86.843  26.742 106.504  0.00  0.00     0.097 H 
ATOM     95  H   IDS d 305      85.254  24.893 108.149  0.00  0.00     0.104 H 
ATOM     96  H   IDS d 305      86.664  24.606 104.879  0.00  0.00     0.091 H 
ATOM     97  H   IDS d 305      85.811  23.043 106.733  0.00  0.00     0.092 H 
ATOM     98  O6  SGN d 304      81.052  19.976 105.749  0.00  0.00    -0.254 OA
ATOM     99  S2  SGN d 304      79.950  18.847 106.501  0.00  0.00     0.251 S 
ATOM    100  O5S SGN d 304      80.050  17.598 105.791  0.00  0.00    -0.572 OA
ATOM    101  N   SGN d 304      85.045  22.991 102.707  0.00  0.00    -0.210 NA
ATOM    102  O3S SGN d 304      86.769  21.359 101.640  0.00  0.00    -0.296 OA
ATOM    103  C6  SGN d 304      80.992  21.340 106.159  0.00  0.00     0.067 C 
ATOM    104  O3  SGN d 304      82.506  22.530 101.622  0.00  0.00    -0.391 OA
ATOM    105  C5  SGN d 304      81.974  22.098 105.300  0.00  0.00     0.091 C 
ATOM    106  O2S SGN d 304      87.418  23.581 101.951  0.00  0.00    -0.296 OA
ATOM    107  O1  SGN d 304      84.477  23.607 105.265  0.00  0.00    -0.348 OA
ATOM    108  O4S SGN d 304      80.323  18.671 107.871  0.00  0.00    -0.572 OA
ATOM    109  C1  SGN d 304      84.374  22.231 104.889  0.00  0.00     0.150 C 
ATOM    110  C3  SGN d 304      82.723  22.678 103.012  0.00  0.00     0.083 C 
ATOM    111  C2  SGN d 304      84.105  22.120 103.369  0.00  0.00     0.081 C 
ATOM    112  S1  SGN d 304      86.718  22.481 102.522  0.00  0.00     0.156 S 
ATOM    113  O6S SGN d 304      78.610  19.378 106.392  0.00  0.00    -0.572 OA
ATOM    114  O1S SGN d 304      87.286  22.128 103.792  0.00  0.00    -0.296 OA
ATOM    115  O5  SGN d 304      83.298  21.579 105.589  0.00  0.00    -0.349 OA
ATOM    116  C4  SGN d 304      81.675  21.901 103.800  0.00  0.00     0.095 C 
ATOM    117  O4  SGN d 304      80.383  22.436 103.475  0.00  0.00    -0.348 OA
ATOM    118  H   SGN d 304      85.059  23.866 103.231  0.00  0.00     0.140 HD
ATOM    119  H   SGN d 304      86.384  21.604 100.784  0.00  0.00     0.231 HD
ATOM    120  H   SGN d 304      81.262  21.427 107.191  0.00  0.00     0.080 H 
ATOM    121  H   SGN d 304      80.002  21.731 106.046  0.00  0.00     0.080 H 
ATOM    122  H   SGN d 304      83.180  23.030 101.134  0.00  0.00     0.210 HD
ATOM    123  H   SGN d 304      81.901  23.143 105.517  0.00  0.00     0.090 H 
ATOM    124  H   SGN d 304      87.022  23.806 101.095  0.00  0.00     0.231 HD
ATOM    125  H   SGN d 304      85.298  21.754 105.142  0.00  0.00     0.131 H 
ATOM    126  H   SGN d 304      82.659  23.717 103.259  0.00  0.00     0.089 H 
ATOM    127  H   SGN d 304      84.181  21.093 103.082  0.00  0.00     0.076 H 
ATOM    128  H   SGN d 304      86.798  21.378 104.167  0.00  0.00     0.231 HD
ATOM    129  H   SGN d 304      81.695  20.858 103.562  0.00  0.00     0.091 H 
ATOM    130  O5S SGN d 302      78.305  19.409  93.426  0.00  0.00    -0.572 OA
ATOM    131  C4  SGN d 302      75.894  17.796  98.678  0.00  0.00     0.095 C 
ATOM    132  O1S SGN d 302      72.353  20.215 102.085  0.00  0.00    -0.296 OA
ATOM    133  O3  SGN d 302      74.294  17.639 100.453  0.00  0.00    -0.391 OA
ATOM    134  O2S SGN d 302      72.681  21.355 100.041  0.00  0.00    -0.296 OA
ATOM    135  C1  SGN d 302      76.357  20.574  99.347  0.00  0.00     0.150 C 
ATOM    136  C5  SGN d 302      77.137  18.545  98.221  0.00  0.00     0.091 C 
ATOM    137  O3S SGN d 302      73.385  22.350 102.045  0.00  0.00    -0.296 OA
ATOM    138  O5  SGN d 302      76.827  19.960  98.117  0.00  0.00    -0.349 OA
ATOM    139  C6  SGN d 302      77.602  17.989  96.882  0.00  0.00     0.067 C 
ATOM    140  S1  SGN d 302      73.215  21.102 101.344  0.00  0.00     0.156 S 
ATOM    141  O4S SGN d 302      79.944  19.674  95.107  0.00  0.00    -0.572 OA
ATOM    142  O6S SGN d 302      79.205  17.514  94.479  0.00  0.00    -0.572 OA
ATOM    143  O4  SGN d 302      76.218  16.442  98.812  0.00  0.00    -0.348 OA
ATOM    144  N   SGN d 302      74.788  20.323 101.127  0.00  0.00    -0.210 NA
ATOM    145  C3  SGN d 302      75.449  18.335 100.022  0.00  0.00     0.083 C 
ATOM    146  C2  SGN d 302      75.121  19.806  99.821  0.00  0.00     0.081 C 
ATOM    147  S2  SGN d 302      78.825  18.893  94.663  0.00  0.00     0.251 S 
ATOM    148  O6  SGN d 302      77.552  18.970  95.871  0.00  0.00    -0.254 OA
ATOM    149  O1  SGN d 302      77.322  20.494 100.395  0.00  0.00    -0.348 OA
ATOM    150  H   SGN d 302      75.105  17.920  97.966  0.00  0.00     0.091 H 
ATOM    151  H   SGN d 302      71.487  20.635 102.209  0.00  0.00     0.231 HD
ATOM    152  H   SGN d 302      74.509  16.702 100.580  0.00  0.00     0.210 HD
ATOM    153  H   SGN d 302      71.814  21.783 100.124  0.00  0.00     0.231 HD
ATOM    154  H   SGN d 302      76.156  21.604  99.139  0.00  0.00     0.131 H 
ATOM    155  H   SGN d 302      77.928  18.418  98.930  0.00  0.00     0.090 H 
ATOM    156  H   SGN d 302      72.522  22.776 102.163  0.00  0.00     0.231 HD
ATOM    157  H   SGN d 302      76.968  17.172  96.606  0.00  0.00     0.080 H 
ATOM    158  H   SGN d 302      78.616  17.664  96.987  0.00  0.00     0.080 H 
ATOM    159  H   SGN d 302      74.831  19.542 101.781  0.00  0.00     0.140 HD
ATOM    160  H   SGN d 302      76.213  18.212 100.762  0.00  0.00     0.089 H 
ATOM    161  H   SGN d 302      74.336  19.912  99.101  0.00  0.00     0.076 H 
ENDROOT
TORSDOF 50
ENDMDL
MODEL 3
REMARK VINA RESULT:     -12.8      4.131      9.011
REMARK  0 active torsions:
REMARK  status: ('A' for Active; 'I' for Inactive)
REMARK       I    between atoms: S_1  and  O2_2 
REMARK       I    between atoms: O2_2  and  C2_99 
REMARK       I    between atoms: C3_3  and  O3_50 
REMARK       I    between atoms: C2_5  and  O2_57 
REMARK       I    between atoms: O1S_6  and  S1_33 
REMARK       I    between atoms: O3_7  and  C3_52 
REMARK       I    between atoms: O6_9  and  C6_34 
REMARK       I    between atoms: O6_9  and  S2_17 
REMARK       I    between atoms: C2_13  and  N_73 
REMARK       I    between atoms: S_16  and  O2_57 
REMARK       I    between atoms: C1_20  and  O4_43 
REMARK       I    between atoms: C6_21  and  C5_67 
REMARK       I    between atoms: C6_21  and  O6_75 
REMARK       I    between atoms: N_22  and  C2_66 
REMARK       I    between atoms: N_22  and  S1_69 
REMARK       I    between atoms: S2_23  and  O6_75 
REMARK       I    between atoms: C1_24  and  O4_78 
REMARK       I    between atoms: C4_25  and  O4_78 
REMARK       I    between atoms: O3_26  and  C3_81 
REMARK       I    between atoms: O1S_27  and  S1_60 
REMARK       I    between atoms: O3S_28  and  S1_69 
REMARK       I    between atoms: O3_29  and  C3_87 
REMARK       I    between atoms: C6_30  and  C5_80 
REMARK       I    between atoms: O2S_32  and  S1_60 
REMARK       I    between atoms: S1_33  and  N_73 
REMARK       I    between atoms: S1_33  and  O2S_94 
REMARK       I    between atoms: S1_33  and  O3S_35 
REMARK       I    between atoms: C6_34  and  C5_38 
REMARK       I    between atoms: C2_36  and  O2_93 
REMARK       I    between atoms: O3_37  and  C3_65 
REMARK       I    between atoms: C1_40  and  O1_105 
REMARK       I    between atoms: O2S_41  and  S1_69 
REMARK       I    between atoms: C5_42  and  C6_54 
REMARK       I    between atoms: O4_43  and  C4_92 
REMARK       I    between atoms: O1_44  and  C1_62 
REMARK       I    between atoms: O1_44  and  C4_83 
REMARK       I    between atoms: C1_45  and  O4_102 
REMARK       I    between atoms: C4_46  and  O1_105 
REMARK       I    between atoms: O3S_47  and  S1_60 
REMARK       I    between atoms: C5_53  and  C6_61 
REMARK       I    between atoms: C6_54  and  O6_98 
REMARK       I    between atoms: O3_56  and  C3_84 
REMARK       I    between atoms: C5_59  and  C6_63 
REMARK       I    between atoms: S1_60  and  N_86 
REMARK       I    between atoms: S1_69  and  O1S_91 
REMARK       I    between atoms: O1_70  and  C1_96 
REMARK       I    between atoms: S_82  and  O2_93 
REMARK       I    between atoms: N_86  and  C2_90 
REMARK       I    between atoms: S2_95  and  O6_98 
REMARK       I    between atoms: C4_100  and  O4_102 
ROOT
ATOM      1  S   IDS d 303      79.997  13.867 100.151  0.00  0.00     0.252 S 
ATOM      2  O2  IDS d 303      79.342  13.481 101.730  0.00  0.00    -0.244 OA
ATOM      3  O61 IDS d 303      76.500  14.269 106.625  0.00  0.00    -0.646 OA
ATOM      4  O3  IDS d 303      80.846  13.660 104.950  0.00  0.00    -0.390 OA
ATOM      5  O3S IDS d 303      81.416  13.616 100.219  0.00  0.00    -0.572 OA
ATOM      6  C1  IDS d 303      79.210  15.503 103.012  0.00  0.00     0.161 C 
ATOM      7  C4  IDS d 303      78.542  13.002 104.589  0.00  0.00     0.103 C 
ATOM      8  O2S IDS d 303      79.350  13.035  99.175  0.00  0.00    -0.572 OA
ATOM      9  C3  IDS d 303      79.955  13.209 103.998  0.00  0.00     0.094 C 
ATOM     10  C5  IDS d 303      77.859  14.363 104.698  0.00  0.00     0.152 C 
ATOM     11  C6  IDS d 303      76.530  14.272 105.392  0.00  0.00     0.206 C 
ATOM     12  O62 IDS d 303      75.525  14.416 104.670  0.00  0.00    -0.646 OA
ATOM     13  O5  IDS d 303      77.949  15.286 103.629  0.00  0.00    -0.340 OA
ATOM     14  C2  IDS d 303      79.936  14.160 102.789  0.00  0.00     0.134 C 
ATOM     15  O1S IDS d 303      79.722  15.243  99.895  0.00  0.00    -0.572 OA
ATOM     16  H   IDS d 303      80.848  13.052 105.706  0.00  0.00     0.210 HD
ATOM     17  H   IDS d 303      78.992  15.977 102.078  0.00  0.00     0.133 H 
ATOM     18  H   IDS d 303      78.638  12.512 105.536  0.00  0.00     0.092 H 
ATOM     19  H   IDS d 303      80.287  12.250 103.658  0.00  0.00     0.091 H 
ATOM     20  H   IDS d 303      78.523  14.896 105.346  0.00  0.00     0.104 H 
ATOM     21  H   IDS d 303      80.953  14.431 102.593  0.00  0.00     0.097 H 
ATOM     22  C3  SGN d 306      86.816  23.954 102.959  0.00  0.00     0.083 C 
ATOM     23  O1S SGN d 306      85.914  25.207  99.615  0.00  0.00    -0.296 OA
ATOM     24  O4S SGN d 306      90.125  17.533 104.000  0.00  0.00    -0.572 OA
ATOM     25  O5S SGN d 306      87.780  17.488 104.299  0.00  0.00    -0.572 OA
ATOM     26  C2  SGN d 306      87.726  23.860 101.744  0.00  0.00     0.081 C 
ATOM     27  O5  SGN d 306      88.937  22.048 102.807  0.00  0.00    -0.350 OA
ATOM     28  C6  SGN d 306      88.043  20.714 104.625  0.00  0.00     0.067 C 
ATOM     29  S2  SGN d 306      88.995  18.198 104.584  0.00  0.00     0.251 S 
ATOM     30  S1  SGN d 306      87.282  25.650  99.726  0.00  0.00     0.156 S 
ATOM     31  O3S SGN d 306      87.356  27.081  99.565  0.00  0.00    -0.296 OA
ATOM     32  O4  SGN d 306      85.808  22.644 104.721  0.00  0.00    -0.348 OA
ATOM     33  O3  SGN d 306      85.558  24.457 102.547  0.00  0.00    -0.391 OA
ATOM     34  O6S SGN d 306      89.160  18.328 106.010  0.00  0.00    -0.572 OA
ATOM     35  C5  SGN d 306      88.082  22.092 103.989  0.00  0.00     0.091 C 
ATOM     36  O1  SGN d 306      89.815  24.257 102.892  0.00  0.00    -0.369 OA
ATOM     37  N   SGN d 306      87.919  25.213 101.305  0.00  0.00    -0.210 NA
ATOM     38  O6  SGN d 306      88.844  19.807 103.899  0.00  0.00    -0.254 OA
ATOM     39  C4  SGN d 306      86.670  22.558 103.572  0.00  0.00     0.095 C 
ATOM     40  O2S SGN d 306      88.101  24.997  98.753  0.00  0.00    -0.296 OA
ATOM     41  C1  SGN d 306      89.112  23.301 102.106  0.00  0.00     0.147 C 
ATOM     42  H   SGN d 306      87.226  24.614 103.695  0.00  0.00     0.089 H 
ATOM     43  H   SGN d 306      85.876  24.244  99.725  0.00  0.00     0.231 HD
ATOM     44  H   SGN d 306      87.288  23.214 101.012  0.00  0.00     0.076 H 
ATOM     45  H   SGN d 306      87.033  20.361 104.635  0.00  0.00     0.080 H 
ATOM     46  H   SGN d 306      88.421  20.786 105.623  0.00  0.00     0.080 H 
ATOM     47  H   SGN d 306      86.796  27.511 100.230  0.00  0.00     0.231 HD
ATOM     48  H   SGN d 306      85.176  23.865 101.880  0.00  0.00     0.210 HD
ATOM     49  H   SGN d 306      88.468  22.785 104.707  0.00  0.00     0.090 H 
ATOM     50  H   SGN d 306      89.912  25.081 102.389  0.00  0.00     0.212 HD
ATOM     51  H   SGN d 306      88.923  25.390 101.289  0.00  0.00     0.140 HD
ATOM     52  H   SGN d 306      86.245  21.863 102.879  0.00  0.00     0.091 H 
ATOM     53  H   SGN d 306      88.042  24.036  98.873  0.00  0.00     0.231 HD
ATOM     54  H   SGN d 306      89.692  23.116 101.226  0.00  0.00     0.131 H 
ATOM     55  C2  UAP d 301      71.283  10.291 103.862  0.00  0.00     0.132 C 
ATOM     56  S   UAP d 301      69.793   8.958 105.558  0.00  0.00     0.252 S 
ATOM     57  O1S UAP d 301      68.432   8.594 105.467  0.00  0.00    -0.572 OA
ATOM     58  C1  UAP d 301      72.524   9.781 103.160  0.00  0.00     0.161 C 
ATOM     59  O61 UAP d 301      70.696  11.380  98.949  0.00  0.00    -0.646 OA
ATOM     60  C5  UAP d 301      71.544  10.631 101.072  0.00  0.00     0.127 C 
ATOM     61  O3  UAP d 301      71.115  12.644 103.908  0.00  0.00    -0.393 OA
ATOM     62  O2  UAP d 301      70.347   9.270 103.937  0.00  0.00    -0.244 OA
ATOM     63  O5  UAP d 301      72.343   9.678 101.751  0.00  0.00    -0.343 OA
ATOM     64  C6  UAP d 301      71.431  10.573  99.553  0.00  0.00     0.203 C 
ATOM     65  O62 UAP d 301      72.082   9.669  98.986  0.00  0.00    -0.646 OA
ATOM     66  O3S UAP d 301      70.592   7.875 106.042  0.00  0.00    -0.572 OA
ATOM     67  O2S UAP d 301      69.935  10.146 106.363  0.00  0.00    -0.572 OA
ATOM     68  C3  UAP d 301      70.567  11.523 103.288  0.00  0.00     0.069 C 
ATOM     69  C4  UAP d 301      70.652  11.676 101.743  0.00  0.00    -0.005 C 
ATOM     70  H   UAP d 301      71.670  10.618 104.805  0.00  0.00     0.097 H 
ATOM     71  H   UAP d 301      72.773   8.791 103.480  0.00  0.00     0.133 H 
ATOM     72  H   UAP d 301      72.344  10.857 101.745  0.00  0.00     0.100 H 
ATOM     73  H   UAP d 301      71.058  12.541 104.870  0.00  0.00     0.210 HD
ATOM     74  H   UAP d 301      69.521  11.408 103.487  0.00  0.00     0.087 H 
ATOM     75  H   UAP d 301      69.664  11.587 101.339  0.00  0.00     0.041 H 
ATOM     76  H   UAP d 301      71.088  12.633 101.546  0.00  0.00     0.041 H 
ATOM     77  O5  IDS d 305      83.986  21.295 103.888  0.00  0.00    -0.340 OA
ATOM     78  O62 IDS d 305      82.283  20.872 101.741  0.00  0.00    -0.646 OA
ATOM     79  C1  IDS d 305      84.865  21.593 104.975  0.00  0.00     0.161 C 
ATOM     80  O3  IDS d 305      82.590  23.710 106.416  0.00  0.00    -0.390 OA
ATOM     81  C6  IDS d 305      81.926  21.776 102.531  0.00  0.00     0.206 C 
ATOM     82  C2  IDS d 305      84.111  21.903 106.295  0.00  0.00     0.134 C 
ATOM     83  C5  IDS d 305      82.715  21.892 103.835  0.00  0.00     0.152 C 
ATOM     84  C3  IDS d 305      82.635  22.344 106.300  0.00  0.00     0.094 C 
ATOM     85  S   IDS d 305      84.258  19.383 107.386  0.00  0.00     0.252 S 
ATOM     86  C4  IDS d 305      81.827  21.882 105.071  0.00  0.00     0.103 C 
ATOM     87  O3S IDS d 305      84.800  18.877 108.593  0.00  0.00    -0.572 OA
ATOM     88  O1S IDS d 305      84.963  18.849 106.276  0.00  0.00    -0.572 OA
ATOM     89  O2  IDS d 305      84.493  21.138 107.431  0.00  0.00    -0.244 OA
ATOM     90  O61 IDS d 305      80.853  22.392 102.418  0.00  0.00    -0.646 OA
ATOM     91  O2S IDS d 305      82.874  19.096 107.286  0.00  0.00    -0.572 OA
ATOM     92  H   IDS d 305      85.422  20.686 105.082  0.00  0.00     0.133 H 
ATOM     93  H   IDS d 305      83.103  23.985 107.193  0.00  0.00     0.210 HD
ATOM     94  H   IDS d 305      84.550  22.874 106.400  0.00  0.00     0.097 H 
ATOM     95  H   IDS d 305      83.098  22.892 103.841  0.00  0.00     0.104 H 
ATOM     96  H   IDS d 305      82.167  21.865 107.134  0.00  0.00     0.091 H 
ATOM     97  H   IDS d 305      81.001  22.551 104.948  0.00  0.00     0.092 H 
ATOM     98  O6  SGN d 304      78.023  18.568 102.070  0.00  0.00    -0.254 OA
ATOM     99  S2  SGN d 304      77.097  18.315 100.610  0.00  0.00     0.251 S 
ATOM    100  O5S SGN d 304      75.738  18.036 100.995  0.00  0.00    -0.572 OA
ATOM    101  N   SGN d 304      80.262  19.368 107.421  0.00  0.00    -0.210 NA
ATOM    102  O3S SGN d 304      78.391  20.119 109.066  0.00  0.00    -0.296 OA
ATOM    103  C6  SGN d 304      79.440  18.674 101.952  0.00  0.00     0.067 C 
ATOM    104  O3  SGN d 304      79.728  16.781 106.494  0.00  0.00    -0.391 OA
ATOM    105  C5  SGN d 304      79.987  18.797 103.352  0.00  0.00     0.091 C 
ATOM    106  O2S SGN d 304      80.600  20.625 109.625  0.00  0.00    -0.296 OA
ATOM    107  O1  SGN d 304      81.352  20.543 105.258  0.00  0.00    -0.348 OA
ATOM    108  O4S SGN d 304      77.153  19.500  99.810  0.00  0.00    -0.572 OA
ATOM    109  C1  SGN d 304      79.937  20.337 105.243  0.00  0.00     0.150 C 
ATOM    110  C3  SGN d 304      80.113  17.834 105.631  0.00  0.00     0.083 C 
ATOM    111  C2  SGN d 304      79.567  19.158 106.176  0.00  0.00     0.081 C 
ATOM    112  S1  SGN d 304      79.653  20.557 108.565  0.00  0.00     0.156 S 
ATOM    113  O6S SGN d 304      77.659  17.186  99.905  0.00  0.00    -0.572 OA
ATOM    114  O1S SGN d 304      79.509  21.839 107.937  0.00  0.00    -0.296 OA
ATOM    115  O5  SGN d 304      79.469  20.031 103.917  0.00  0.00    -0.349 OA
ATOM    116  C4  SGN d 304      79.537  17.616 104.237  0.00  0.00     0.095 C 
ATOM    117  O4  SGN d 304      80.062  16.382 103.723  0.00  0.00    -0.348 OA
ATOM    118  H   SGN d 304      81.216  19.644 107.186  0.00  0.00     0.140 HD
ATOM    119  H   SGN d 304      78.494  19.252 109.490  0.00  0.00     0.231 HD
ATOM    120  H   SGN d 304      79.698  19.540 101.379  0.00  0.00     0.080 H 
ATOM    121  H   SGN d 304      79.847  17.819 101.455  0.00  0.00     0.080 H 
ATOM    122  H   SGN d 304      80.101  16.933 107.376  0.00  0.00     0.210 HD
ATOM    123  H   SGN d 304      81.056  18.795 103.317  0.00  0.00     0.090 H 
ATOM    124  H   SGN d 304      80.686  19.752 110.038  0.00  0.00     0.231 HD
ATOM    125  H   SGN d 304      79.472  21.241 105.580  0.00  0.00     0.131 H 
ATOM    126  H   SGN d 304      81.181  17.858 105.577  0.00  0.00     0.089 H 
ATOM    127  H   SGN d 304      78.502  19.115 106.268  0.00  0.00     0.076 H 
ATOM    128  H   SGN d 304      78.861  21.776 107.218  0.00  0.00     0.231 HD
ATOM    129  H   SGN d 304      78.468  17.564 104.254  0.00  0.00     0.091 H 
ATOM    130  O5S SGN d 302      75.377   8.552 109.310  0.00  0.00    -0.572 OA
ATOM    131  C4  SGN d 302      74.841  10.264 103.585  0.00  0.00     0.095 C 
ATOM    132  O1S SGN d 302      77.988   9.588  99.152  0.00  0.00    -0.296 OA
ATOM    133  O3  SGN d 302      75.077  10.216 101.202  0.00  0.00    -0.391 OA
ATOM    134  O2S SGN d 302      78.727   8.416 101.067  0.00  0.00    -0.296 OA
ATOM    135  C1  SGN d 302      77.672  10.816 103.849  0.00  0.00     0.150 C 
ATOM    136  C5  SGN d 302      75.440  10.847 104.857  0.00  0.00     0.091 C 
ATOM    137  O3S SGN d 302      80.033  10.164 100.207  0.00  0.00    -0.296 OA
ATOM    138  O5  SGN d 302      76.826  10.427 104.964  0.00  0.00    -0.349 OA
ATOM    139  C6  SGN d 302      74.633  10.378 106.059  0.00  0.00     0.067 C 
ATOM    140  S1  SGN d 302      78.688   9.686 100.409  0.00  0.00     0.156 S 
ATOM    141  O4S SGN d 302      75.867  10.860 109.178  0.00  0.00    -0.572 OA
ATOM    142  O6S SGN d 302      73.664  10.075 108.805  0.00  0.00    -0.572 OA
ATOM    143  O4  SGN d 302      73.521  10.710 103.474  0.00  0.00    -0.348 OA
ATOM    144  N   SGN d 302      77.814  10.802 101.467  0.00  0.00    -0.210 NA
ATOM    145  C3  SGN d 302      75.633  10.754 102.389  0.00  0.00     0.083 C 
ATOM    146  C2  SGN d 302      77.057  10.252 102.566  0.00  0.00     0.081 C 
ATOM    147  S2  SGN d 302      75.069   9.790 108.648  0.00  0.00     0.251 S 
ATOM    148  O6  SGN d 302      75.418   9.603 106.937  0.00  0.00    -0.254 OA
ATOM    149  O1  SGN d 302      77.738  12.233 103.689  0.00  0.00    -0.348 OA
ATOM    150  H   SGN d 302      74.871   9.196 103.619  0.00  0.00     0.091 H 
ATOM    151  H   SGN d 302      78.462   8.978  98.566  0.00  0.00     0.231 HD
ATOM    152  H   SGN d 302      74.169  10.540 101.094  0.00  0.00     0.210 HD
ATOM    153  H   SGN d 302      79.201   7.778 100.512  0.00  0.00     0.231 HD
ATOM    154  H   SGN d 302      78.656  10.442 104.042  0.00  0.00     0.131 H 
ATOM    155  H   SGN d 302      75.407  11.916 104.826  0.00  0.00     0.090 H 
ATOM    156  H   SGN d 302      80.511   9.551  99.627  0.00  0.00     0.231 HD
ATOM    157  H   SGN d 302      73.809   9.788 105.716  0.00  0.00     0.080 H 
ATOM    158  H   SGN d 302      74.288  11.241 106.589  0.00  0.00     0.080 H 
ATOM    159  H   SGN d 302      77.162  11.324 100.882  0.00  0.00     0.140 HD
ATOM    160  H   SGN d 302      75.611  11.821 102.319  0.00  0.00     0.089 H 
ATOM    161  H   SGN d 302      77.067   9.182 102.604  0.00  0.00     0.076 H 
ENDROOT
TORSDOF 50
ENDMDL
MODEL 4
REMARK VINA RESULT:     -12.7      3.641     15.238
REMARK  0 active torsions:
REMARK  status: ('A' for Active; 'I' for Inactive)
REMARK       I    between atoms: S_1  and  O2_2 
REMARK       I    between atoms: O2_2  and  C2_99 
REMARK       I    between atoms: C3_3  and  O3_50 
REMARK       I    between atoms: C2_5  and  O2_57 
REMARK       I    between atoms: O1S_6  and  S1_33 
REMARK       I    between atoms: O3_7  and  C3_52 
REMARK       I    between atoms: O6_9  and  C6_34 
REMARK       I    between atoms: O6_9  and  S2_17 
REMARK       I    between atoms: C2_13  and  N_73 
REMARK       I    between atoms: S_16  and  O2_57 
REMARK       I    between atoms: C1_20  and  O4_43 
REMARK       I    between atoms: C6_21  and  C5_67 
REMARK       I    between atoms: C6_21  and  O6_75 
REMARK       I    between atoms: N_22  and  C2_66 
REMARK       I    between atoms: N_22  and  S1_69 
REMARK       I    between atoms: S2_23  and  O6_75 
REMARK       I    between atoms: C1_24  and  O4_78 
REMARK       I    between atoms: C4_25  and  O4_78 
REMARK       I    between atoms: O3_26  and  C3_81 
REMARK       I    between atoms: O1S_27  and  S1_60 
REMARK       I    between atoms: O3S_28  and  S1_69 
REMARK       I    between atoms: O3_29  and  C3_87 
REMARK       I    between atoms: C6_30  and  C5_80 
REMARK       I    between atoms: O2S_32  and  S1_60 
REMARK       I    between atoms: S1_33  and  N_73 
REMARK       I    between atoms: S1_33  and  O2S_94 
REMARK       I    between atoms: S1_33  and  O3S_35 
REMARK       I    between atoms: C6_34  and  C5_38 
REMARK       I    between atoms: C2_36  and  O2_93 
REMARK       I    between atoms: O3_37  and  C3_65 
REMARK       I    between atoms: C1_40  and  O1_105 
REMARK       I    between atoms: O2S_41  and  S1_69 
REMARK       I    between atoms: C5_42  and  C6_54 
REMARK       I    between atoms: O4_43  and  C4_92 
REMARK       I    between atoms: O1_44  and  C1_62 
REMARK       I    between atoms: O1_44  and  C4_83 
REMARK       I    between atoms: C1_45  and  O4_102 
REMARK       I    between atoms: C4_46  and  O1_105 
REMARK       I    between atoms: O3S_47  and  S1_60 
REMARK       I    between atoms: C5_53  and  C6_61 
REMARK       I    between atoms: C6_54  and  O6_98 
REMARK       I    between atoms: O3_56  and  C3_84 
REMARK       I    between atoms: C5_59  and  C6_63 
REMARK       I    between atoms: S1_60  and  N_86 
REMARK       I    between atoms: S1_69  and  O1S_91 
REMARK       I    between atoms: O1_70  and  C1_96 
REMARK       I    between atoms: S_82  and  O2_93 
REMARK       I    between atoms: N_86  and  C2_90 
REMARK       I    between atoms: S2_95  and  O6_98 
REMARK       I    between atoms: C4_100  and  O4_102 
ROOT
ATOM      1  S   IDS d 303      79.920  18.661 107.390  0.00  0.00     0.252 S 
ATOM      2  O2  IDS d 303      81.119  19.149 106.208  0.00  0.00    -0.244 OA
ATOM      3  O61 IDS d 303      83.230  21.650 101.524  0.00  0.00    -0.646 OA
ATOM      4  O3  IDS d 303      82.391  17.415 103.373  0.00  0.00    -0.390 OA
ATOM      5  O3S IDS d 303      79.998  17.224 107.490  0.00  0.00    -0.572 OA
ATOM      6  C1  IDS d 303      80.040  19.365 104.078  0.00  0.00     0.161 C 
ATOM      7  C4  IDS d 303      83.054  19.668 103.966  0.00  0.00     0.103 C 
ATOM      8  O2S IDS d 303      80.225  19.304 108.638  0.00  0.00    -0.572 OA
ATOM      9  C3  IDS d 303      82.410  18.333 104.403  0.00  0.00     0.094 C 
ATOM     10  C5  IDS d 303      82.024  20.465 103.170  0.00  0.00     0.152 C 
ATOM     11  C6  IDS d 303      82.609  21.720 102.587  0.00  0.00     0.206 C 
ATOM     12  O62 IDS d 303      82.246  22.789 103.115  0.00  0.00    -0.646 OA
ATOM     13  O5  IDS d 303      80.687  20.548 103.628  0.00  0.00    -0.340 OA
ATOM     14  C2  IDS d 303      80.993  18.537 104.965  0.00  0.00     0.134 C 
ATOM     15  O1S IDS d 303      78.645  19.083 106.910  0.00  0.00    -0.572 OA
ATOM     16  H   IDS d 303      83.289  17.296 103.029  0.00  0.00     0.210 HD
ATOM     17  H   IDS d 303      79.194  19.701 104.640  0.00  0.00     0.133 H 
ATOM     18  H   IDS d 303      83.936  19.452 103.399  0.00  0.00     0.092 H 
ATOM     19  H   IDS d 303      83.024  17.941 105.188  0.00  0.00     0.091 H 
ATOM     20  H   IDS d 303      81.809  19.804 102.356  0.00  0.00     0.104 H 
ATOM     21  H   IDS d 303      80.540  17.569 105.020  0.00  0.00     0.097 H 
ATOM     22  C3  SGN d 306      71.842  12.610 100.023  0.00  0.00     0.083 C 
ATOM     23  O1S SGN d 306      69.207  13.890 102.256  0.00  0.00    -0.296 OA
ATOM     24  O4S SGN d 306      77.471   8.644 102.443  0.00  0.00    -0.572 OA
ATOM     25  O5S SGN d 306      77.943  10.943 102.156  0.00  0.00    -0.572 OA
ATOM     26  C2  SGN d 306      71.207  11.795 101.140  0.00  0.00     0.081 C 
ATOM     27  O5  SGN d 306      73.145  10.339 101.165  0.00  0.00    -0.350 OA
ATOM     28  C6  SGN d 306      75.306  10.957 100.250  0.00  0.00     0.067 C 
ATOM     29  S2  SGN d 306      77.329   9.781 101.578  0.00  0.00     0.251 S 
ATOM     30  S1  SGN d 306      68.717  12.566 101.967  0.00  0.00     0.156 S 
ATOM     31  O3S SGN d 306      67.400  12.638 101.384  0.00  0.00    -0.296 OA
ATOM     32  O4  SGN d 306      73.968  13.347  99.143  0.00  0.00    -0.348 OA
ATOM     33  O3  SGN d 306      71.358  13.938 100.097  0.00  0.00    -0.391 OA
ATOM     34  O6S SGN d 306      77.909   9.515 100.286  0.00  0.00    -0.572 OA
ATOM     35  C5  SGN d 306      73.801  11.097 100.104  0.00  0.00     0.091 C 
ATOM     36  O1  SGN d 306      71.187   9.668  99.995  0.00  0.00    -0.369 OA
ATOM     37  N   SGN d 306      69.803  11.766 100.839  0.00  0.00    -0.210 NA
ATOM     38  O6  SGN d 306      75.624  10.136 101.352  0.00  0.00    -0.254 OA
ATOM     39  C4  SGN d 306      73.364  12.575 100.197  0.00  0.00     0.095 C 
ATOM     40  O2S SGN d 306      68.692  11.769 103.154  0.00  0.00    -0.296 OA
ATOM     41  C1  SGN d 306      71.699  10.339 101.141  0.00  0.00     0.147 C 
ATOM     42  H   SGN d 306      71.594  12.206  99.065  0.00  0.00     0.089 H 
ATOM     43  H   SGN d 306      70.092  13.829 102.647  0.00  0.00     0.231 HD
ATOM     44  H   SGN d 306      71.449  12.229 102.088  0.00  0.00     0.076 H 
ATOM     45  H   SGN d 306      75.736  11.925 100.397  0.00  0.00     0.080 H 
ATOM     46  H   SGN d 306      75.697  10.508  99.361  0.00  0.00     0.080 H 
ATOM     47  H   SGN d 306      67.431  13.181 100.581  0.00  0.00     0.231 HD
ATOM     48  H   SGN d 306      71.578  14.316 100.963  0.00  0.00     0.210 HD
ATOM     49  H   SGN d 306      73.518  10.721  99.142  0.00  0.00     0.090 H 
ATOM     50  H   SGN d 306      70.217   9.689 100.015  0.00  0.00     0.212 HD
ATOM     51  H   SGN d 306      69.522  10.787 100.786  0.00  0.00     0.140 HD
ATOM     52  H   SGN d 306      73.666  12.988 101.137  0.00  0.00     0.091 H 
ATOM     53  H   SGN d 306      69.584  11.729 103.534  0.00  0.00     0.231 HD
ATOM     54  H   SGN d 306      71.348   9.817 102.007  0.00  0.00     0.131 H 
ATOM     55  C2  UAP d 301      85.895  26.678 105.801  0.00  0.00     0.132 C 
ATOM     56  S   UAP d 301      88.066  27.897 104.979  0.00  0.00     0.252 S 
ATOM     57  O1S UAP d 301      88.498  29.220 105.211  0.00  0.00    -0.572 OA
ATOM     58  C1  UAP d 301      85.832  25.455 106.693  0.00  0.00     0.161 C 
ATOM     59  O61 UAP d 301      82.580  27.756 109.478  0.00  0.00    -0.646 OA
ATOM     60  C5  UAP d 301      84.180  26.674 108.043  0.00  0.00     0.127 C 
ATOM     61  O3  UAP d 301      83.920  27.061 104.570  0.00  0.00    -0.393 OA
ATOM     62  O2  UAP d 301      86.922  27.505 106.232  0.00  0.00    -0.244 OA
ATOM     63  O5  UAP d 301      85.239  25.738 107.956  0.00  0.00    -0.343 OA
ATOM     64  C6  UAP d 301      83.484  26.902 109.380  0.00  0.00     0.203 C 
ATOM     65  O62 UAP d 301      83.898  26.218 110.341  0.00  0.00    -0.646 OA
ATOM     66  O3S UAP d 301      89.140  26.963 105.127  0.00  0.00    -0.572 OA
ATOM     67  O2S UAP d 301      87.432  27.802 103.688  0.00  0.00    -0.572 OA
ATOM     68  C3  UAP d 301      84.638  27.550 105.659  0.00  0.00     0.069 C 
ATOM     69  C4  UAP d 301      83.725  27.603 106.916  0.00  0.00    -0.005 C 
ATOM     70  H   UAP d 301      86.039  26.249 104.832  0.00  0.00     0.097 H 
ATOM     71  H   UAP d 301      86.812  25.090 106.922  0.00  0.00     0.133 H 
ATOM     72  H   UAP d 301      84.224  25.847 107.366  0.00  0.00     0.100 H 
ATOM     73  H   UAP d 301      84.496  27.031 103.790  0.00  0.00     0.210 HD
ATOM     74  H   UAP d 301      84.963  28.561 105.522  0.00  0.00     0.087 H 
ATOM     75  H   UAP d 301      83.720  28.607 107.287  0.00  0.00     0.041 H 
ATOM     76  H   UAP d 301      82.753  27.276 106.612  0.00  0.00     0.041 H 
ATOM     77  O5  IDS d 305      74.930  15.096 100.502  0.00  0.00    -0.340 OA
ATOM     78  O62 IDS d 305      74.427  16.919 102.531  0.00  0.00    -0.646 OA
ATOM     79  C1  IDS d 305      75.110  14.164  99.434  0.00  0.00     0.161 C 
ATOM     80  O3  IDS d 305      74.289  16.504  97.070  0.00  0.00    -0.390 OA
ATOM     81  C6  IDS d 305      74.089  17.294 101.385  0.00  0.00     0.206 C 
ATOM     82  C2  IDS d 305      75.595  14.836  98.122  0.00  0.00     0.134 C 
ATOM     83  C5  IDS d 305      74.545  16.418 100.218  0.00  0.00     0.152 C 
ATOM     84  C3  IDS d 305      75.398  16.341  97.862  0.00  0.00     0.094 C 
ATOM     85  S   IDS d 305      78.284  14.367  98.457  0.00  0.00     0.252 S 
ATOM     86  C4  IDS d 305      75.279  17.198  99.137  0.00  0.00     0.103 C 
ATOM     87  O3S IDS d 305      79.256  13.685  97.683  0.00  0.00    -0.572 OA
ATOM     88  O1S IDS d 305      78.103  13.707  99.700  0.00  0.00    -0.572 OA
ATOM     89  O2  IDS d 305      76.772  14.295  97.537  0.00  0.00    -0.244 OA
ATOM     90  O61 IDS d 305      73.634  18.426 101.147  0.00  0.00    -0.646 OA
ATOM     91  O2S IDS d 305      78.648  15.722  98.657  0.00  0.00    -0.572 OA
ATOM     92  H   IDS d 305      75.876  13.519  99.812  0.00  0.00     0.133 H 
ATOM     93  H   IDS d 305      74.379  15.959  96.273  0.00  0.00     0.210 HD
ATOM     94  H   IDS d 305      74.761  14.483  97.550  0.00  0.00     0.097 H 
ATOM     95  H   IDS d 305      73.644  16.130  99.716  0.00  0.00     0.104 H 
ATOM     96  H   IDS d 305      76.282  16.694  97.374  0.00  0.00     0.091 H 
ATOM     97  H   IDS d 305      74.743  18.090  98.887  0.00  0.00     0.092 H 
ATOM     98  O6  SGN d 304      77.084  20.905 103.316  0.00  0.00    -0.254 OA
ATOM     99  S2  SGN d 304      76.684  21.918 104.683  0.00  0.00     0.251 S 
ATOM    100  O5S SGN d 304      77.279  23.209 104.462  0.00  0.00    -0.572 OA
ATOM    101  N   SGN d 304      78.798  18.328  98.345  0.00  0.00    -0.210 NA
ATOM    102  O3S SGN d 304      79.202  20.124  96.505  0.00  0.00    -0.296 OA
ATOM    103  C6  SGN d 304      76.763  19.518 103.396  0.00  0.00     0.067 C 
ATOM    104  O3  SGN d 304      80.619  18.692 100.440  0.00  0.00    -0.391 OA
ATOM    105  C5  SGN d 304      77.290  18.875 102.138  0.00  0.00     0.091 C 
ATOM    106  O2S SGN d 304      78.779  17.934  95.816  0.00  0.00    -0.296 OA
ATOM    107  O1  SGN d 304      76.578  17.530  99.642  0.00  0.00    -0.348 OA
ATOM    108  O4S SGN d 304      75.260  22.036 104.776  0.00  0.00    -0.572 OA
ATOM    109  C1  SGN d 304      76.919  18.917  99.728  0.00  0.00     0.150 C 
ATOM    110  C3  SGN d 304      79.239  18.477 100.662  0.00  0.00     0.083 C 
ATOM    111  C2  SGN d 304      78.441  19.099  99.511  0.00  0.00     0.081 C 
ATOM    112  S1  SGN d 304      78.422  18.952  96.744  0.00  0.00     0.156 S 
ATOM    113  O6S SGN d 304      77.233  21.311 105.875  0.00  0.00    -0.572 OA
ATOM    114  O1S SGN d 304      77.026  19.265  96.635  0.00  0.00    -0.296 OA
ATOM    115  O5  SGN d 304      76.576  19.458 101.016  0.00  0.00    -0.349 OA
ATOM    116  C4  SGN d 304      78.799  19.140 101.962  0.00  0.00     0.095 C 
ATOM    117  O4  SGN d 304      79.538  18.545 103.039  0.00  0.00    -0.348 OA
ATOM    118  H   SGN d 304      78.328  17.427  98.430  0.00  0.00     0.140 HD
ATOM    119  H   SGN d 304      80.144  19.906  96.580  0.00  0.00     0.231 HD
ATOM    120  H   SGN d 304      75.702  19.389 103.459  0.00  0.00     0.080 H 
ATOM    121  H   SGN d 304      77.199  19.074 104.266  0.00  0.00     0.080 H 
ATOM    122  H   SGN d 304      80.884  18.265  99.610  0.00  0.00     0.210 HD
ATOM    123  H   SGN d 304      77.144  17.816 102.193  0.00  0.00     0.090 H 
ATOM    124  H   SGN d 304      79.724  17.734  95.903  0.00  0.00     0.231 HD
ATOM    125  H   SGN d 304      76.368  19.435  98.970  0.00  0.00     0.131 H 
ATOM    126  H   SGN d 304      79.062  17.423 100.719  0.00  0.00     0.089 H 
ATOM    127  H   SGN d 304      78.652  20.144  99.428  0.00  0.00     0.076 H 
ATOM    128  H   SGN d 304      76.800  19.960  97.273  0.00  0.00     0.231 HD
ATOM    129  H   SGN d 304      78.981  20.194 101.949  0.00  0.00     0.091 H 
ATOM    130  O5S SGN d 302      89.611  22.016 102.071  0.00  0.00    -0.572 OA
ATOM    131  C4  SGN d 302      85.349  23.166 106.133  0.00  0.00     0.095 C 
ATOM    132  O1S SGN d 302      83.336  20.335 110.369  0.00  0.00    -0.296 OA
ATOM    133  O3  SGN d 302      84.172  23.119 108.219  0.00  0.00    -0.391 OA
ATOM    134  O2S SGN d 302      85.208  19.340 109.325  0.00  0.00    -0.296 OA
ATOM    135  C1  SGN d 302      84.666  20.388 105.689  0.00  0.00     0.150 C 
ATOM    136  C5  SGN d 302      85.412  22.524 104.755  0.00  0.00     0.091 C 
ATOM    137  O3S SGN d 302      83.121  18.275 109.213  0.00  0.00    -0.296 OA
ATOM    138  O5  SGN d 302      85.659  21.101 104.905  0.00  0.00    -0.349 OA
ATOM    139  C6  SGN d 302      86.512  23.185 103.936  0.00  0.00     0.067 C 
ATOM    140  S1  SGN d 302      83.795  19.549 109.251  0.00  0.00     0.156 S 
ATOM    141  O4S SGN d 302      87.506  21.756 101.030  0.00  0.00    -0.572 OA
ATOM    142  O6S SGN d 302      88.261  23.899 101.699  0.00  0.00    -0.572 OA
ATOM    143  O4  SGN d 302      85.071  24.527 105.975  0.00  0.00    -0.348 OA
ATOM    144  N   SGN d 302      83.472  20.436 107.755  0.00  0.00    -0.210 NA
ATOM    145  C3  SGN d 302      84.236  22.522 106.936  0.00  0.00     0.083 C 
ATOM    146  C2  SGN d 302      84.583  21.048 107.068  0.00  0.00     0.081 C 
ATOM    147  S2  SGN d 302      88.256  22.490 102.009  0.00  0.00     0.251 S 
ATOM    148  O6  SGN d 302      87.520  22.263 103.588  0.00  0.00    -0.254 OA
ATOM    149  O1  SGN d 302      83.362  20.467 105.114  0.00  0.00    -0.348 OA
ATOM    150  H   SGN d 302      86.280  23.034 106.645  0.00  0.00     0.091 H 
ATOM    151  H   SGN d 302      83.509  19.856 111.194  0.00  0.00     0.231 HD
ATOM    152  H   SGN d 302      83.950  24.059 108.128  0.00  0.00     0.210 HD
ATOM    153  H   SGN d 302      85.421  18.854 110.138  0.00  0.00     0.231 HD
ATOM    154  H   SGN d 302      84.963  19.361 105.734  0.00  0.00     0.131 H 
ATOM    155  H   SGN d 302      84.484  22.659 104.241  0.00  0.00     0.090 H 
ATOM    156  H   SGN d 302      83.299  17.791 110.034  0.00  0.00     0.231 HD
ATOM    157  H   SGN d 302      86.947  23.975 104.512  0.00  0.00     0.080 H 
ATOM    158  H   SGN d 302      86.078  23.566 103.036  0.00  0.00     0.080 H 
ATOM    159  H   SGN d 302      82.810  21.179 107.981  0.00  0.00     0.140 HD
ATOM    160  H   SGN d 302      83.289  22.650 106.457  0.00  0.00     0.089 H 
ATOM    161  H   SGN d 302      85.519  20.935 107.576  0.00  0.00     0.076 H 
ENDROOT
TORSDOF 50
ENDMDL
MODEL 5
REMARK VINA RESULT:     -12.6      4.553     15.048
REMARK  0 active torsions:
REMARK  status: ('A' for Active; 'I' for Inactive)
REMARK       I    between atoms: S_1  and  O2_2 
REMARK       I    between atoms: O2_2  and  C2_99 
REMARK       I    between atoms: C3_3  and  O3_50 
REMARK       I    between atoms: C2_5  and  O2_57 
REMARK       I    between atoms: O1S_6  and  S1_33 
REMARK       I    between atoms: O3_7  and  C3_52 
REMARK       I    between atoms: O6_9  and  C6_34 
REMARK       I    between atoms: O6_9  and  S2_17 
REMARK       I    between atoms: C2_13  and  N_73 
REMARK       I    between atoms: S_16  and  O2_57 
REMARK       I    between atoms: C1_20  and  O4_43 
REMARK       I    between atoms: C6_21  and  C5_67 
REMARK       I    between atoms: C6_21  and  O6_75 
REMARK       I    between atoms: N_22  and  C2_66 
REMARK       I    between atoms: N_22  and  S1_69 
REMARK       I    between atoms: S2_23  and  O6_75 
REMARK       I    between atoms: C1_24  and  O4_78 
REMARK       I    between atoms: C4_25  and  O4_78 
REMARK       I    between atoms: O3_26  and  C3_81 
REMARK       I    between atoms: O1S_27  and  S1_60 
REMARK       I    between atoms: O3S_28  and  S1_69 
REMARK       I    between atoms: O3_29  and  C3_87 
REMARK       I    between atoms: C6_30  and  C5_80 
REMARK       I    between atoms: O2S_32  and  S1_60 
REMARK       I    between atoms: S1_33  and  N_73 
REMARK       I    between atoms: S1_33  and  O2S_94 
REMARK       I    between atoms: S1_33  and  O3S_35 
REMARK       I    between atoms: C6_34  and  C5_38 
REMARK       I    between atoms: C2_36  and  O2_93 
REMARK       I    between atoms: O3_37  and  C3_65 
REMARK       I    between atoms: C1_40  and  O1_105 
REMARK       I    between atoms: O2S_41  and  S1_69 
REMARK       I    between atoms: C5_42  and  C6_54 
REMARK       I    between atoms: O4_43  and  C4_92 
REMARK       I    between atoms: O1_44  and  C1_62 
REMARK       I    between atoms: O1_44  and  C4_83 
REMARK       I    between atoms: C1_45  and  O4_102 
REMARK       I    between atoms: C4_46  and  O1_105 
REMARK       I    between atoms: O3S_47  and  S1_60 
REMARK       I    between atoms: C5_53  and  C6_61 
REMARK       I    between atoms: C6_54  and  O6_98 
REMARK       I    between atoms: O3_56  and  C3_84 
REMARK       I    between atoms: C5_59  and  C6_63 
REMARK       I    between atoms: S1_60  and  N_86 
REMARK       I    between atoms: S1_69  and  O1S_91 
REMARK       I    between atoms: O1_70  and  C1_96 
REMARK       I    between atoms: S_82  and  O2_93 
REMARK       I    between atoms: N_86  and  C2_90 
REMARK       I    between atoms: S2_95  and  O6_98 
REMARK       I    between atoms: C4_100  and  O4_102 
ROOT
ATOM      1  S   IDS d 303      84.488  22.203  97.597  0.00  0.00     0.252 S 
ATOM      2  O2  IDS d 303      84.574  23.761  98.395  0.00  0.00    -0.244 OA
ATOM      3  O61 IDS d 303      85.951  27.591 102.406  0.00  0.00    -0.646 OA
ATOM      4  O3  IDS d 303      82.250  25.367 100.559  0.00  0.00    -0.390 OA
ATOM      5  O3S IDS d 303      83.091  21.935  97.361  0.00  0.00    -0.572 OA
ATOM      6  C1  IDS d 303      84.679  23.396 100.762  0.00  0.00     0.161 C 
ATOM      7  C4  IDS d 303      84.404  26.312  99.980  0.00  0.00     0.103 C 
ATOM      8  O2S IDS d 303      85.236  22.279  96.372  0.00  0.00    -0.572 OA
ATOM      9  C3  IDS d 303      83.286  25.297  99.650  0.00  0.00     0.094 C 
ATOM     10  C5  IDS d 303      85.255  25.745 101.113  0.00  0.00     0.152 C 
ATOM     11  C6  IDS d 303      86.285  26.728 101.591  0.00  0.00     0.206 C 
ATOM     12  O62 IDS d 303      87.466  26.474 101.288  0.00  0.00    -0.646 OA
ATOM     13  O5  IDS d 303      85.646  24.384 101.090  0.00  0.00    -0.340 OA
ATOM     14  C2  IDS d 303      83.825  23.858  99.563  0.00  0.00     0.134 C 
ATOM     15  O1S IDS d 303      85.065  21.238  98.474  0.00  0.00    -0.572 OA
ATOM     16  H   IDS d 303      81.920  26.278 100.603  0.00  0.00     0.210 HD
ATOM     17  H   IDS d 303      85.241  22.520 100.514  0.00  0.00     0.133 H 
ATOM     18  H   IDS d 303      83.951  27.248 100.232  0.00  0.00     0.092 H 
ATOM     19  H   IDS d 303      82.904  25.565  98.687  0.00  0.00     0.091 H 
ATOM     20  H   IDS d 303      84.535  25.628 101.896  0.00  0.00     0.104 H 
ATOM     21  H   IDS d 303      82.974  23.209  99.570  0.00  0.00     0.097 H 
ATOM     22  C3  SGN d 306      79.037  15.397 106.546  0.00  0.00     0.083 C 
ATOM     23  O1S SGN d 306      81.084  12.586 105.331  0.00  0.00    -0.296 OA
ATOM     24  O4S SGN d 306      74.490  19.119 102.217  0.00  0.00    -0.572 OA
ATOM     25  O5S SGN d 306      76.599  20.140 102.534  0.00  0.00    -0.572 OA
ATOM     26  C2  SGN d 306      78.520  14.313 105.612  0.00  0.00     0.081 C 
ATOM     27  O5  SGN d 306      76.751  15.801 104.880  0.00  0.00    -0.350 OA
ATOM     28  C6  SGN d 306      76.825  18.211 105.144  0.00  0.00     0.067 C 
ATOM     29  S2  SGN d 306      75.499  19.475 103.174  0.00  0.00     0.251 S 
ATOM     30  S1  SGN d 306      79.845  11.920 105.646  0.00  0.00     0.156 S 
ATOM     31  O3S SGN d 306      80.074  10.868 106.604  0.00  0.00    -0.296 OA
ATOM     32  O4  SGN d 306      79.237  17.792 106.797  0.00  0.00    -0.348 OA
ATOM     33  O3  SGN d 306      80.428  15.212 106.732  0.00  0.00    -0.391 OA
ATOM     34  O6S SGN d 306      74.949  20.322 104.203  0.00  0.00    -0.572 OA
ATOM     35  C5  SGN d 306      77.217  16.876 105.751  0.00  0.00     0.091 C 
ATOM     36  O1  SGN d 306      76.291  14.151 106.531  0.00  0.00    -0.369 OA
ATOM     37  N   SGN d 306      78.707  13.078 106.321  0.00  0.00    -0.210 NA
ATOM     38  O6  SGN d 306      76.125  18.022 103.934  0.00  0.00    -0.254 OA
ATOM     39  C4  SGN d 306      78.748  16.763 105.916  0.00  0.00     0.095 C 
ATOM     40  O2S SGN d 306      79.244  11.392 104.460  0.00  0.00    -0.296 OA
ATOM     41  C1  SGN d 306      77.014  14.456 105.342  0.00  0.00     0.147 C 
ATOM     42  H   SGN d 306      78.552  15.344 107.498  0.00  0.00     0.089 H 
ATOM     43  H   SGN d 306      80.918  13.291 104.686  0.00  0.00     0.231 HD
ATOM     44  H   SGN d 306      79.033  14.368 104.674  0.00  0.00     0.076 H 
ATOM     45  H   SGN d 306      77.709  18.783 104.953  0.00  0.00     0.080 H 
ATOM     46  H   SGN d 306      76.190  18.729 105.833  0.00  0.00     0.080 H 
ATOM     47  H   SGN d 306      80.481  11.240 107.401  0.00  0.00     0.231 HD
ATOM     48  H   SGN d 306      80.878  15.258 105.874  0.00  0.00     0.210 HD
ATOM     49  H   SGN d 306      76.766  16.799 106.719  0.00  0.00     0.090 H 
ATOM     50  H   SGN d 306      76.493  13.243 106.808  0.00  0.00     0.212 HD
ATOM     51  H   SGN d 306      77.798  12.617 106.377  0.00  0.00     0.140 HD
ATOM     52  H   SGN d 306      79.228  16.872 104.967  0.00  0.00     0.091 H 
ATOM     53  H   SGN d 306      79.095  12.110 103.826  0.00  0.00     0.231 HD
ATOM     54  H   SGN d 306      76.694  13.772 104.584  0.00  0.00     0.131 H 
ATOM     55  C2  UAP d 301      90.961  29.979  97.949  0.00  0.00     0.132 C 
ATOM     56  S   UAP d 301      91.631  32.505  98.170  0.00  0.00     0.252 S 
ATOM     57  O1S UAP d 301      92.872  33.131  97.927  0.00  0.00    -0.572 OA
ATOM     58  C1  UAP d 301      89.911  29.405  97.022  0.00  0.00     0.161 C 
ATOM     59  O61 UAP d 301      93.143  26.085  95.553  0.00  0.00    -0.646 OA
ATOM     60  C5  UAP d 301      91.592  27.747  96.341  0.00  0.00     0.127 C 
ATOM     61  O3  UAP d 301      91.521  28.561  99.748  0.00  0.00    -0.393 OA
ATOM     62  O2  UAP d 301      91.639  30.999  97.297  0.00  0.00    -0.244 OA
ATOM     63  O5  UAP d 301      90.475  28.558  96.025  0.00  0.00    -0.343 OA
ATOM     64  C6  UAP d 301      92.133  26.772  95.301  0.00  0.00     0.203 C 
ATOM     65  O62 UAP d 301      91.528  26.741  94.208  0.00  0.00    -0.646 OA
ATOM     66  O3S UAP d 301      90.547  33.265  97.628  0.00  0.00    -0.572 OA
ATOM     67  O2S UAP d 301      91.471  32.253  99.581  0.00  0.00    -0.572 OA
ATOM     68  C3  UAP d 301      92.020  29.034  98.537  0.00  0.00     0.069 C 
ATOM     69  C4  UAP d 301      92.419  27.840  97.625  0.00  0.00    -0.005 C 
ATOM     70  H   UAP d 301      90.380  30.292  98.790  0.00  0.00     0.097 H 
ATOM     71  H   UAP d 301      89.408  30.177  96.477  0.00  0.00     0.133 H 
ATOM     72  H   UAP d 301      90.684  27.798  96.902  0.00  0.00     0.100 H 
ATOM     73  H   UAP d 301      91.275  29.311 100.311  0.00  0.00     0.210 HD
ATOM     74  H   UAP d 301      92.924  29.596  98.651  0.00  0.00     0.087 H 
ATOM     75  H   UAP d 301      93.449  27.949  97.356  0.00  0.00     0.041 H 
ATOM     76  H   UAP d 301      92.235  26.945  98.181  0.00  0.00     0.041 H 
ATOM     77  O5  IDS d 305      80.956  18.691 105.358  0.00  0.00    -0.340 OA
ATOM     78  O62 IDS d 305      83.110  18.049 103.734  0.00  0.00    -0.646 OA
ATOM     79  C1  IDS d 305      79.864  18.956 106.241  0.00  0.00     0.161 C 
ATOM     80  O3  IDS d 305      81.953  19.359 108.926  0.00  0.00    -0.390 OA
ATOM     81  C6  IDS d 305      83.374  18.136 104.955  0.00  0.00     0.206 C 
ATOM     82  C2  IDS d 305      80.241  19.922 107.395  0.00  0.00     0.134 C 
ATOM     83  C5  IDS d 305      82.271  18.698 105.853  0.00  0.00     0.152 C 
ATOM     84  C3  IDS d 305      81.704  20.138 107.824  0.00  0.00     0.094 C 
ATOM     85  S   IDS d 305      79.339  22.241 106.223  0.00  0.00     0.252 S 
ATOM     86  C4  IDS d 305      82.742  19.856 106.720  0.00  0.00     0.103 C 
ATOM     87  O3S IDS d 305      78.387  23.217 106.607  0.00  0.00    -0.572 OA
ATOM     88  O1S IDS d 305      78.907  21.580 105.043  0.00  0.00    -0.572 OA
ATOM     89  O2  IDS d 305      79.415  21.069 107.549  0.00  0.00    -0.244 OA
ATOM     90  O61 IDS d 305      84.524  18.023 105.412  0.00  0.00    -0.646 OA
ATOM     91  O2S IDS d 305      80.619  22.819 106.033  0.00  0.00    -0.572 OA
ATOM     92  H   IDS d 305      79.149  19.425 105.597  0.00  0.00     0.133 H 
ATOM     93  H   IDS d 305      81.293  19.547 109.611  0.00  0.00     0.210 HD
ATOM     94  H   IDS d 305      79.969  19.226 108.161  0.00  0.00     0.097 H 
ATOM     95  H   IDS d 305      82.085  17.933 106.579  0.00  0.00     0.104 H 
ATOM     96  H   IDS d 305      81.816  21.179 108.048  0.00  0.00     0.091 H 
ATOM     97  H   IDS d 305      83.672  19.620 107.193  0.00  0.00     0.092 H 
ATOM     98  O6  SGN d 304      86.611  21.180 102.509  0.00  0.00    -0.254 OA
ATOM     99  S2  SGN d 304      87.864  20.644 101.415  0.00  0.00     0.251 S 
ATOM    100  O5S SGN d 304      88.980  21.544 101.550  0.00  0.00    -0.572 OA
ATOM    101  N   SGN d 304      83.081  23.615 106.497  0.00  0.00    -0.210 NA
ATOM    102  O3S SGN d 304      84.491  24.898 108.268  0.00  0.00    -0.296 OA
ATOM    103  C6  SGN d 304      85.333  20.556 102.417  0.00  0.00     0.067 C 
ATOM    104  O3  SGN d 304      83.399  24.810 103.985  0.00  0.00    -0.391 OA
ATOM    105  C5  SGN d 304      84.430  21.261 103.399  0.00  0.00     0.091 C 
ATOM    106  O2S SGN d 304      82.340  24.219 108.871  0.00  0.00    -0.296 OA
ATOM    107  O1  SGN d 304      82.897  21.002 105.874  0.00  0.00    -0.348 OA
ATOM    108  O4S SGN d 304      88.254  19.313 101.768  0.00  0.00    -0.572 OA
ATOM    109  C1  SGN d 304      84.196  21.599 105.803  0.00  0.00     0.150 C 
ATOM    110  C3  SGN d 304      83.475  23.410 104.176  0.00  0.00     0.083 C 
ATOM    111  C2  SGN d 304      84.062  23.122 105.562  0.00  0.00     0.081 C 
ATOM    112  S1  SGN d 304      83.529  23.847 108.182  0.00  0.00     0.156 S 
ATOM    113  O6S SGN d 304      87.343  20.692 100.068  0.00  0.00    -0.572 OA
ATOM    114  O1S SGN d 304      84.074  22.641 108.735  0.00  0.00    -0.296 OA
ATOM    115  O5  SGN d 304      84.969  21.035 104.728  0.00  0.00    -0.349 OA
ATOM    116  C4  SGN d 304      84.386  22.780 103.130  0.00  0.00     0.095 C 
ATOM    117  O4  SGN d 304      83.826  23.039 101.834  0.00  0.00    -0.348 OA
ATOM    118  H   SGN d 304      82.303  22.956 106.485  0.00  0.00     0.140 HD
ATOM    119  H   SGN d 304      84.117  25.711 107.894  0.00  0.00     0.231 HD
ATOM    120  H   SGN d 304      85.410  19.519 102.668  0.00  0.00     0.080 H 
ATOM    121  H   SGN d 304      84.944  20.624 101.422  0.00  0.00     0.080 H 
ATOM    122  H   SGN d 304      82.816  25.197 104.658  0.00  0.00     0.210 HD
ATOM    123  H   SGN d 304      83.435  20.879 103.304  0.00  0.00     0.090 H 
ATOM    124  H   SGN d 304      81.985  25.035 108.486  0.00  0.00     0.231 HD
ATOM    125  H   SGN d 304      84.693  21.408 106.731  0.00  0.00     0.131 H 
ATOM    126  H   SGN d 304      82.491  23.000 104.089  0.00  0.00     0.089 H 
ATOM    127  H   SGN d 304      85.028  23.570 105.662  0.00  0.00     0.076 H 
ATOM    128  H   SGN d 304      84.882  22.402 108.254  0.00  0.00     0.231 HD
ATOM    129  H   SGN d 304      85.376  23.183 103.172  0.00  0.00     0.091 H 
ATOM    130  O5S SGN d 302      85.212  33.484  99.981  0.00  0.00    -0.572 OA
ATOM    131  C4  SGN d 302      87.694  28.612  97.512  0.00  0.00     0.095 C 
ATOM    132  O1S SGN d 302      85.914  24.927  93.870  0.00  0.00    -0.296 OA
ATOM    133  O3  SGN d 302      88.161  26.917  95.885  0.00  0.00    -0.391 OA
ATOM    134  O2S SGN d 302      84.453  26.753  94.211  0.00  0.00    -0.296 OA
ATOM    135  C1  SGN d 302      85.054  27.492  97.913  0.00  0.00     0.150 C 
ATOM    136  C5  SGN d 302      86.861  28.917  98.749  0.00  0.00     0.091 C 
ATOM    137  O3S SGN d 302      83.785  24.601  94.864  0.00  0.00    -0.296 OA
ATOM    138  O5  SGN d 302      85.453  28.796  98.415  0.00  0.00    -0.349 OA
ATOM    139  C6  SGN d 302      87.185  30.319  99.246  0.00  0.00     0.067 C 
ATOM    140  S1  SGN d 302      84.906  25.498  94.728  0.00  0.00     0.156 S 
ATOM    141  O4S SGN d 302      85.198  31.751 101.587  0.00  0.00    -0.572 OA
ATOM    142  O6S SGN d 302      87.239  32.735 100.898  0.00  0.00    -0.572 OA
ATOM    143  O4  SGN d 302      89.045  28.692  97.858  0.00  0.00    -0.348 OA
ATOM    144  N   SGN d 302      85.614  25.808  96.319  0.00  0.00    -0.210 NA
ATOM    145  C3  SGN d 302      87.386  27.206  97.035  0.00  0.00     0.083 C 
ATOM    146  C2  SGN d 302      85.907  27.173  96.683  0.00  0.00     0.081 C 
ATOM    147  S2  SGN d 302      85.914  32.338 100.489  0.00  0.00     0.251 S 
ATOM    148  O6  SGN d 302      86.053  31.158  99.196  0.00  0.00    -0.254 OA
ATOM    149  O1  SGN d 302      85.288  26.452  98.861  0.00  0.00    -0.348 OA
ATOM    150  H   SGN d 302      87.467  29.310  96.733  0.00  0.00     0.091 H 
ATOM    151  H   SGN d 302      85.533  24.754  92.995  0.00  0.00     0.231 HD
ATOM    152  H   SGN d 302      89.103  26.940  96.116  0.00  0.00     0.210 HD
ATOM    153  H   SGN d 302      84.057  26.619  93.336  0.00  0.00     0.231 HD
ATOM    154  H   SGN d 302      84.007  27.535  97.697  0.00  0.00     0.131 H 
ATOM    155  H   SGN d 302      87.090  28.223  99.530  0.00  0.00     0.090 H 
ATOM    156  H   SGN d 302      83.398  24.433  93.990  0.00  0.00     0.231 HD
ATOM    157  H   SGN d 302      87.956  30.736  98.632  0.00  0.00     0.080 H 
ATOM    158  H   SGN d 302      87.507  30.248 100.264  0.00  0.00     0.080 H 
ATOM    159  H   SGN d 302      86.491  25.288  96.365  0.00  0.00     0.140 HD
ATOM    160  H   SGN d 302      87.616  26.482  97.788  0.00  0.00     0.089 H 
ATOM    161  H   SGN d 302      85.698  27.882  95.908  0.00  0.00     0.076 H 
ENDROOT
TORSDOF 50
ENDMDL
MODEL 6
REMARK VINA RESULT:     -12.4      3.309     15.206
REMARK  0 active torsions:
REMARK  status: ('A' for Active; 'I' for Inactive)
REMARK       I    between atoms: S_1  and  O2_2 
REMARK       I    between atoms: O2_2  and  C2_99 
REMARK       I    between atoms: C3_3  and  O3_50 
REMARK       I    between atoms: C2_5  and  O2_57 
REMARK       I    between atoms: O1S_6  and  S1_33 
REMARK       I    between atoms: O3_7  and  C3_52 
REMARK       I    between atoms: O6_9  and  C6_34 
REMARK       I    between atoms: O6_9  and  S2_17 
REMARK       I    between atoms: C2_13  and  N_73 
REMARK       I    between atoms: S_16  and  O2_57 
REMARK       I    between atoms: C1_20  and  O4_43 
REMARK       I    between atoms: C6_21  and  C5_67 
REMARK       I    between atoms: C6_21  and  O6_75 
REMARK       I    between atoms: N_22  and  C2_66 
REMARK       I    between atoms: N_22  and  S1_69 
REMARK       I    between atoms: S2_23  and  O6_75 
REMARK       I    between atoms: C1_24  and  O4_78 
REMARK       I    between atoms: C4_25  and  O4_78 
REMARK       I    between atoms: O3_26  and  C3_81 
REMARK       I    between atoms: O1S_27  and  S1_60 
REMARK       I    between atoms: O3S_28  and  S1_69 
REMARK       I    between atoms: O3_29  and  C3_87 
REMARK       I    between atoms: C6_30  and  C5_80 
REMARK       I    between atoms: O2S_32  and  S1_60 
REMARK       I    between atoms: S1_33  and  N_73 
REMARK       I    between atoms: S1_33  and  O2S_94 
REMARK       I    between atoms: S1_33  and  O3S_35 
REMARK       I    between atoms: C6_34  and  C5_38 
REMARK       I    between atoms: C2_36  and  O2_93 
REMARK       I    between atoms: O3_37  and  C3_65 
REMARK       I    between atoms: C1_40  and  O1_105 
REMARK       I    between atoms: O2S_41  and  S1_69 
REMARK       I    between atoms: C5_42  and  C6_54 
REMARK       I    between atoms: O4_43  and  C4_92 
REMARK       I    between atoms: O1_44  and  C1_62 
REMARK       I    between atoms: O1_44  and  C4_83 
REMARK       I    between atoms: C1_45  and  O4_102 
REMARK       I    between atoms: C4_46  and  O1_105 
REMARK       I    between atoms: O3S_47  and  S1_60 
REMARK       I    between atoms: C5_53  and  C6_61 
REMARK       I    between atoms: C6_54  and  O6_98 
REMARK       I    between atoms: O3_56  and  C3_84 
REMARK       I    between atoms: C5_59  and  C6_63 
REMARK       I    between atoms: S1_60  and  N_86 
REMARK       I    between atoms: S1_69  and  O1S_91 
REMARK       I    between atoms: O1_70  and  C1_96 
REMARK       I    between atoms: S_82  and  O2_93 
REMARK       I    between atoms: N_86  and  C2_90 
REMARK       I    between atoms: S2_95  and  O6_98 
REMARK       I    between atoms: C4_100  and  O4_102 
ROOT
ATOM      1  S   IDS d 303      86.245  20.699 103.393  0.00  0.00     0.252 S 
ATOM      2  O2  IDS d 303      85.589  21.934 102.336  0.00  0.00    -0.244 OA
ATOM      3  O61 IDS d 303      82.145  26.161 100.625  0.00  0.00    -0.646 OA
ATOM      4  O3  IDS d 303      83.205  21.678  99.707  0.00  0.00    -0.390 OA
ATOM      5  O3S IDS d 303      86.233  19.466 102.646  0.00  0.00    -0.572 OA
ATOM      6  C1  IDS d 303      83.248  22.166 102.803  0.00  0.00     0.161 C 
ATOM      7  C4  IDS d 303      84.190  23.776 100.413  0.00  0.00     0.103 C 
ATOM      8  O2S IDS d 303      87.576  21.087 103.771  0.00  0.00    -0.572 OA
ATOM      9  C3  IDS d 303      84.260  22.232 100.403  0.00  0.00     0.094 C 
ATOM     10  C5  IDS d 303      83.169  24.207 101.463  0.00  0.00     0.152 C 
ATOM     11  C6  IDS d 303      82.937  25.691 101.445  0.00  0.00     0.206 C 
ATOM     12  O62 IDS d 303      83.406  26.329 102.407  0.00  0.00    -0.646 OA
ATOM     13  O5  IDS d 303      83.154  23.582 102.732  0.00  0.00    -0.340 OA
ATOM     14  C2  IDS d 303      84.326  21.651 101.826  0.00  0.00     0.134 C 
ATOM     15  O1S IDS d 303      85.403  20.624 104.541  0.00  0.00    -0.572 OA
ATOM     16  H   IDS d 303      83.175  22.052  98.812  0.00  0.00     0.210 HD
ATOM     17  H   IDS d 303      83.519  21.950 103.815  0.00  0.00     0.133 H 
ATOM     18  H   IDS d 303      83.938  24.112  99.429  0.00  0.00     0.092 H 
ATOM     19  H   IDS d 303      85.167  21.970  99.897  0.00  0.00     0.091 H 
ATOM     20  H   IDS d 303      82.275  23.739 101.110  0.00  0.00     0.104 H 
ATOM     21  H   IDS d 303      84.135  20.601 101.740  0.00  0.00     0.097 H 
ATOM     22  C3  SGN d 306      76.059  13.714 105.281  0.00  0.00     0.083 C 
ATOM     23  O1S SGN d 306      77.375  13.125 108.670  0.00  0.00    -0.296 OA
ATOM     24  O4S SGN d 306      79.866  12.158  99.251  0.00  0.00    -0.572 OA
ATOM     25  O5S SGN d 306      79.967  14.424  99.918  0.00  0.00    -0.572 OA
ATOM     26  C2  SGN d 306      76.815  12.459 105.691  0.00  0.00     0.081 C 
ATOM     27  O5  SGN d 306      77.361  12.041 103.366  0.00  0.00    -0.350 OA
ATOM     28  C6  SGN d 306      77.291  13.744 101.640  0.00  0.00     0.067 C 
ATOM     29  S2  SGN d 306      79.112  13.290  99.711  0.00  0.00     0.251 S 
ATOM     30  S1  SGN d 306      76.817  11.834 108.353  0.00  0.00     0.156 S 
ATOM     31  O3S SGN d 306      75.833  11.462 109.339  0.00  0.00    -0.296 OA
ATOM     32  O4  SGN d 306      76.021  15.496 103.650  0.00  0.00    -0.348 OA
ATOM     33  O3  SGN d 306      76.085  14.633 106.357  0.00  0.00    -0.391 OA
ATOM     34  O6S SGN d 306      78.073  13.627  98.770  0.00  0.00    -0.572 OA
ATOM     35  C5  SGN d 306      76.658  13.242 102.925  0.00  0.00     0.091 C 
ATOM     36  O1  SGN d 306      75.541  10.886 104.371  0.00  0.00    -0.369 OA
ATOM     37  N   SGN d 306      76.055  11.892 106.770  0.00  0.00    -0.210 NA
ATOM     38  O6  SGN d 306      78.356  12.905 101.248  0.00  0.00    -0.254 OA
ATOM     39  C4  SGN d 306      76.733  14.308 104.040  0.00  0.00     0.095 C 
ATOM     40  O2S SGN d 306      77.848  10.846 108.282  0.00  0.00    -0.296 OA
ATOM     41  C1  SGN d 306      76.849  11.414 104.564  0.00  0.00     0.147 C 
ATOM     42  H   SGN d 306      75.040  13.487 105.047  0.00  0.00     0.089 H 
ATOM     43  H   SGN d 306      78.035  13.365 108.001  0.00  0.00     0.231 HD
ATOM     44  H   SGN d 306      77.824  12.710 105.943  0.00  0.00     0.076 H 
ATOM     45  H   SGN d 306      77.663  14.735 101.795  0.00  0.00     0.080 H 
ATOM     46  H   SGN d 306      76.550  13.743 100.868  0.00  0.00     0.080 H 
ATOM     47  H   SGN d 306      75.141  12.140 109.377  0.00  0.00     0.231 HD
ATOM     48  H   SGN d 306      77.006  14.846 106.578  0.00  0.00     0.210 HD
ATOM     49  H   SGN d 306      75.628  13.026 102.732  0.00  0.00     0.090 H 
ATOM     50  H   SGN d 306      75.233  10.475 105.194  0.00  0.00     0.212 HD
ATOM     51  H   SGN d 306      75.821  10.934 106.508  0.00  0.00     0.140 HD
ATOM     52  H   SGN d 306      77.753  14.569 104.229  0.00  0.00     0.091 H 
ATOM     53  H   SGN d 306      78.502  11.109 107.616  0.00  0.00     0.231 HD
ATOM     54  H   SGN d 306      77.493  10.598 104.818  0.00  0.00     0.131 H 
ATOM     55  C2  UAP d 301      87.513  30.641 101.962  0.00  0.00     0.132 C 
ATOM     56  S   UAP d 301      87.589  32.847 100.545  0.00  0.00     0.252 S 
ATOM     57  O1S UAP d 301      88.074  34.125 100.896  0.00  0.00    -0.572 OA
ATOM     58  C1  UAP d 301      88.214  29.339 101.637  0.00  0.00     0.161 C 
ATOM     59  O61 UAP d 301      89.933  29.230 106.183  0.00  0.00    -0.646 OA
ATOM     60  C5  UAP d 301      89.032  29.343 103.955  0.00  0.00     0.127 C 
ATOM     61  O3  UAP d 301      85.726  30.407 103.484  0.00  0.00    -0.393 OA
ATOM     62  O2  UAP d 301      88.339  31.702 101.623  0.00  0.00    -0.244 OA
ATOM     63  O5  UAP d 301      89.223  29.017 102.590  0.00  0.00    -0.343 OA
ATOM     64  C6  UAP d 301      90.069  28.911 104.984  0.00  0.00     0.203 C 
ATOM     65  O62 UAP d 301      91.046  28.266 104.545  0.00  0.00    -0.646 OA
ATOM     66  O3S UAP d 301      88.005  32.473  99.229  0.00  0.00    -0.572 OA
ATOM     67  O2S UAP d 301      86.156  32.800 100.701  0.00  0.00    -0.572 OA
ATOM     68  C3  UAP d 301      87.034  30.880 103.402  0.00  0.00     0.069 C 
ATOM     69  C4  UAP d 301      87.907  30.222 104.506  0.00  0.00    -0.005 C 
ATOM     70  H   UAP d 301      86.615  30.569 101.386  0.00  0.00     0.097 H 
ATOM     71  H   UAP d 301      88.727  29.396 100.699  0.00  0.00     0.133 H 
ATOM     72  H   UAP d 301      88.337  28.811 103.340  0.00  0.00     0.100 H 
ATOM     73  H   UAP d 301      85.188  30.822 102.793  0.00  0.00     0.210 HD
ATOM     74  H   UAP d 301      87.109  31.931 103.594  0.00  0.00     0.087 H 
ATOM     75  H   UAP d 301      88.345  30.998 105.099  0.00  0.00     0.041 H 
ATOM     76  H   UAP d 301      87.264  29.586 105.078  0.00  0.00     0.041 H 
ATOM     77  O5  IDS d 305      77.780  17.101 104.054  0.00  0.00    -0.340 OA
ATOM     78  O62 IDS d 305      79.676  17.966 105.883  0.00  0.00    -0.646 OA
ATOM     79  C1  IDS d 305      76.755  16.633 103.175  0.00  0.00     0.161 C 
ATOM     80  O3  IDS d 305      74.477  18.873 104.413  0.00  0.00    -0.390 OA
ATOM     81  C6  IDS d 305      78.523  18.421 106.060  0.00  0.00     0.206 C 
ATOM     82  C2  IDS d 305      75.751  17.745 102.770  0.00  0.00     0.134 C 
ATOM     83  C5  IDS d 305      77.504  18.146 104.953  0.00  0.00     0.152 C 
ATOM     84  C3  IDS d 305      75.579  19.025 103.610  0.00  0.00     0.094 C 
ATOM     85  S   IDS d 305      76.931  18.436 100.384  0.00  0.00     0.252 S 
ATOM     86  C4  IDS d 305      76.812  19.405 104.454  0.00  0.00     0.103 C 
ATOM     87  O3S IDS d 305      76.473  18.459  99.044  0.00  0.00    -0.572 OA
ATOM     88  O1S IDS d 305      77.974  17.483 100.524  0.00  0.00    -0.572 OA
ATOM     89  O2  IDS d 305      75.552  17.934 101.376  0.00  0.00    -0.244 OA
ATOM     90  O61 IDS d 305      78.250  19.259 106.936  0.00  0.00    -0.646 OA
ATOM     91  O2S IDS d 305      77.366  19.720 100.799  0.00  0.00    -0.572 OA
ATOM     92  H   IDS d 305      77.308  16.318 102.315  0.00  0.00     0.133 H 
ATOM     93  H   IDS d 305      73.711  18.634 103.869  0.00  0.00     0.210 HD
ATOM     94  H   IDS d 305      74.901  17.213 103.146  0.00  0.00     0.097 H 
ATOM     95  H   IDS d 305      76.703  17.624 105.435  0.00  0.00     0.104 H 
ATOM     96  H   IDS d 305      75.453  19.837 102.924  0.00  0.00     0.091 H 
ATOM     97  H   IDS d 305      76.478  20.003 105.275  0.00  0.00     0.092 H 
ATOM     98  O6  SGN d 304      81.676  22.389 105.831  0.00  0.00    -0.254 OA
ATOM     99  S2  SGN d 304      82.913  22.759 107.008  0.00  0.00     0.251 S 
ATOM    100  O5S SGN d 304      83.026  24.191 107.092  0.00  0.00    -0.572 OA
ATOM    101  N   SGN d 304      77.364  22.117 101.878  0.00  0.00    -0.210 NA
ATOM    102  O3S SGN d 304      75.942  24.295 101.961  0.00  0.00    -0.296 OA
ATOM    103  C6  SGN d 304      81.515  21.029 105.436  0.00  0.00     0.067 C 
ATOM    104  O3  SGN d 304      79.975  22.720 101.070  0.00  0.00    -0.391 OA
ATOM    105  C5  SGN d 304      80.456  21.008 104.362  0.00  0.00     0.091 C 
ATOM    106  O2S SGN d 304      74.953  22.381 101.061  0.00  0.00    -0.296 OA
ATOM    107  O1  SGN d 304      77.754  20.139 103.662  0.00  0.00    -0.348 OA
ATOM    108  O4S SGN d 304      82.530  22.216 108.275  0.00  0.00    -0.572 OA
ATOM    109  C1  SGN d 304      78.077  21.467 104.082  0.00  0.00     0.150 C 
ATOM    110  C3  SGN d 304      79.696  21.876 102.170  0.00  0.00     0.083 C 
ATOM    111  C2  SGN d 304      78.405  22.344 102.850  0.00  0.00     0.081 C 
ATOM    112  S1  SGN d 304      75.794  22.881 102.094  0.00  0.00     0.156 S 
ATOM    113  O6S SGN d 304      84.159  22.184 106.553  0.00  0.00    -0.572 OA
ATOM    114  O1S SGN d 304      75.249  22.567 103.383  0.00  0.00    -0.296 OA
ATOM    115  O5  SGN d 304      79.217  21.473 104.960  0.00  0.00    -0.349 OA
ATOM    116  C4  SGN d 304      80.826  21.941 103.190  0.00  0.00     0.095 C 
ATOM    117  O4  SGN d 304      82.030  21.488 102.555  0.00  0.00    -0.348 OA
ATOM    118  H   SGN d 304      77.202  21.110 101.847  0.00  0.00     0.140 HD
ATOM    119  H   SGN d 304      76.310  24.501 101.088  0.00  0.00     0.231 HD
ATOM    120  H   SGN d 304      81.203  20.437 106.271  0.00  0.00     0.080 H 
ATOM    121  H   SGN d 304      82.436  20.624 105.073  0.00  0.00     0.080 H 
ATOM    122  H   SGN d 304      79.249  22.668 100.429  0.00  0.00     0.210 HD
ATOM    123  H   SGN d 304      80.361  20.015 103.976  0.00  0.00     0.090 H 
ATOM    124  H   SGN d 304      75.335  22.601 100.197  0.00  0.00     0.231 HD
ATOM    125  H   SGN d 304      77.228  21.858 104.605  0.00  0.00     0.131 H 
ATOM    126  H   SGN d 304      79.594  20.873 101.813  0.00  0.00     0.089 H 
ATOM    127  H   SGN d 304      78.495  23.361 103.167  0.00  0.00     0.076 H 
ATOM    128  H   SGN d 304      75.834  22.914 104.075  0.00  0.00     0.231 HD
ATOM    129  H   SGN d 304      80.972  22.937 103.555  0.00  0.00     0.091 H 
ATOM    130  O5S SGN d 302      84.849  29.139  95.628  0.00  0.00    -0.572 OA
ATOM    131  C4  SGN d 302      87.317  27.282 100.771  0.00  0.00     0.095 C 
ATOM    132  O1S SGN d 302      90.344  22.921 102.125  0.00  0.00    -0.296 OA
ATOM    133  O3  SGN d 302      88.868  26.219 102.255  0.00  0.00    -0.391 OA
ATOM    134  O2S SGN d 302      89.908  23.133  99.812  0.00  0.00    -0.296 OA
ATOM    135  C1  SGN d 302      86.416  24.686  99.861  0.00  0.00     0.150 C 
ATOM    136  C5  SGN d 302      85.989  27.089 100.055  0.00  0.00     0.091 C 
ATOM    137  O3S SGN d 302      89.000  21.325 100.998  0.00  0.00    -0.296 OA
ATOM    138  O5  SGN d 302      86.083  25.928  99.186  0.00  0.00    -0.349 OA
ATOM    139  C6  SGN d 302      85.655  28.341  99.257  0.00  0.00     0.067 C 
ATOM    140  S1  SGN d 302      89.380  22.713 101.073  0.00  0.00     0.156 S 
ATOM    141  O4S SGN d 302      83.138  28.245  96.991  0.00  0.00    -0.572 OA
ATOM    142  O6S SGN d 302      84.216  30.268  97.586  0.00  0.00    -0.572 OA
ATOM    143  O4  SGN d 302      87.199  28.377 101.633  0.00  0.00    -0.348 OA
ATOM    144  N   SGN d 302      87.951  23.703 101.401  0.00  0.00    -0.210 NA
ATOM    145  C3  SGN d 302      87.633  26.042 101.584  0.00  0.00     0.083 C 
ATOM    146  C2  SGN d 302      87.740  24.886 100.603  0.00  0.00     0.081 C 
ATOM    147  S2  SGN d 302      84.377  28.971  96.975  0.00  0.00     0.251 S 
ATOM    148  O6  SGN d 302      85.585  28.069  97.875  0.00  0.00    -0.254 OA
ATOM    149  O1  SGN d 302      85.443  24.323 100.840  0.00  0.00    -0.348 OA
ATOM    150  H   SGN d 302      88.099  27.451 100.061  0.00  0.00     0.091 H 
ATOM    151  H   SGN d 302      91.132  22.382 101.953  0.00  0.00     0.231 HD
ATOM    152  H   SGN d 302      88.794  26.958 102.880  0.00  0.00     0.210 HD
ATOM    153  H   SGN d 302      90.697  22.608  99.601  0.00  0.00     0.231 HD
ATOM    154  H   SGN d 302      86.464  23.916  99.119  0.00  0.00     0.131 H 
ATOM    155  H   SGN d 302      85.206  26.924 100.764  0.00  0.00     0.090 H 
ATOM    156  H   SGN d 302      89.785  20.784 100.818  0.00  0.00     0.231 HD
ATOM    157  H   SGN d 302      86.414  29.076  99.429  0.00  0.00     0.080 H 
ATOM    158  H   SGN d 302      84.699  28.699  99.578  0.00  0.00     0.080 H 
ATOM    159  H   SGN d 302      88.007  24.001 102.375  0.00  0.00     0.140 HD
ATOM    160  H   SGN d 302      86.876  25.854 102.315  0.00  0.00     0.089 H 
ATOM    161  H   SGN d 302      88.521  25.075  99.896  0.00  0.00     0.076 H 
ENDROOT
TORSDOF 50
ENDMDL
MODEL 7
REMARK VINA RESULT:     -12.1      5.844     15.236
REMARK  0 active torsions:
REMARK  status: ('A' for Active; 'I' for Inactive)
REMARK       I    between atoms: S_1  and  O2_2 
REMARK       I    between atoms: O2_2  and  C2_99 
REMARK       I    between atoms: C3_3  and  O3_50 
REMARK       I    between atoms: C2_5  and  O2_57 
REMARK       I    between atoms: O1S_6  and  S1_33 
REMARK       I    between atoms: O3_7  and  C3_52 
REMARK       I    between atoms: O6_9  and  C6_34 
REMARK       I    between atoms: O6_9  and  S2_17 
REMARK       I    between atoms: C2_13  and  N_73 
REMARK       I    between atoms: S_16  and  O2_57 
REMARK       I    between atoms: C1_20  and  O4_43 
REMARK       I    between atoms: C6_21  and  C5_67 
REMARK       I    between atoms: C6_21  and  O6_75 
REMARK       I    between atoms: N_22  and  C2_66 
REMARK       I    between atoms: N_22  and  S1_69 
REMARK       I    between atoms: S2_23  and  O6_75 
REMARK       I    between atoms: C1_24  and  O4_78 
REMARK       I    between atoms: C4_25  and  O4_78 
REMARK       I    between atoms: O3_26  and  C3_81 
REMARK       I    between atoms: O1S_27  and  S1_60 
REMARK       I    between atoms: O3S_28  and  S1_69 
REMARK       I    between atoms: O3_29  and  C3_87 
REMARK       I    between atoms: C6_30  and  C5_80 
REMARK       I    between atoms: O2S_32  and  S1_60 
REMARK       I    between atoms: S1_33  and  N_73 
REMARK       I    between atoms: S1_33  and  O2S_94 
REMARK       I    between atoms: S1_33  and  O3S_35 
REMARK       I    between atoms: C6_34  and  C5_38 
REMARK       I    between atoms: C2_36  and  O2_93 
REMARK       I    between atoms: O3_37  and  C3_65 
REMARK       I    between atoms: C1_40  and  O1_105 
REMARK       I    between atoms: O2S_41  and  S1_69 
REMARK       I    between atoms: C5_42  and  C6_54 
REMARK       I    between atoms: O4_43  and  C4_92 
REMARK       I    between atoms: O1_44  and  C1_62 
REMARK       I    between atoms: O1_44  and  C4_83 
REMARK       I    between atoms: C1_45  and  O4_102 
REMARK       I    between atoms: C4_46  and  O1_105 
REMARK       I    between atoms: O3S_47  and  S1_60 
REMARK       I    between atoms: C5_53  and  C6_61 
REMARK       I    between atoms: C6_54  and  O6_98 
REMARK       I    between atoms: O3_56  and  C3_84 
REMARK       I    between atoms: C5_59  and  C6_63 
REMARK       I    between atoms: S1_60  and  N_86 
REMARK       I    between atoms: S1_69  and  O1S_91 
REMARK       I    between atoms: O1_70  and  C1_96 
REMARK       I    between atoms: S_82  and  O2_93 
REMARK       I    between atoms: N_86  and  C2_90 
REMARK       I    between atoms: S2_95  and  O6_98 
REMARK       I    between atoms: C4_100  and  O4_102 
ROOT
ATOM      1  S   IDS d 303      89.774  25.023 105.002  0.00  0.00     0.252 S 
ATOM      2  O2  IDS d 303      88.515  25.744 104.019  0.00  0.00    -0.244 OA
ATOM      3  O61 IDS d 303      83.386  26.328 101.568  0.00  0.00    -0.646 OA
ATOM      4  O3  IDS d 303      87.886  25.476 100.527  0.00  0.00    -0.390 OA
ATOM      5  O3S IDS d 303      90.924  24.858 104.147  0.00  0.00    -0.572 OA
ATOM      6  C1  IDS d 303      87.111  23.993 103.178  0.00  0.00     0.161 C 
ATOM      7  C4  IDS d 303      86.473  26.730 102.044  0.00  0.00     0.103 C 
ATOM      8  O2S IDS d 303      90.046  25.900 106.107  0.00  0.00    -0.572 OA
ATOM      9  C3  IDS d 303      87.841  26.063 101.775  0.00  0.00     0.094 C 
ATOM     10  C5  IDS d 303      85.473  25.644 102.432  0.00  0.00     0.152 C 
ATOM     11  C6  IDS d 303      84.080  26.188 102.578  0.00  0.00     0.206 C 
ATOM     12  O62 IDS d 303      83.643  26.265 103.742  0.00  0.00    -0.646 OA
ATOM     13  O5  IDS d 303      85.851  24.628 103.342  0.00  0.00    -0.340 OA
ATOM     14  C2  IDS d 303      88.202  25.037 102.863  0.00  0.00     0.134 C 
ATOM     15  O1S IDS d 303      89.288  23.766 105.470  0.00  0.00    -0.572 OA
ATOM     16  H   IDS d 303      87.657  26.133  99.852  0.00  0.00     0.210 HD
ATOM     17  H   IDS d 303      87.308  23.507 104.111  0.00  0.00     0.133 H 
ATOM     18  H   IDS d 303      86.178  27.268 101.166  0.00  0.00     0.092 H 
ATOM     19  H   IDS d 303      88.573  26.844 101.802  0.00  0.00     0.091 H 
ATOM     20  H   IDS d 303      85.482  25.013 101.568  0.00  0.00     0.104 H 
ATOM     21  H   IDS d 303      89.025  24.465 102.487  0.00  0.00     0.097 H 
ATOM     22  C3  SGN d 306      90.583  13.746  99.680  0.00  0.00     0.083 C 
ATOM     23  O1S SGN d 306      91.325  12.465 103.052  0.00  0.00    -0.296 OA
ATOM     24  O4S SGN d 306      94.523  19.009  96.510  0.00  0.00    -0.572 OA
ATOM     25  O5S SGN d 306      92.536  19.761  97.547  0.00  0.00    -0.572 OA
ATOM     26  C2  SGN d 306      91.987  13.446 100.183  0.00  0.00     0.081 C 
ATOM     27  O5  SGN d 306      92.897  14.931  98.497  0.00  0.00    -0.350 OA
ATOM     28  C6  SGN d 306      91.602  16.649  97.375  0.00  0.00     0.067 C 
ATOM     29  S2  SGN d 306      93.121  18.764  96.696  0.00  0.00     0.251 S 
ATOM     30  S1  SGN d 306      92.204  11.660 102.242  0.00  0.00     0.156 S 
ATOM     31  O3S SGN d 306      91.924  10.260 102.443  0.00  0.00    -0.296 OA
ATOM     32  O4  SGN d 306      89.223  15.469  98.669  0.00  0.00    -0.348 OA
ATOM     33  O3  SGN d 306      89.672  13.588 100.752  0.00  0.00    -0.391 OA
ATOM     34  O6S SGN d 306      92.434  18.741  95.428  0.00  0.00    -0.572 OA
ATOM     35  C5  SGN d 306      91.570  15.260  97.986  0.00  0.00     0.091 C 
ATOM     36  O1  SGN d 306      92.880  12.584  98.110  0.00  0.00    -0.369 OA
ATOM     37  N   SGN d 306      91.973  12.056 100.545  0.00  0.00    -0.210 NA
ATOM     38  O6  SGN d 306      92.896  17.205  97.470  0.00  0.00    -0.254 OA
ATOM     39  C4  SGN d 306      90.551  15.181  99.145  0.00  0.00     0.095 C 
ATOM     40  O2S SGN d 306      93.572  11.943 102.552  0.00  0.00    -0.296 OA
ATOM     41  C1  SGN d 306      93.042  13.615  99.078  0.00  0.00     0.147 C 
ATOM     42  H   SGN d 306      90.307  13.076  98.892  0.00  0.00     0.089 H 
ATOM     43  H   SGN d 306      91.523  13.404 102.909  0.00  0.00     0.231 HD
ATOM     44  H   SGN d 306      92.234  14.111 100.985  0.00  0.00     0.076 H 
ATOM     45  H   SGN d 306      90.911  17.278  97.895  0.00  0.00     0.080 H 
ATOM     46  H   SGN d 306      91.334  16.576  96.342  0.00  0.00     0.080 H 
ATOM     47  H   SGN d 306      90.995  10.082 102.230  0.00  0.00     0.231 HD
ATOM     48  H   SGN d 306      89.912  14.192 101.472  0.00  0.00     0.210 HD
ATOM     49  H   SGN d 306      91.274  14.564  97.229  0.00  0.00     0.090 H 
ATOM     50  H   SGN d 306      92.984  11.720  98.538  0.00  0.00     0.212 HD
ATOM     51  H   SGN d 306      92.717  11.597 100.019  0.00  0.00     0.140 HD
ATOM     52  H   SGN d 306      90.803  15.893  99.902  0.00  0.00     0.091 H 
ATOM     53  H   SGN d 306      93.746  12.887 102.412  0.00  0.00     0.231 HD
ATOM     54  H   SGN d 306      94.031  13.532  99.478  0.00  0.00     0.131 H 
ATOM     55  C2  UAP d 301      81.987  31.332 106.434  0.00  0.00     0.132 C 
ATOM     56  S   UAP d 301      80.293  33.209 105.742  0.00  0.00     0.252 S 
ATOM     57  O1S UAP d 301      79.384  33.939 106.538  0.00  0.00    -0.572 OA
ATOM     58  C1  UAP d 301      83.495  31.385 106.298  0.00  0.00     0.161 C 
ATOM     59  O61 UAP d 301      83.880  29.953 110.927  0.00  0.00    -0.646 OA
ATOM     60  C5  UAP d 301      83.611  30.642 108.637  0.00  0.00     0.127 C 
ATOM     61  O3  UAP d 301      81.130  29.147 106.666  0.00  0.00    -0.393 OA
ATOM     62  O2  UAP d 301      81.517  32.582 106.809  0.00  0.00    -0.244 OA
ATOM     63  O5  UAP d 301      84.151  31.389 107.561  0.00  0.00    -0.343 OA
ATOM     64  C6  UAP d 301      84.368  30.571 109.958  0.00  0.00     0.203 C 
ATOM     65  O62 UAP d 301      85.456  31.184 110.004  0.00  0.00    -0.646 OA
ATOM     66  O3S UAP d 301      80.978  34.059 104.818  0.00  0.00    -0.572 OA
ATOM     67  O2S UAP d 301      79.612  32.122 105.083  0.00  0.00    -0.572 OA
ATOM     68  C3  UAP d 301      81.372  30.307 107.399  0.00  0.00     0.069 C 
ATOM     69  C4  UAP d 301      82.234  29.975 108.648  0.00  0.00    -0.005 C 
ATOM     70  H   UAP d 301      81.680  31.008 105.462  0.00  0.00     0.097 H 
ATOM     71  H   UAP d 301      83.810  32.289 105.819  0.00  0.00     0.133 H 
ATOM     72  H   UAP d 301      83.804  30.265 107.655  0.00  0.00     0.100 H 
ATOM     73  H   UAP d 301      80.591  29.362 105.889  0.00  0.00     0.210 HD
ATOM     74  H   UAP d 301      80.478  30.740 107.799  0.00  0.00     0.087 H 
ATOM     75  H   UAP d 301      81.707  30.303 109.520  0.00  0.00     0.041 H 
ATOM     76  H   UAP d 301      82.399  28.918 108.645  0.00  0.00     0.041 H 
ATOM     77  O5  IDS d 305      88.651  17.192 100.262  0.00  0.00    -0.340 OA
ATOM     78  O62 IDS d 305      88.612  17.862 102.952  0.00  0.00    -0.646 OA
ATOM     79  C1  IDS d 305      88.660  16.768  98.897  0.00  0.00     0.161 C 
ATOM     80  O3  IDS d 305      85.460  15.562  99.108  0.00  0.00    -0.390 OA
ATOM     81  C6  IDS d 305      87.632  17.188 102.560  0.00  0.00     0.206 C 
ATOM     82  C2  IDS d 305      87.257  16.829  98.236  0.00  0.00     0.134 C 
ATOM     83  C5  IDS d 305      87.506  16.985 101.049  0.00  0.00     0.152 C 
ATOM     84  C3  IDS d 305      85.966  16.837  99.077  0.00  0.00     0.094 C 
ATOM     85  S   IDS d 305      87.528  19.298  97.057  0.00  0.00     0.252 S 
ATOM     86  C4  IDS d 305      86.139  17.381 100.508  0.00  0.00     0.103 C 
ATOM     87  O3S IDS d 305      87.446  19.750  95.717  0.00  0.00    -0.572 OA
ATOM     88  O1S IDS d 305      88.845  19.487  97.553  0.00  0.00    -0.572 OA
ATOM     89  O2  IDS d 305      87.165  17.565  97.024  0.00  0.00    -0.244 OA
ATOM     90  O61 IDS d 305      86.669  16.900 103.290  0.00  0.00    -0.646 OA
ATOM     91  O2S IDS d 305      86.583  19.961  97.880  0.00  0.00    -0.572 OA
ATOM     92  H   IDS d 305      89.307  17.482  98.433  0.00  0.00     0.133 H 
ATOM     93  H   IDS d 305      85.356  15.233  98.201  0.00  0.00     0.210 HD
ATOM     94  H   IDS d 305      87.254  15.789  97.981  0.00  0.00     0.097 H 
ATOM     95  H   IDS d 305      87.505  15.924 100.909  0.00  0.00     0.104 H 
ATOM     96  H   IDS d 305      85.287  17.515  98.604  0.00  0.00     0.091 H 
ATOM     97  H   IDS d 305      85.360  16.970 101.115  0.00  0.00     0.092 H 
ATOM     98  O6  SGN d 304      85.781  21.320 104.846  0.00  0.00    -0.254 OA
ATOM     99  S2  SGN d 304      85.925  21.676 106.551  0.00  0.00     0.251 S 
ATOM    100  O5S SGN d 304      84.734  22.374 106.956  0.00  0.00    -0.572 OA
ATOM    101  N   SGN d 304      84.382  20.472  99.223  0.00  0.00    -0.210 NA
ATOM    102  O3S SGN d 304      81.795  20.470  98.940  0.00  0.00    -0.296 OA
ATOM    103  C6  SGN d 304      86.923  20.798 104.173  0.00  0.00     0.067 C 
ATOM    104  O3  SGN d 304      85.239  22.991 100.093  0.00  0.00    -0.391 OA
ATOM    105  C5  SGN d 304      86.553  20.669 102.717  0.00  0.00     0.091 C 
ATOM    106  O2S SGN d 304      83.071  19.408  97.299  0.00  0.00    -0.296 OA
ATOM    107  O1  SGN d 304      86.064  18.812 100.512  0.00  0.00    -0.348 OA
ATOM    108  O4S SGN d 304      86.053  20.448 107.275  0.00  0.00    -0.572 OA
ATOM    109  C1  SGN d 304      85.024  19.416 101.287  0.00  0.00     0.150 C 
ATOM    110  C3  SGN d 304      85.697  21.788 100.679  0.00  0.00     0.083 C 
ATOM    111  C2  SGN d 304      84.578  20.742 100.626  0.00  0.00     0.081 C 
ATOM    112  S1  SGN d 304      82.927  19.635  98.696  0.00  0.00     0.156 S 
ATOM    113  O6S SGN d 304      87.087  22.515 106.743  0.00  0.00    -0.572 OA
ATOM    114  O1S SGN d 304      82.774  18.391  99.395  0.00  0.00    -0.296 OA
ATOM    115  O5  SGN d 304      85.472  19.704 102.625  0.00  0.00    -0.349 OA
ATOM    116  C4  SGN d 304      86.071  22.016 102.139  0.00  0.00     0.095 C 
ATOM    117  O4  SGN d 304      87.129  22.984 102.185  0.00  0.00    -0.348 OA
ATOM    118  H   SGN d 304      85.174  19.909  98.916  0.00  0.00     0.140 HD
ATOM    119  H   SGN d 304      81.903  21.309  98.465  0.00  0.00     0.231 HD
ATOM    120  H   SGN d 304      87.180  19.839 104.573  0.00  0.00     0.080 H 
ATOM    121  H   SGN d 304      87.769  21.442 104.298  0.00  0.00     0.080 H 
ATOM    122  H   SGN d 304      85.005  22.830  99.165  0.00  0.00     0.210 HD
ATOM    123  H   SGN d 304      87.411  20.358 102.158  0.00  0.00     0.090 H 
ATOM    124  H   SGN d 304      83.173  20.257  96.842  0.00  0.00     0.231 HD
ATOM    125  H   SGN d 304      84.208  18.725 101.331  0.00  0.00     0.131 H 
ATOM    126  H   SGN d 304      86.556  21.450 100.138  0.00  0.00     0.089 H 
ATOM    127  H   SGN d 304      83.705  21.100 101.131  0.00  0.00     0.076 H 
ATOM    128  H   SGN d 304      82.677  18.564 100.345  0.00  0.00     0.231 HD
ATOM    129  H   SGN d 304      85.239  22.375 102.708  0.00  0.00     0.091 H 
ATOM    130  O5S SGN d 302      82.746  32.373  99.520  0.00  0.00    -0.572 OA
ATOM    131  C4  SGN d 302      84.936  30.300 104.707  0.00  0.00     0.095 C 
ATOM    132  O1S SGN d 302      90.019  29.571 106.614  0.00  0.00    -0.296 OA
ATOM    133  O3  SGN d 302      86.433  30.029 106.556  0.00  0.00    -0.391 OA
ATOM    134  O2S SGN d 302      89.903  30.672 104.526  0.00  0.00    -0.296 OA
ATOM    135  C1  SGN d 302      86.845  28.985 102.973  0.00  0.00     0.150 C 
ATOM    136  C5  SGN d 302      84.538  29.706 103.363  0.00  0.00     0.091 C 
ATOM    137  O3S SGN d 302      90.875  28.542 104.656  0.00  0.00    -0.296 OA
ATOM    138  O5  SGN d 302      85.691  29.716 102.480  0.00  0.00    -0.349 OA
ATOM    139  C6  SGN d 302      83.390  30.511 102.771  0.00  0.00     0.067 C 
ATOM    140  S1  SGN d 302      89.853  29.406 105.191  0.00  0.00     0.156 S 
ATOM    141  O4S SGN d 302      82.514  30.021  99.535  0.00  0.00    -0.572 OA
ATOM    142  O6S SGN d 302      81.225  31.367 100.996  0.00  0.00    -0.572 OA
ATOM    143  O4  SGN d 302      83.829  30.246 105.558  0.00  0.00    -0.348 OA
ATOM    144  N   SGN d 302      88.259  28.708 104.875  0.00  0.00    -0.210 NA
ATOM    145  C3  SGN d 302      86.062  29.480 105.304  0.00  0.00     0.083 C 
ATOM    146  C2  SGN d 302      87.231  29.565 104.336  0.00  0.00     0.081 C 
ATOM    147  S2  SGN d 302      82.496  31.215 100.333  0.00  0.00     0.251 S 
ATOM    148  O6  SGN d 302      83.758  31.113 101.551  0.00  0.00    -0.254 OA
ATOM    149  O1  SGN d 302      86.563  27.601 103.177  0.00  0.00    -0.348 OA
ATOM    150  H   SGN d 302      85.259  31.312 104.582  0.00  0.00     0.091 H 
ATOM    151  H   SGN d 302      90.891  29.953 106.796  0.00  0.00     0.231 HD
ATOM    152  H   SGN d 302      85.684  29.971 107.169  0.00  0.00     0.210 HD
ATOM    153  H   SGN d 302      90.768  31.085 104.679  0.00  0.00     0.231 HD
ATOM    154  H   SGN d 302      87.623  29.076 102.243  0.00  0.00     0.131 H 
ATOM    155  H   SGN d 302      84.211  28.695 103.488  0.00  0.00     0.090 H 
ATOM    156  H   SGN d 302      91.748  28.926 104.829  0.00  0.00     0.231 HD
ATOM    157  H   SGN d 302      83.107  31.275 103.465  0.00  0.00     0.080 H 
ATOM    158  H   SGN d 302      82.574  29.845 102.585  0.00  0.00     0.080 H 
ATOM    159  H   SGN d 302      87.911  28.339 105.760  0.00  0.00     0.140 HD
ATOM    160  H   SGN d 302      85.765  28.464 105.455  0.00  0.00     0.089 H 
ATOM    161  H   SGN d 302      87.537  30.585 104.218  0.00  0.00     0.076 H 
ENDROOT
TORSDOF 50
ENDMDL
MODEL 8
REMARK VINA RESULT:     -11.9      2.577      3.306
REMARK  0 active torsions:
REMARK  status: ('A' for Active; 'I' for Inactive)
REMARK       I    between atoms: S_1  and  O2_2 
REMARK       I    between atoms: O2_2  and  C2_99 
REMARK       I    between atoms: C3_3  and  O3_50 
REMARK       I    between atoms: C2_5  and  O2_57 
REMARK       I    between atoms: O1S_6  and  S1_33 
REMARK       I    between atoms: O3_7  and  C3_52 
REMARK       I    between atoms: O6_9  and  C6_34 
REMARK       I    between atoms: O6_9  and  S2_17 
REMARK       I    between atoms: C2_13  and  N_73 
REMARK       I    between atoms: S_16  and  O2_57 
REMARK       I    between atoms: C1_20  and  O4_43 
REMARK       I    between atoms: C6_21  and  C5_67 
REMARK       I    between atoms: C6_21  and  O6_75 
REMARK       I    between atoms: N_22  and  C2_66 
REMARK       I    between atoms: N_22  and  S1_69 
REMARK       I    between atoms: S2_23  and  O6_75 
REMARK       I    between atoms: C1_24  and  O4_78 
REMARK       I    between atoms: C4_25  and  O4_78 
REMARK       I    between atoms: O3_26  and  C3_81 
REMARK       I    between atoms: O1S_27  and  S1_60 
REMARK       I    between atoms: O3S_28  and  S1_69 
REMARK       I    between atoms: O3_29  and  C3_87 
REMARK       I    between atoms: C6_30  and  C5_80 
REMARK       I    between atoms: O2S_32  and  S1_60 
REMARK       I    between atoms: S1_33  and  N_73 
REMARK       I    between atoms: S1_33  and  O2S_94 
REMARK       I    between atoms: S1_33  and  O3S_35 
REMARK       I    between atoms: C6_34  and  C5_38 
REMARK       I    between atoms: C2_36  and  O2_93 
REMARK       I    between atoms: O3_37  and  C3_65 
REMARK       I    between atoms: C1_40  and  O1_105 
REMARK       I    between atoms: O2S_41  and  S1_69 
REMARK       I    between atoms: C5_42  and  C6_54 
REMARK       I    between atoms: O4_43  and  C4_92 
REMARK       I    between atoms: O1_44  and  C1_62 
REMARK       I    between atoms: O1_44  and  C4_83 
REMARK       I    between atoms: C1_45  and  O4_102 
REMARK       I    between atoms: C4_46  and  O1_105 
REMARK       I    between atoms: O3S_47  and  S1_60 
REMARK       I    between atoms: C5_53  and  C6_61 
REMARK       I    between atoms: C6_54  and  O6_98 
REMARK       I    between atoms: O3_56  and  C3_84 
REMARK       I    between atoms: C5_59  and  C6_63 
REMARK       I    between atoms: S1_60  and  N_86 
REMARK       I    between atoms: S1_69  and  O1S_91 
REMARK       I    between atoms: O1_70  and  C1_96 
REMARK       I    between atoms: S_82  and  O2_93 
REMARK       I    between atoms: N_86  and  C2_90 
REMARK       I    between atoms: S2_95  and  O6_98 
REMARK       I    between atoms: C4_100  and  O4_102 
ROOT
ATOM      1  S   IDS d 303      77.240  19.994 104.394  0.00  0.00     0.252 S 
ATOM      2  O2  IDS d 303      78.165  19.556 102.971  0.00  0.00    -0.244 OA
ATOM      3  O61 IDS d 303      82.652  17.800  99.900  0.00  0.00    -0.646 OA
ATOM      4  O3  IDS d 303      80.004  21.594 100.707  0.00  0.00    -0.390 OA
ATOM      5  O3S IDS d 303      76.739  21.328 104.169  0.00  0.00    -0.572 OA
ATOM      6  C1  IDS d 303      80.476  20.040 103.388  0.00  0.00     0.161 C 
ATOM      7  C4  IDS d 303      79.895  19.180 100.540  0.00  0.00     0.103 C 
ATOM      8  O2S IDS d 303      76.178  19.040 104.557  0.00  0.00    -0.572 OA
ATOM      9  C3  IDS d 303      79.291  20.483 101.110  0.00  0.00     0.094 C 
ATOM     10  C5  IDS d 303      81.111  18.801 101.380  0.00  0.00     0.152 C 
ATOM     11  C6  IDS d 303      81.843  17.618 100.812  0.00  0.00     0.206 C 
ATOM     12  O62 IDS d 303      81.734  16.552 101.448  0.00  0.00    -0.646 OA
ATOM     13  O5  IDS d 303      81.049  18.884 102.792  0.00  0.00    -0.340 OA
ATOM     14  C2  IDS d 303      79.185  20.443 102.644  0.00  0.00     0.134 C 
ATOM     15  O1S IDS d 303      78.125  19.951 105.512  0.00  0.00    -0.572 OA
ATOM     16  H   IDS d 303      80.063  21.607  99.739  0.00  0.00     0.210 HD
ATOM     17  H   IDS d 303      80.261  19.761 104.398  0.00  0.00     0.133 H 
ATOM     18  H   IDS d 303      80.138  19.339  99.510  0.00  0.00     0.092 H 
ATOM     19  H   IDS d 303      78.300  20.560 100.713  0.00  0.00     0.091 H 
ATOM     20  H   IDS d 303      81.742  19.657 101.258  0.00  0.00     0.104 H 
ATOM     21  H   IDS d 303      78.988  21.444 102.966  0.00  0.00     0.097 H 
ATOM     22  C3  SGN d 306      84.499  29.015 109.091  0.00  0.00     0.083 C 
ATOM     23  O1S SGN d 306      83.444  27.816 112.409  0.00  0.00    -0.296 OA
ATOM     24  O4S SGN d 306      79.747  31.146 103.978  0.00  0.00    -0.572 OA
ATOM     25  O5S SGN d 306      80.515  28.923 103.737  0.00  0.00    -0.572 OA
ATOM     26  C2  SGN d 306      83.404  29.669 109.920  0.00  0.00     0.081 C 
ATOM     27  O5  SGN d 306      82.493  30.669 107.908  0.00  0.00    -0.350 OA
ATOM     28  C6  SGN d 306      82.960  29.858 105.670  0.00  0.00     0.067 C 
ATOM     29  S2  SGN d 306      80.894  30.283 104.000  0.00  0.00     0.251 S 
ATOM     30  S1  SGN d 306      83.479  29.241 112.620  0.00  0.00     0.156 S 
ATOM     31  O3S SGN d 306      84.374  29.563 113.703  0.00  0.00    -0.296 OA
ATOM     32  O4  SGN d 306      84.975  28.089 106.910  0.00  0.00    -0.348 OA
ATOM     33  O3  SGN d 306      84.914  27.828 109.739  0.00  0.00    -0.391 OA
ATOM     34  O6S SGN d 306      81.874  30.711 103.034  0.00  0.00    -0.572 OA
ATOM     35  C5  SGN d 306      83.517  30.054 107.069  0.00  0.00     0.091 C 
ATOM     36  O1  SGN d 306      83.897  31.960 109.330  0.00  0.00    -0.369 OA
ATOM     37  N   SGN d 306      84.033  30.042 111.156  0.00  0.00    -0.210 NA
ATOM     38  O6  SGN d 306      81.633  30.332 105.591  0.00  0.00    -0.254 OA
ATOM     39  C4  SGN d 306      83.941  28.709 107.697  0.00  0.00     0.095 C 
ATOM     40  O2S SGN d 306      82.167  29.740 112.894  0.00  0.00    -0.296 OA
ATOM     41  C1  SGN d 306      82.884  30.961 109.270  0.00  0.00     0.147 C 
ATOM     42  H   SGN d 306      85.343  29.665 108.991  0.00  0.00     0.089 H 
ATOM     43  H   SGN d 306      82.839  27.611 111.679  0.00  0.00     0.231 HD
ATOM     44  H   SGN d 306      82.580  28.995 110.027  0.00  0.00     0.076 H 
ATOM     45  H   SGN d 306      82.975  28.816 105.429  0.00  0.00     0.080 H 
ATOM     46  H   SGN d 306      83.564  30.407 104.979  0.00  0.00     0.080 H 
ATOM     47  H   SGN d 306      85.259  29.219 113.504  0.00  0.00     0.231 HD
ATOM     48  H   SGN d 306      84.156  27.230 109.835  0.00  0.00     0.210 HD
ATOM     49  H   SGN d 306      84.379  30.684 107.004  0.00  0.00     0.090 H 
ATOM     50  H   SGN d 306      84.131  32.127 110.257  0.00  0.00     0.212 HD
ATOM     51  H   SGN d 306      83.889  31.044 111.282  0.00  0.00     0.140 HD
ATOM     52  H   SGN d 306      83.104  28.045 107.742  0.00  0.00     0.091 H 
ATOM     53  H   SGN d 306      81.576  29.517 112.158  0.00  0.00     0.231 HD
ATOM     54  H   SGN d 306      82.028  31.335 109.793  0.00  0.00     0.131 H 
ATOM     55  C2  UAP d 301      79.364  11.517  99.282  0.00  0.00     0.132 C 
ATOM     56  S   UAP d 301      79.904  10.109  97.138  0.00  0.00     0.252 S 
ATOM     57  O1S UAP d 301      79.937   8.708  96.966  0.00  0.00    -0.572 OA
ATOM     58  C1  UAP d 301      78.221  12.497  99.452  0.00  0.00     0.161 C 
ATOM     59  O61 UAP d 301      77.086  10.321 103.647  0.00  0.00    -0.646 OA
ATOM     60  C5  UAP d 301      77.718  11.358 101.570  0.00  0.00     0.127 C 
ATOM     61  O3  UAP d 301      81.113  11.818 100.835  0.00  0.00    -0.393 OA
ATOM     62  O2  UAP d 301      78.926  10.429  98.543  0.00  0.00    -0.244 OA
ATOM     63  O5  UAP d 301      77.276  12.062 100.423  0.00  0.00    -0.343 OA
ATOM     64  C6  UAP d 301      76.716  10.979 102.654  0.00  0.00     0.203 C 
ATOM     65  O62 UAP d 301      75.533  11.335 102.460  0.00  0.00    -0.646 OA
ATOM     66  O3S UAP d 301      79.241  10.754  96.047  0.00  0.00    -0.572 OA
ATOM     67  O2S UAP d 301      81.239  10.614  97.344  0.00  0.00    -0.572 OA
ATOM     68  C3  UAP d 301      80.052  10.966 100.541  0.00  0.00     0.069 C 
ATOM     69  C4  UAP d 301      79.132  10.814 101.784  0.00  0.00    -0.005 C 
ATOM     70  H   UAP d 301      80.111  12.115  98.805  0.00  0.00     0.097 H 
ATOM     71  H   UAP d 301      77.660  12.601  98.546  0.00  0.00     0.133 H 
ATOM     72  H   UAP d 301      78.112  12.290 101.223  0.00  0.00     0.100 H 
ATOM     73  H   UAP d 301      81.682  11.908 100.055  0.00  0.00     0.210 HD
ATOM     74  H   UAP d 301      80.369   9.967 100.320  0.00  0.00     0.087 H 
ATOM     75  H   UAP d 301      79.060   9.773 102.027  0.00  0.00     0.041 H 
ATOM     76  H   UAP d 301      79.572  11.387 102.572  0.00  0.00     0.041 H 
ATOM     77  O5  IDS d 305      83.941  25.925 106.625  0.00  0.00    -0.340 OA
ATOM     78  O62 IDS d 305      82.679  23.831 107.933  0.00  0.00    -0.646 OA
ATOM     79  C1  IDS d 305      84.635  27.018 106.019  0.00  0.00     0.161 C 
ATOM     80  O3  IDS d 305      87.672  25.477 106.392  0.00  0.00    -0.390 OA
ATOM     81  C6  IDS d 305      83.931  23.796 107.961  0.00  0.00     0.206 C 
ATOM     82  C2  IDS d 305      85.912  26.575 105.256  0.00  0.00     0.134 C 
ATOM     83  C5  IDS d 305      84.661  24.804 107.072  0.00  0.00     0.152 C 
ATOM     84  C3  IDS d 305      86.610  25.235 105.557  0.00  0.00     0.094 C 
ATOM     85  S   IDS d 305      84.789  26.416 102.751  0.00  0.00     0.252 S 
ATOM     86  C4  IDS d 305      85.689  24.156 106.156  0.00  0.00     0.103 C 
ATOM     87  O3S IDS d 305      85.076  27.047 101.515  0.00  0.00    -0.572 OA
ATOM     88  O1S IDS d 305      83.502  26.803 103.207  0.00  0.00    -0.572 OA
ATOM     89  O2  IDS d 305      86.009  26.990 103.900  0.00  0.00    -0.244 OA
ATOM     90  O61 IDS d 305      84.574  22.859 108.464  0.00  0.00    -0.646 OA
ATOM     91  O2S IDS d 305      84.878  25.005 102.638  0.00  0.00    -0.572 OA
ATOM     92  H   IDS d 305      83.915  27.398 105.325  0.00  0.00     0.133 H 
ATOM     93  H   IDS d 305      88.242  26.158 106.001  0.00  0.00     0.210 HD
ATOM     94  H   IDS d 305      86.559  27.205 105.831  0.00  0.00     0.097 H 
ATOM     95  H   IDS d 305      85.278  25.369 107.740  0.00  0.00     0.104 H 
ATOM     96  H   IDS d 305      86.934  24.833 104.620  0.00  0.00     0.091 H 
ATOM     97  H   IDS d 305      86.299  23.466 106.702  0.00  0.00     0.092 H 
ATOM     98  O6  SGN d 304      82.352  19.326 106.156  0.00  0.00    -0.254 OA
ATOM     99  S2  SGN d 304      81.459  18.132 107.068  0.00  0.00     0.251 S 
ATOM    100  O5S SGN d 304      81.862  16.831 106.602  0.00  0.00    -0.572 OA
ATOM    101  N   SGN d 304      85.834  22.558 102.732  0.00  0.00    -0.210 NA
ATOM    102  O3S SGN d 304      87.925  21.177 102.033  0.00  0.00    -0.296 OA
ATOM    103  C6  SGN d 304      81.985  20.695 106.307  0.00  0.00     0.067 C 
ATOM    104  O3  SGN d 304      83.523  21.382 101.676  0.00  0.00    -0.391 OA
ATOM    105  C5  SGN d 304      82.845  21.486 105.354  0.00  0.00     0.091 C 
ATOM    106  O2S SGN d 304      88.080  23.505 101.951  0.00  0.00    -0.296 OA
ATOM    107  O1  SGN d 304      84.979  23.469 105.117  0.00  0.00    -0.348 OA
ATOM    108  O4S SGN d 304      81.767  18.280 108.458  0.00  0.00    -0.572 OA
ATOM    109  C1  SGN d 304      85.188  22.059 104.996  0.00  0.00     0.150 C 
ATOM    110  C3  SGN d 304      83.611  21.811 103.021  0.00  0.00     0.083 C 
ATOM    111  C2  SGN d 304      85.051  21.633 103.514  0.00  0.00     0.081 C 
ATOM    112  S1  SGN d 304      87.585  22.396 102.693  0.00  0.00     0.156 S 
ATOM    113  O6S SGN d 304      80.049  18.336 106.824  0.00  0.00    -0.572 OA
ATOM    114  O1S SGN d 304      88.126  22.398 104.022  0.00  0.00    -0.296 OA
ATOM    115  O5  SGN d 304      84.225  21.322 105.771  0.00  0.00    -0.349 OA
ATOM    116  C4  SGN d 304      82.695  20.974 103.906  0.00  0.00     0.095 C 
ATOM    117  O4  SGN d 304      81.346  21.154 103.452  0.00  0.00    -0.348 OA
ATOM    118  H   SGN d 304      85.631  23.493 103.088  0.00  0.00     0.140 HD
ATOM    119  H   SGN d 304      87.557  21.182 101.135  0.00  0.00     0.231 HD
ATOM    120  H   SGN d 304      82.161  21.014 107.314  0.00  0.00     0.080 H 
ATOM    121  H   SGN d 304      80.946  20.838 106.096  0.00  0.00     0.080 H 
ATOM    122  H   SGN d 304      84.111  21.924 101.125  0.00  0.00     0.210 HD
ATOM    123  H   SGN d 304      82.544  22.513 105.374  0.00  0.00     0.090 H 
ATOM    124  H   SGN d 304      87.705  23.489 101.057  0.00  0.00     0.231 HD
ATOM    125  H   SGN d 304      86.171  21.844 105.359  0.00  0.00     0.131 H 
ATOM    126  H   SGN d 304      83.318  22.838 103.072  0.00  0.00     0.089 H 
ATOM    127  H   SGN d 304      85.357  20.612 103.422  0.00  0.00     0.076 H 
ATOM    128  H   SGN d 304      87.779  21.637 104.513  0.00  0.00     0.231 HD
ATOM    129  H   SGN d 304      82.946  19.935 103.864  0.00  0.00     0.091 H 
ATOM    130  O5S SGN d 302      80.619  16.067  94.068  0.00  0.00    -0.572 OA
ATOM    131  C4  SGN d 302      78.244  14.902  99.453  0.00  0.00     0.095 C 
ATOM    132  O1S SGN d 302      74.058  17.054 102.256  0.00  0.00    -0.296 OA
ATOM    133  O3  SGN d 302      76.595  14.713 101.179  0.00  0.00    -0.391 OA
ATOM    134  O2S SGN d 302      74.282  17.868 100.049  0.00  0.00    -0.296 OA
ATOM    135  C1  SGN d 302      78.078  17.788  99.617  0.00  0.00     0.150 C 
ATOM    136  C5  SGN d 302      79.334  15.811  98.904  0.00  0.00     0.091 C 
ATOM    137  O3S SGN d 302      74.629  19.321 101.856  0.00  0.00    -0.296 OA
ATOM    138  O5  SGN d 302      78.747  17.087  98.534  0.00  0.00    -0.349 OA
ATOM    139  C6  SGN d 302      79.993  15.146  97.703  0.00  0.00     0.067 C 
ATOM    140  S1  SGN d 302      74.767  17.964 101.391  0.00  0.00     0.156 S 
ATOM    141  O4S SGN d 302      82.051  16.965  95.720  0.00  0.00    -0.572 OA
ATOM    142  O6S SGN d 302      81.818  14.620  95.475  0.00  0.00    -0.572 OA
ATOM    143  O4  SGN d 302      78.830  13.694  99.841  0.00  0.00    -0.348 OA
ATOM    144  N   SGN d 302      76.478  17.516 101.365  0.00  0.00    -0.210 NA
ATOM    145  C3  SGN d 302      77.608  15.557 100.663  0.00  0.00     0.083 C 
ATOM    146  C2  SGN d 302      76.998  16.866 100.187  0.00  0.00     0.081 C 
ATOM    147  S2  SGN d 302      81.150  15.896  95.393  0.00  0.00     0.251 S 
ATOM    148  O6  SGN d 302      79.810  15.905  96.529  0.00  0.00    -0.254 OA
ATOM    149  O1  SGN d 302      78.966  18.099 100.690  0.00  0.00    -0.348 OA
ATOM    150  H   SGN d 302      77.497  14.730  98.707  0.00  0.00     0.091 H 
ATOM    151  H   SGN d 302      73.118  17.292 102.276  0.00  0.00     0.231 HD
ATOM    152  H   SGN d 302      76.990  13.881 101.481  0.00  0.00     0.210 HD
ATOM    153  H   SGN d 302      73.341  18.107 100.026  0.00  0.00     0.231 HD
ATOM    154  H   SGN d 302      77.684  18.700  99.218  0.00  0.00     0.131 H 
ATOM    155  H   SGN d 302      80.084  15.981  99.647  0.00  0.00     0.090 H 
ATOM    156  H   SGN d 302      73.690  19.564 101.869  0.00  0.00     0.231 HD
ATOM    157  H   SGN d 302      79.561  14.177  97.562  0.00  0.00     0.080 H 
ATOM    158  H   SGN d 302      81.043  15.070  97.895  0.00  0.00     0.080 H 
ATOM    159  H   SGN d 302      76.637  16.887 102.153  0.00  0.00     0.140 HD
ATOM    160  H   SGN d 302      78.329  15.730 101.434  0.00  0.00     0.089 H 
ATOM    161  H   SGN d 302      76.258  16.675  99.437  0.00  0.00     0.076 H 
ENDROOT
TORSDOF 50
ENDMDL
MODEL 9
REMARK VINA RESULT:     -11.8      1.363      1.482
REMARK  0 active torsions:
REMARK  status: ('A' for Active; 'I' for Inactive)
REMARK       I    between atoms: S_1  and  O2_2 
REMARK       I    between atoms: O2_2  and  C2_99 
REMARK       I    between atoms: C3_3  and  O3_50 
REMARK       I    between atoms: C2_5  and  O2_57 
REMARK       I    between atoms: O1S_6  and  S1_33 
REMARK       I    between atoms: O3_7  and  C3_52 
REMARK       I    between atoms: O6_9  and  C6_34 
REMARK       I    between atoms: O6_9  and  S2_17 
REMARK       I    between atoms: C2_13  and  N_73 
REMARK       I    between atoms: S_16  and  O2_57 
REMARK       I    between atoms: C1_20  and  O4_43 
REMARK       I    between atoms: C6_21  and  C5_67 
REMARK       I    between atoms: C6_21  and  O6_75 
REMARK       I    between atoms: N_22  and  C2_66 
REMARK       I    between atoms: N_22  and  S1_69 
REMARK       I    between atoms: S2_23  and  O6_75 
REMARK       I    between atoms: C1_24  and  O4_78 
REMARK       I    between atoms: C4_25  and  O4_78 
REMARK       I    between atoms: O3_26  and  C3_81 
REMARK       I    between atoms: O1S_27  and  S1_60 
REMARK       I    between atoms: O3S_28  and  S1_69 
REMARK       I    between atoms: O3_29  and  C3_87 
REMARK       I    between atoms: C6_30  and  C5_80 
REMARK       I    between atoms: O2S_32  and  S1_60 
REMARK       I    between atoms: S1_33  and  N_73 
REMARK       I    between atoms: S1_33  and  O2S_94 
REMARK       I    between atoms: S1_33  and  O3S_35 
REMARK       I    between atoms: C6_34  and  C5_38 
REMARK       I    between atoms: C2_36  and  O2_93 
REMARK       I    between atoms: O3_37  and  C3_65 
REMARK       I    between atoms: C1_40  and  O1_105 
REMARK       I    between atoms: O2S_41  and  S1_69 
REMARK       I    between atoms: C5_42  and  C6_54 
REMARK       I    between atoms: O4_43  and  C4_92 
REMARK       I    between atoms: O1_44  and  C1_62 
REMARK       I    between atoms: O1_44  and  C4_83 
REMARK       I    between atoms: C1_45  and  O4_102 
REMARK       I    between atoms: C4_46  and  O1_105 
REMARK       I    between atoms: O3S_47  and  S1_60 
REMARK       I    between atoms: C5_53  and  C6_61 
REMARK       I    between atoms: C6_54  and  O6_98 
REMARK       I    between atoms: O3_56  and  C3_84 
REMARK       I    between atoms: C5_59  and  C6_63 
REMARK       I    between atoms: S1_60  and  N_86 
REMARK       I    between atoms: S1_69  and  O1S_91 
REMARK       I    between atoms: O1_70  and  C1_96 
REMARK       I    between atoms: S_82  and  O2_93 
REMARK       I    between atoms: N_86  and  C2_90 
REMARK       I    between atoms: S2_95  and  O6_98 
REMARK       I    between atoms: C4_100  and  O4_102 
ROOT
ATOM      1  S   IDS d 303      77.382  21.490 103.725  0.00  0.00     0.252 S 
ATOM      2  O2  IDS d 303      78.339  20.328 102.828  0.00  0.00    -0.244 OA
ATOM      3  O61 IDS d 303      82.485  16.526 101.825  0.00  0.00    -0.646 OA
ATOM      4  O3  IDS d 303      81.063  20.830 100.595  0.00  0.00    -0.390 OA
ATOM      5  O3S IDS d 303      77.367  22.704 102.947  0.00  0.00    -0.572 OA
ATOM      6  C1  IDS d 303      80.586  20.391 103.662  0.00  0.00     0.161 C 
ATOM      7  C4  IDS d 303      80.232  18.640 101.213  0.00  0.00     0.103 C 
ATOM      8  O2S IDS d 303      76.063  20.950 103.905  0.00  0.00    -0.572 OA
ATOM      9  C3  IDS d 303      79.984  20.163 101.137  0.00  0.00     0.094 C 
ATOM     10  C5  IDS d 303      81.117  18.353 102.423  0.00  0.00     0.152 C 
ATOM     11  C6  IDS d 303      81.523  16.908 102.495  0.00  0.00     0.206 C 
ATOM     12  O62 IDS d 303      80.985  16.233 103.394  0.00  0.00    -0.646 OA
ATOM     13  O5  IDS d 303      80.857  18.996 103.657  0.00  0.00    -0.340 OA
ATOM     14  C2  IDS d 303      79.624  20.755 102.511  0.00  0.00     0.134 C 
ATOM     15  O1S IDS d 303      78.016  21.687 104.988  0.00  0.00    -0.572 OA
ATOM     16  H   IDS d 303      81.279  20.447  99.730  0.00  0.00     0.210 HD
ATOM     17  H   IDS d 303      80.135  20.589 104.611  0.00  0.00     0.133 H 
ATOM     18  H   IDS d 303      80.676  18.321 100.292  0.00  0.00     0.092 H 
ATOM     19  H   IDS d 303      79.144  20.304 100.487  0.00  0.00     0.091 H 
ATOM     20  H   IDS d 303      81.995  18.921 102.198  0.00  0.00     0.104 H 
ATOM     21  H   IDS d 303      79.702  21.818 102.419  0.00  0.00     0.097 H 
ATOM     22  C3  SGN d 306      86.243  29.697 106.929  0.00  0.00     0.083 C 
ATOM     23  O1S SGN d 306      84.345  30.175 110.049  0.00  0.00    -0.296 OA
ATOM     24  O4S SGN d 306      83.287  30.678 100.329  0.00  0.00    -0.572 OA
ATOM     25  O5S SGN d 306      83.348  28.427 101.051  0.00  0.00    -0.572 OA
ATOM     26  C2  SGN d 306      85.289  30.856 107.171  0.00  0.00     0.081 C 
ATOM     27  O5  SGN d 306      85.074  31.166 104.777  0.00  0.00    -0.350 OA
ATOM     28  C6  SGN d 306      85.617  29.457 103.144  0.00  0.00     0.067 C 
ATOM     29  S2  SGN d 306      84.086  29.654 100.940  0.00  0.00     0.251 S 
ATOM     30  S1  SGN d 306      84.790  31.519 109.777  0.00  0.00     0.156 S 
ATOM     31  O3S SGN d 306      85.554  32.025 110.890  0.00  0.00    -0.296 OA
ATOM     32  O4  SGN d 306      86.750  27.905 105.388  0.00  0.00    -0.348 OA
ATOM     33  O3  SGN d 306      86.154  28.799 108.020  0.00  0.00    -0.391 OA
ATOM     34  O6S SGN d 306      85.293  29.431 100.185  0.00  0.00    -0.572 OA
ATOM     35  C5  SGN d 306      85.975  30.053 104.494  0.00  0.00     0.091 C 
ATOM     36  O1  SGN d 306      86.562  32.551 106.012  0.00  0.00    -0.369 OA
ATOM     37  N   SGN d 306      85.795  31.529 108.335  0.00  0.00    -0.210 NA
ATOM     38  O6  SGN d 306      84.537  30.153 102.562  0.00  0.00    -0.254 OA
ATOM     39  C4  SGN d 306      85.849  29.005 105.620  0.00  0.00     0.095 C 
ATOM     40  O2S SGN d 306      83.674  32.373 109.511  0.00  0.00    -0.296 OA
ATOM     41  C1  SGN d 306      85.311  31.871 106.017  0.00  0.00     0.147 C 
ATOM     42  H   SGN d 306      87.253  30.042 106.849  0.00  0.00     0.089 H 
ATOM     43  H   SGN d 306      83.832  29.846 109.294  0.00  0.00     0.231 HD
ATOM     44  H   SGN d 306      84.289  30.488 107.272  0.00  0.00     0.076 H 
ATOM     45  H   SGN d 306      85.345  28.431 103.274  0.00  0.00     0.080 H 
ATOM     46  H   SGN d 306      86.466  29.536 102.497  0.00  0.00     0.080 H 
ATOM     47  H   SGN d 306      86.306  31.437 111.060  0.00  0.00     0.231 HD
ATOM     48  H   SGN d 306      85.242  28.478 108.102  0.00  0.00     0.210 HD
ATOM     49  H   SGN d 306      86.990  30.390 104.456  0.00  0.00     0.090 H 
ATOM     50  H   SGN d 306      86.684  33.010 106.858  0.00  0.00     0.212 HD
ATOM     51  H   SGN d 306      85.954  32.504 108.079  0.00  0.00     0.140 HD
ATOM     52  H   SGN d 306      84.850  28.624 105.657  0.00  0.00     0.091 H 
ATOM     53  H   SGN d 306      83.170  32.021 108.761  0.00  0.00     0.231 HD
ATOM     54  H   SGN d 306      84.543  32.606 106.139  0.00  0.00     0.131 H 
ATOM     55  C2  UAP d 301      77.539  11.446 102.467  0.00  0.00     0.132 C 
ATOM     56  S   UAP d 301      77.949   9.225 101.135  0.00  0.00     0.252 S 
ATOM     57  O1S UAP d 301      77.569   7.903 101.451  0.00  0.00    -0.572 OA
ATOM     58  C1  UAP d 301      76.749  12.648 101.991  0.00  0.00     0.161 C 
ATOM     59  O61 UAP d 301      74.329  12.621 106.207  0.00  0.00    -0.646 OA
ATOM     60  C5  UAP d 301      75.580  12.582 104.152  0.00  0.00     0.127 C 
ATOM     61  O3  UAP d 301      79.020  11.922 104.239  0.00  0.00    -0.393 OA
ATOM     62  O2  UAP d 301      76.908  10.287 102.041  0.00  0.00    -0.244 OA
ATOM     63  O5  UAP d 301      75.571  12.859 102.763  0.00  0.00    -0.343 OA
ATOM     64  C6  UAP d 301      74.348  12.901 104.991  0.00  0.00     0.203 C 
ATOM     65  O62 UAP d 301      73.384  13.414 104.382  0.00  0.00    -0.646 OA
ATOM     66  O3S UAP d 301      77.707   9.523  99.757  0.00  0.00    -0.572 OA
ATOM     67  O2S UAP d 301      79.324   9.449 101.510  0.00  0.00    -0.572 OA
ATOM     68  C3  UAP d 301      77.807  11.291 103.972  0.00  0.00     0.069 C 
ATOM     69  C4  UAP d 301      76.698  11.856 104.902  0.00  0.00    -0.005 C 
ATOM     70  H   UAP d 301      78.502  11.619 102.035  0.00  0.00     0.097 H 
ATOM     71  H   UAP d 301      76.402  12.513 100.987  0.00  0.00     0.133 H 
ATOM     72  H   UAP d 301      76.296  13.185 103.634  0.00  0.00     0.100 H 
ATOM     73  H   UAP d 301      79.707  11.564 103.655  0.00  0.00     0.210 HD
ATOM     74  H   UAP d 301      77.827  10.243 104.187  0.00  0.00     0.087 H 
ATOM     75  H   UAP d 301      76.266  11.042 105.447  0.00  0.00     0.041 H 
ATOM     76  H   UAP d 301      77.163  12.574 105.544  0.00  0.00     0.041 H 
ATOM     77  O5  IDS d 305      85.151  26.105 105.570  0.00  0.00    -0.340 OA
ATOM     78  O62 IDS d 305      83.103  25.045 107.110  0.00  0.00    -0.646 OA
ATOM     79  C1  IDS d 305      86.240  26.680 104.845  0.00  0.00     0.161 C 
ATOM     80  O3  IDS d 305      88.539  24.755 106.502  0.00  0.00    -0.390 OA
ATOM     81  C6  IDS d 305      84.259  24.737 107.480  0.00  0.00     0.206 C 
ATOM     82  C2  IDS d 305      87.419  25.692 104.641  0.00  0.00     0.134 C 
ATOM     83  C5  IDS d 305      85.401  25.117 106.537  0.00  0.00     0.152 C 
ATOM     84  C3  IDS d 305      87.605  24.457 105.542  0.00  0.00     0.094 C 
ATOM     85  S   IDS d 305      86.723  24.824 102.127  0.00  0.00     0.252 S 
ATOM     86  C4  IDS d 305      86.308  23.943 106.196  0.00  0.00     0.103 C 
ATOM     87  O3S IDS d 305      87.388  24.835 100.876  0.00  0.00    -0.572 OA
ATOM     88  O1S IDS d 305      85.566  25.644 102.068  0.00  0.00    -0.572 OA
ATOM     89  O2  IDS d 305      87.858  25.506 103.302  0.00  0.00    -0.244 OA
ATOM     90  O61 IDS d 305      84.486  23.953 108.417  0.00  0.00    -0.646 OA
ATOM     91  O2S IDS d 305      86.382  23.504 102.514  0.00  0.00    -0.572 OA
ATOM     92  H   IDS d 305      85.797  26.912 103.899  0.00  0.00     0.133 H 
ATOM     93  H   IDS d 305      89.349  25.077 106.075  0.00  0.00     0.210 HD
ATOM     94  H   IDS d 305      88.129  26.330 105.126  0.00  0.00     0.097 H 
ATOM     95  H   IDS d 305      86.048  25.740 107.119  0.00  0.00     0.104 H 
ATOM     96  H   IDS d 305      87.933  23.656 104.913  0.00  0.00     0.091 H 
ATOM     97  H   IDS d 305      86.575  23.404 107.081  0.00  0.00     0.092 H 
ATOM     98  O6  SGN d 304      81.673  20.411 106.904  0.00  0.00    -0.254 OA
ATOM     99  S2  SGN d 304      80.316  19.912 107.886  0.00  0.00     0.251 S 
ATOM    100  O5S SGN d 304      80.361  18.478 108.002  0.00  0.00    -0.572 OA
ATOM    101  N   SGN d 304      86.495  21.142 103.664  0.00  0.00    -0.210 NA
ATOM    102  O3S SGN d 304      88.133  19.156 104.045  0.00  0.00    -0.296 OA
ATOM    103  C6  SGN d 304      81.733  21.774 106.490  0.00  0.00     0.067 C 
ATOM    104  O3  SGN d 304      84.135  20.212 102.480  0.00  0.00    -0.391 OA
ATOM    105  C5  SGN d 304      82.939  21.906 105.595  0.00  0.00     0.091 C 
ATOM    106  O2S SGN d 304      89.020  21.161 103.242  0.00  0.00    -0.296 OA
ATOM    107  O1  SGN d 304      85.596  23.087 105.294  0.00  0.00    -0.348 OA
ATOM    108  O4S SGN d 304      80.426  20.519 109.178  0.00  0.00    -0.572 OA
ATOM    109  C1  SGN d 304      85.370  21.736 105.706  0.00  0.00     0.150 C 
ATOM    110  C3  SGN d 304      84.135  21.102 103.580  0.00  0.00     0.083 C 
ATOM    111  C2  SGN d 304      85.347  20.806 104.469  0.00  0.00     0.081 C 
ATOM    112  S1  SGN d 304      88.090  20.579 104.149  0.00  0.00     0.156 S 
ATOM    113  O6S SGN d 304      79.099  20.323 107.222  0.00  0.00    -0.572 OA
ATOM    114  O1S SGN d 304      88.382  20.978 105.495  0.00  0.00    -0.296 OA
ATOM    115  O5  SGN d 304      84.113  21.606 106.395  0.00  0.00    -0.349 OA
ATOM    116  C4  SGN d 304      82.873  20.916 104.414  0.00  0.00     0.095 C 
ATOM    117  O4  SGN d 304      81.739  21.208 103.583  0.00  0.00    -0.348 OA
ATOM    118  H   SGN d 304      86.541  22.161 103.623  0.00  0.00     0.140 HD
ATOM    119  H   SGN d 304      87.935  18.892 103.133  0.00  0.00     0.231 HD
ATOM    120  H   SGN d 304      81.836  22.413 107.343  0.00  0.00     0.080 H 
ATOM    121  H   SGN d 304      80.839  22.057 105.975  0.00  0.00     0.080 H 
ATOM    122  H   SGN d 304      84.943  20.342 101.959  0.00  0.00     0.210 HD
ATOM    123  H   SGN d 304      82.976  22.897 105.193  0.00  0.00     0.090 H 
ATOM    124  H   SGN d 304      88.808  20.882 102.338  0.00  0.00     0.231 HD
ATOM    125  H   SGN d 304      86.164  21.460 106.368  0.00  0.00     0.131 H 
ATOM    126  H   SGN d 304      84.173  22.104 103.208  0.00  0.00     0.089 H 
ATOM    127  H   SGN d 304      85.328  19.790 104.804  0.00  0.00     0.076 H 
ATOM    128  H   SGN d 304      87.740  20.573 106.099  0.00  0.00     0.231 HD
ATOM    129  H   SGN d 304      82.788  19.916 104.786  0.00  0.00     0.091 H 
ATOM    130  O5S SGN d 302      80.980  13.158  96.576  0.00  0.00    -0.572 OA
ATOM    131  C4  SGN d 302      77.523  14.784 101.203  0.00  0.00     0.095 C 
ATOM    132  O1S SGN d 302      73.828  18.765 101.914  0.00  0.00    -0.296 OA
ATOM    133  O3  SGN d 302      75.642  15.674 102.389  0.00  0.00    -0.391 OA
ATOM    134  O2S SGN d 302      74.647  18.570  99.705  0.00  0.00    -0.296 OA
ATOM    135  C1  SGN d 302      78.246  17.456 100.353  0.00  0.00     0.150 C 
ATOM    136  C5  SGN d 302      78.917  15.127 100.696  0.00  0.00     0.091 C 
ATOM    137  O3S SGN d 302      75.136  20.495 100.954  0.00  0.00    -0.296 OA
ATOM    138  O5  SGN d 302      78.826  16.253  99.783  0.00  0.00    -0.349 OA
ATOM    139  C6  SGN d 302      79.519  13.911 100.005  0.00  0.00     0.067 C 
ATOM    140  S1  SGN d 302      74.915  19.071 101.018  0.00  0.00     0.156 S 
ATOM    141  O4S SGN d 302      82.335  14.277  98.157  0.00  0.00    -0.572 OA
ATOM    142  O6S SGN d 302      81.421  12.148  98.648  0.00  0.00    -0.572 OA
ATOM    143  O4  SGN d 302      77.631  13.727 102.111  0.00  0.00    -0.348 OA
ATOM    144  N   SGN d 302      76.381  18.269 101.599  0.00  0.00    -0.210 NA
ATOM    145  C3  SGN d 302      76.938  15.989 101.912  0.00  0.00     0.083 C 
ATOM    146  C2  SGN d 302      76.854  17.108 100.886  0.00  0.00     0.081 C 
ATOM    147  S2  SGN d 302      81.209  13.404  97.974  0.00  0.00     0.251 S 
ATOM    148  O6  SGN d 302      79.775  14.167  98.642  0.00  0.00    -0.254 OA
ATOM    149  O1  SGN d 302      79.001  17.951 101.458  0.00  0.00    -0.348 OA
ATOM    150  H   SGN d 302      76.890  14.509 100.386  0.00  0.00     0.091 H 
ATOM    151  H   SGN d 302      73.019  19.201 101.602  0.00  0.00     0.231 HD
ATOM    152  H   SGN d 302      75.703  14.961 103.043  0.00  0.00     0.210 HD
ATOM    153  H   SGN d 302      73.846  18.991  99.356  0.00  0.00     0.231 HD
ATOM    154  H   SGN d 302      78.226  18.202  99.586  0.00  0.00     0.131 H 
ATOM    155  H   SGN d 302      79.552  15.397 101.512  0.00  0.00     0.090 H 
ATOM    156  H   SGN d 302      74.331  20.933 100.635  0.00  0.00     0.231 HD
ATOM    157  H   SGN d 302      78.834  13.092 100.082  0.00  0.00     0.080 H 
ATOM    158  H   SGN d 302      80.446  13.678 100.484  0.00  0.00     0.080 H 
ATOM    159  H   SGN d 302      76.206  17.982 102.562  0.00  0.00     0.140 HD
ATOM    160  H   SGN d 302      77.543  16.281 102.745  0.00  0.00     0.089 H 
ATOM    161  H   SGN d 302      76.222  16.813 100.073  0.00  0.00     0.076 H 
ENDROOT
TORSDOF 50
ENDMDL
MODEL 10
REMARK VINA RESULT:     -11.7      4.195     15.021
REMARK  0 active torsions:
REMARK  status: ('A' for Active; 'I' for Inactive)
REMARK       I    between atoms: S_1  and  O2_2 
REMARK       I    between atoms: O2_2  and  C2_99 
REMARK       I    between atoms: C3_3  and  O3_50 
REMARK       I    between atoms: C2_5  and  O2_57 
REMARK       I    between atoms: O1S_6  and  S1_33 
REMARK       I    between atoms: O3_7  and  C3_52 
REMARK       I    between atoms: O6_9  and  C6_34 
REMARK       I    between atoms: O6_9  and  S2_17 
REMARK       I    between atoms: C2_13  and  N_73 
REMARK       I    between atoms: S_16  and  O2_57 
REMARK       I    between atoms: C1_20  and  O4_43 
REMARK       I    between atoms: C6_21  and  C5_67 
REMARK       I    between atoms: C6_21  and  O6_75 
REMARK       I    between atoms: N_22  and  C2_66 
REMARK       I    between atoms: N_22  and  S1_69 
REMARK       I    between atoms: S2_23  and  O6_75 
REMARK       I    between atoms: C1_24  and  O4_78 
REMARK       I    between atoms: C4_25  and  O4_78 
REMARK       I    between atoms: O3_26  and  C3_81 
REMARK       I    between atoms: O1S_27  and  S1_60 
REMARK       I    between atoms: O3S_28  and  S1_69 
REMARK       I    between atoms: O3_29  and  C3_87 
REMARK       I    between atoms: C6_30  and  C5_80 
REMARK       I    between atoms: O2S_32  and  S1_60 
REMARK       I    between atoms: S1_33  and  N_73 
REMARK       I    between atoms: S1_33  and  O2S_94 
REMARK       I    between atoms: S1_33  and  O3S_35 
REMARK       I    between atoms: C6_34  and  C5_38 
REMARK       I    between atoms: C2_36  and  O2_93 
REMARK       I    between atoms: O3_37  and  C3_65 
REMARK       I    between atoms: C1_40  and  O1_105 
REMARK       I    between atoms: O2S_41  and  S1_69 
REMARK       I    between atoms: C5_42  and  C6_54 
REMARK       I    between atoms: O4_43  and  C4_92 
REMARK       I    between atoms: O1_44  and  C1_62 
REMARK       I    between atoms: O1_44  and  C4_83 
REMARK       I    between atoms: C1_45  and  O4_102 
REMARK       I    between atoms: C4_46  and  O1_105 
REMARK       I    between atoms: O3S_47  and  S1_60 
REMARK       I    between atoms: C5_53  and  C6_61 
REMARK       I    between atoms: C6_54  and  O6_98 
REMARK       I    between atoms: O3_56  and  C3_84 
REMARK       I    between atoms: C5_59  and  C6_63 
REMARK       I    between atoms: S1_60  and  N_86 
REMARK       I    between atoms: S1_69  and  O1S_91 
REMARK       I    between atoms: O1_70  and  C1_96 
REMARK       I    between atoms: S_82  and  O2_93 
REMARK       I    between atoms: N_86  and  C2_90 
REMARK       I    between atoms: S2_95  and  O6_98 
REMARK       I    between atoms: C4_100  and  O4_102 
ROOT
ATOM      1  S   IDS d 303      78.667  19.413 106.648  0.00  0.00     0.252 S 
ATOM      2  O2  IDS d 303      80.114  19.336 105.662  0.00  0.00    -0.244 OA
ATOM      3  O61 IDS d 303      83.525  20.276 101.175  0.00  0.00    -0.646 OA
ATOM      4  O3  IDS d 303      81.212  16.835 103.381  0.00  0.00    -0.390 OA
ATOM      5  O3S IDS d 303      78.301  18.051 106.953  0.00  0.00    -0.572 OA
ATOM      6  C1  IDS d 303      79.468  19.440 103.356  0.00  0.00     0.161 C 
ATOM      7  C4  IDS d 303      82.419  18.897 103.781  0.00  0.00     0.103 C 
ATOM      8  O2S IDS d 303      78.965  20.168 107.834  0.00  0.00    -0.572 OA
ATOM      9  C3  IDS d 303      81.353  17.887 104.263  0.00  0.00     0.094 C 
ATOM     10  C5  IDS d 303      81.797  19.781 102.703  0.00  0.00     0.152 C 
ATOM     11  C6  IDS d 303      82.806  20.704 102.080  0.00  0.00     0.206 C 
ATOM     12  O62 IDS d 303      82.703  21.909 102.381  0.00  0.00    -0.646 OA
ATOM     13  O5  IDS d 303      80.493  20.302 102.883  0.00  0.00    -0.340 OA
ATOM     14  C2  IDS d 303      79.994  18.563 104.512  0.00  0.00     0.134 C 
ATOM     15  O1S IDS d 303      77.658  20.066 105.881  0.00  0.00    -0.572 OA
ATOM     16  H   IDS d 303      82.075  16.418 103.233  0.00  0.00     0.210 HD
ATOM     17  H   IDS d 303      78.686  20.087 103.695  0.00  0.00     0.133 H 
ATOM     18  H   IDS d 303      83.270  18.351 103.427  0.00  0.00     0.092 H 
ATOM     19  H   IDS d 303      81.703  17.495 105.196  0.00  0.00     0.091 H 
ATOM     20  H   IDS d 303      81.517  19.064 101.961  0.00  0.00     0.104 H 
ATOM     21  H   IDS d 303      79.272  17.779 104.608  0.00  0.00     0.097 H 
ATOM     22  C3  SGN d 306      70.314  14.509  98.754  0.00  0.00     0.083 C 
ATOM     23  O1S SGN d 306      67.882  16.835 100.250  0.00  0.00    -0.296 OA
ATOM     24  O4S SGN d 306      74.105   9.690 102.714  0.00  0.00    -0.572 OA
ATOM     25  O5S SGN d 306      75.272  11.685 102.216  0.00  0.00    -0.572 OA
ATOM     26  C2  SGN d 306      69.312  14.113  99.828  0.00  0.00     0.081 C 
ATOM     27  O5  SGN d 306      70.707  12.221 100.418  0.00  0.00    -0.350 OA
ATOM     28  C6  SGN d 306      73.062  12.057  99.858  0.00  0.00     0.067 C 
ATOM     29  S2  SGN d 306      74.432  10.645 101.693  0.00  0.00     0.251 S 
ATOM     30  S1  SGN d 306      67.069  15.662 100.053  0.00  0.00     0.156 S 
ATOM     31  O3S SGN d 306      65.931  15.977  99.226  0.00  0.00    -0.296 OA
ATOM     32  O4  SGN d 306      72.667  14.474  98.205  0.00  0.00    -0.348 OA
ATOM     33  O3  SGN d 306      70.239  15.908  98.555  0.00  0.00    -0.391 OA
ATOM     34  O6S SGN d 306      75.088  10.001 100.583  0.00  0.00    -0.572 OA
ATOM     35  C5  SGN d 306      71.703  12.567  99.410  0.00  0.00     0.091 C 
ATOM     36  O1  SGN d 306      68.828  11.897  98.996  0.00  0.00    -0.369 OA
ATOM     37  N   SGN d 306      68.021  14.407  99.271  0.00  0.00    -0.210 NA
ATOM     38  O6  SGN d 306      72.961  11.397 101.100  0.00  0.00    -0.254 OA
ATOM     39  C4  SGN d 306      71.715  14.099  99.219  0.00  0.00     0.095 C 
ATOM     40  O2S SGN d 306      66.638  15.132 101.310  0.00  0.00    -0.296 OA
ATOM     41  C1  SGN d 306      69.345  12.604 100.118  0.00  0.00     0.147 C 
ATOM     42  H   SGN d 306      70.098  14.017  97.829  0.00  0.00     0.089 H 
ATOM     43  H   SGN d 306      68.643  16.612 100.808  0.00  0.00     0.231 HD
ATOM     44  H   SGN d 306      69.531  14.632 100.738  0.00  0.00     0.076 H 
ATOM     45  H   SGN d 306      73.733  12.884  99.953  0.00  0.00     0.080 H 
ATOM     46  H   SGN d 306      73.427  11.365  99.128  0.00  0.00     0.080 H 
ATOM     47  H   SGN d 306      66.237  16.334  98.378  0.00  0.00     0.231 HD
ATOM     48  H   SGN d 306      70.434  16.365  99.389  0.00  0.00     0.210 HD
ATOM     49  H   SGN d 306      71.465  12.111  98.471  0.00  0.00     0.090 H 
ATOM     50  H   SGN d 306      67.916  12.181  98.828  0.00  0.00     0.212 HD
ATOM     51  H   SGN d 306      67.474  13.547  99.297  0.00  0.00     0.140 HD
ATOM     52  H   SGN d 306      71.987  14.580 100.134  0.00  0.00     0.091 H 
ATOM     53  H   SGN d 306      67.413  14.925 101.856  0.00  0.00     0.231 HD
ATOM     54  H   SGN d 306      68.734  12.363 100.963  0.00  0.00     0.131 H 
ATOM     55  C2  UAP d 301      86.911  25.100 105.168  0.00  0.00     0.132 C 
ATOM     56  S   UAP d 301      89.441  25.519 104.620  0.00  0.00     0.252 S 
ATOM     57  O1S UAP d 301      90.206  26.697 104.750  0.00  0.00    -0.572 OA
ATOM     58  C1  UAP d 301      86.361  24.123 106.187  0.00  0.00     0.161 C 
ATOM     59  O61 UAP d 301      83.568  27.682 107.965  0.00  0.00    -0.646 OA
ATOM     60  C5  UAP d 301      84.966  25.967 107.021  0.00  0.00     0.127 C 
ATOM     61  O3  UAP d 301      85.338  25.766 103.542  0.00  0.00    -0.393 OA
ATOM     62  O2  UAP d 301      88.063  25.685 105.671  0.00  0.00    -0.244 OA
ATOM     63  O5  UAP d 301      85.702  24.781 107.264  0.00  0.00    -0.343 OA
ATOM     64  C6  UAP d 301      84.184  26.614 108.157  0.00  0.00     0.203 C 
ATOM     65  O62 UAP d 301      84.234  26.032 109.262  0.00  0.00    -0.646 OA
ATOM     66  O3S UAP d 301      90.157  24.375 105.093  0.00  0.00    -0.572 OA
ATOM     67  O2S UAP d 301      89.000  25.363 103.255  0.00  0.00    -0.572 OA
ATOM     68  C3  UAP d 301      86.003  26.236 104.672  0.00  0.00     0.069 C 
ATOM     69  C4  UAP d 301      84.975  26.761 105.713  0.00  0.00    -0.005 C 
ATOM     70  H   UAP d 301      87.060  24.478 104.311  0.00  0.00     0.097 H 
ATOM     71  H   UAP d 301      87.145  23.557 106.646  0.00  0.00     0.133 H 
ATOM     72  H   UAP d 301      84.861  25.049 106.482  0.00  0.00     0.100 H 
ATOM     73  H   UAP d 301      85.985  25.440 102.898  0.00  0.00     0.210 HD
ATOM     74  H   UAP d 301      86.629  27.079 104.466  0.00  0.00     0.087 H 
ATOM     75  H   UAP d 301      85.213  27.781 105.939  0.00  0.00     0.041 H 
ATOM     76  H   UAP d 301      84.005  26.657 105.276  0.00  0.00     0.041 H 
ATOM     77  O5  IDS d 305      73.896  16.119  99.476  0.00  0.00    -0.340 OA
ATOM     78  O62 IDS d 305      73.667  18.349 101.108  0.00  0.00    -0.646 OA
ATOM     79  C1  IDS d 305      73.945  14.993  98.597  0.00  0.00     0.161 C 
ATOM     80  O3  IDS d 305      74.204  16.994  95.827  0.00  0.00    -0.390 OA
ATOM     81  C6  IDS d 305      73.625  18.585  99.879  0.00  0.00     0.206 C 
ATOM     82  C2  IDS d 305      74.791  15.258  97.323  0.00  0.00     0.134 C 
ATOM     83  C5  IDS d 305      73.965  17.420  98.949  0.00  0.00     0.152 C 
ATOM     84  C3  IDS d 305      75.088  16.687  96.831  0.00  0.00     0.094 C 
ATOM     85  S   IDS d 305      77.143  14.154  98.225  0.00  0.00     0.252 S 
ATOM     86  C4  IDS d 305      75.045  17.763  97.933  0.00  0.00     0.103 C 
ATOM     87  O3S IDS d 305      77.970  13.107  97.749  0.00  0.00    -0.572 OA
ATOM     88  O1S IDS d 305      76.597  13.806  99.488  0.00  0.00    -0.572 OA
ATOM     89  O2  IDS d 305      75.827  14.323  97.051  0.00  0.00    -0.244 OA
ATOM     90  O61 IDS d 305      73.565  19.734  99.409  0.00  0.00    -0.646 OA
ATOM     91  O2S IDS d 305      77.858  15.375  98.307  0.00  0.00    -0.572 OA
ATOM     92  H   IDS d 305      74.422  14.247  99.197  0.00  0.00     0.133 H 
ATOM     93  H   IDS d 305      74.242  16.308  95.142  0.00  0.00     0.210 HD
ATOM     94  H   IDS d 305      73.982  15.043  96.655  0.00  0.00     0.097 H 
ATOM     95  H   IDS d 305      73.102  17.298  98.328  0.00  0.00     0.104 H 
ATOM     96  H   IDS d 305      76.098  16.694  96.478  0.00  0.00     0.091 H 
ATOM     97  H   IDS d 305      74.839  18.705  97.468  0.00  0.00     0.092 H 
ATOM     98  O6  SGN d 304      77.242  21.550 101.844  0.00  0.00    -0.254 OA
ATOM     99  S2  SGN d 304      76.966  22.866 102.961  0.00  0.00     0.251 S 
ATOM    100  O5S SGN d 304      77.943  23.887 102.686  0.00  0.00    -0.572 OA
ATOM    101  N   SGN d 304      78.817  17.742  97.683  0.00  0.00    -0.210 NA
ATOM    102  O3S SGN d 304      79.995  18.995  95.730  0.00  0.00    -0.296 OA
ATOM    103  C6  SGN d 304      76.517  20.339 102.046  0.00  0.00     0.067 C 
ATOM    104  O3  SGN d 304      80.341  17.981 100.019  0.00  0.00    -0.391 OA
ATOM    105  C5  SGN d 304      77.006  19.359 101.010  0.00  0.00     0.091 C 
ATOM    106  O2S SGN d 304      79.047  16.911  95.273  0.00  0.00    -0.296 OA
ATOM    107  O1  SGN d 304      76.297  17.821  98.627  0.00  0.00    -0.348 OA
ATOM    108  O4S SGN d 304      75.644  23.377 102.764  0.00  0.00    -0.572 OA
ATOM    109  C1  SGN d 304      77.017  19.056  98.590  0.00  0.00     0.150 C 
ATOM    110  C3  SGN d 304      78.942  18.189 100.000  0.00  0.00     0.083 C 
ATOM    111  C2  SGN d 304      78.539  18.780  98.645  0.00  0.00     0.081 C 
ATOM    112  S1  SGN d 304      78.878  18.140  95.971  0.00  0.00     0.156 S 
ATOM    113  O6S SGN d 304      77.133  22.362 104.306  0.00  0.00    -0.572 OA
ATOM    114  O1S SGN d 304      77.668  18.791  95.556  0.00  0.00    -0.296 OA
ATOM    115  O5  SGN d 304      76.667  19.897  99.704  0.00  0.00    -0.349 OA
ATOM    116  C4  SGN d 304      78.535  19.172 101.091  0.00  0.00     0.095 C 
ATOM    117  O4  SGN d 304      78.901  18.609 102.360  0.00  0.00    -0.348 OA
ATOM    118  H   SGN d 304      78.094  17.031  97.796  0.00  0.00     0.140 HD
ATOM    119  H   SGN d 304      80.809  18.550  96.012  0.00  0.00     0.231 HD
ATOM    120  H   SGN d 304      75.468  20.513 101.922  0.00  0.00     0.080 H 
ATOM    121  H   SGN d 304      76.672  19.961 103.035  0.00  0.00     0.080 H 
ATOM    122  H   SGN d 304      80.584  17.354  99.320  0.00  0.00     0.210 HD
ATOM    123  H   SGN d 304      76.547  18.407 101.178  0.00  0.00     0.090 H 
ATOM    124  H   SGN d 304      79.868  16.484  95.565  0.00  0.00     0.231 HD
ATOM    125  H   SGN d 304      76.759  19.555  97.679  0.00  0.00     0.131 H 
ATOM    126  H   SGN d 304      78.455  17.250 100.163  0.00  0.00     0.089 H 
ATOM    127  H   SGN d 304      79.060  19.697  98.465  0.00  0.00     0.076 H 
ATOM    128  H   SGN d 304      77.568  19.625  96.040  0.00  0.00     0.231 HD
ATOM    129  H   SGN d 304      79.021  20.118 100.972  0.00  0.00     0.091 H 
ATOM    130  O5S SGN d 302      89.579  19.009 102.875  0.00  0.00    -0.572 OA
ATOM    131  C4  SGN d 302      85.308  21.986 105.858  0.00  0.00     0.095 C 
ATOM    132  O1S SGN d 302      81.957  20.625 109.972  0.00  0.00    -0.296 OA
ATOM    133  O3  SGN d 302      83.882  22.639 107.667  0.00  0.00    -0.391 OA
ATOM    134  O2S SGN d 302      83.581  18.990 109.448  0.00  0.00    -0.296 OA
ATOM    135  C1  SGN d 302      83.905  19.460 105.668  0.00  0.00     0.150 C 
ATOM    136  C5  SGN d 302      85.377  21.109 104.615  0.00  0.00     0.091 C 
ATOM    137  O3S SGN d 302      81.312  18.523 109.083  0.00  0.00    -0.296 OA
ATOM    138  O5  SGN d 302      85.167  19.725 105.000  0.00  0.00    -0.349 OA
ATOM    139  C6  SGN d 302      86.730  21.289 103.941  0.00  0.00     0.067 C 
ATOM    140  S1  SGN d 302      82.319  19.554 109.078  0.00  0.00     0.156 S 
ATOM    141  O4S SGN d 302      87.665  19.138 101.496  0.00  0.00    -0.572 OA
ATOM    142  O6S SGN d 302      88.915  21.085 102.003  0.00  0.00    -0.572 OA
ATOM    143  O4  SGN d 302      85.471  23.318 105.468  0.00  0.00    -0.348 OA
ATOM    144  N   SGN d 302      82.493  20.205 107.442  0.00  0.00    -0.210 NA
ATOM    145  C3  SGN d 302      83.951  21.823 106.512  0.00  0.00     0.083 C 
ATOM    146  C2  SGN d 302      83.823  20.360 106.905  0.00  0.00     0.081 C 
ATOM    147  S2  SGN d 302      88.449  19.811 102.493  0.00  0.00     0.251 S 
ATOM    148  O6  SGN d 302      87.459  20.083 103.918  0.00  0.00    -0.254 OA
ATOM    149  O1  SGN d 302      82.780  19.780 104.849  0.00  0.00    -0.348 OA
ATOM    150  H   SGN d 302      86.074  21.705 106.550  0.00  0.00     0.091 H 
ATOM    151  H   SGN d 302      81.860  20.276 110.872  0.00  0.00     0.231 HD
ATOM    152  H   SGN d 302      83.964  23.571 107.410  0.00  0.00     0.210 HD
ATOM    153  H   SGN d 302      83.521  18.622 110.344  0.00  0.00     0.231 HD
ATOM    154  H   SGN d 302      83.875  18.418 105.906  0.00  0.00     0.131 H 
ATOM    155  H   SGN d 302      84.615  21.392 103.920  0.00  0.00     0.090 H 
ATOM    156  H   SGN d 302      81.218  18.167 109.981  0.00  0.00     0.231 HD
ATOM    157  H   SGN d 302      87.291  22.025 104.478  0.00  0.00     0.080 H 
ATOM    158  H   SGN d 302      86.563  21.601 102.931  0.00  0.00     0.080 H 
ATOM    159  H   SGN d 302      82.056  21.127 107.436  0.00  0.00     0.140 HD
ATOM    160  H   SGN d 302      83.163  22.110 105.848  0.00  0.00     0.089 H 
ATOM    161  H   SGN d 302      84.600  20.095 107.592  0.00  0.00     0.076 H 
ENDROOT
TORSDOF 50
ENDMDL
MODEL 11
REMARK VINA RESULT:     -11.7      3.960      7.076
REMARK  0 active torsions:
REMARK  status: ('A' for Active; 'I' for Inactive)
REMARK       I    between atoms: S_1  and  O2_2 
REMARK       I    between atoms: O2_2  and  C2_99 
REMARK       I    between atoms: C3_3  and  O3_50 
REMARK       I    between atoms: C2_5  and  O2_57 
REMARK       I    between atoms: O1S_6  and  S1_33 
REMARK       I    between atoms: O3_7  and  C3_52 
REMARK       I    between atoms: O6_9  and  C6_34 
REMARK       I    between atoms: O6_9  and  S2_17 
REMARK       I    between atoms: C2_13  and  N_73 
REMARK       I    between atoms: S_16  and  O2_57 
REMARK       I    between atoms: C1_20  and  O4_43 
REMARK       I    between atoms: C6_21  and  C5_67 
REMARK       I    between atoms: C6_21  and  O6_75 
REMARK       I    between atoms: N_22  and  C2_66 
REMARK       I    between atoms: N_22  and  S1_69 
REMARK       I    between atoms: S2_23  and  O6_75 
REMARK       I    between atoms: C1_24  and  O4_78 
REMARK       I    between atoms: C4_25  and  O4_78 
REMARK       I    between atoms: O3_26  and  C3_81 
REMARK       I    between atoms: O1S_27  and  S1_60 
REMARK       I    between atoms: O3S_28  and  S1_69 
REMARK       I    between atoms: O3_29  and  C3_87 
REMARK       I    between atoms: C6_30  and  C5_80 
REMARK       I    between atoms: O2S_32  and  S1_60 
REMARK       I    between atoms: S1_33  and  N_73 
REMARK       I    between atoms: S1_33  and  O2S_94 
REMARK       I    between atoms: S1_33  and  O3S_35 
REMARK       I    between atoms: C6_34  and  C5_38 
REMARK       I    between atoms: C2_36  and  O2_93 
REMARK       I    between atoms: O3_37  and  C3_65 
REMARK       I    between atoms: C1_40  and  O1_105 
REMARK       I    between atoms: O2S_41  and  S1_69 
REMARK       I    between atoms: C5_42  and  C6_54 
REMARK       I    between atoms: O4_43  and  C4_92 
REMARK       I    between atoms: O1_44  and  C1_62 
REMARK       I    between atoms: O1_44  and  C4_83 
REMARK       I    between atoms: C1_45  and  O4_102 
REMARK       I    between atoms: C4_46  and  O1_105 
REMARK       I    between atoms: O3S_47  and  S1_60 
REMARK       I    between atoms: C5_53  and  C6_61 
REMARK       I    between atoms: C6_54  and  O6_98 
REMARK       I    between atoms: O3_56  and  C3_84 
REMARK       I    between atoms: C5_59  and  C6_63 
REMARK       I    between atoms: S1_60  and  N_86 
REMARK       I    between atoms: S1_69  and  O1S_91 
REMARK       I    between atoms: O1_70  and  C1_96 
REMARK       I    between atoms: S_82  and  O2_93 
REMARK       I    between atoms: N_86  and  C2_90 
REMARK       I    between atoms: S2_95  and  O6_98 
REMARK       I    between atoms: C4_100  and  O4_102 
ROOT
ATOM      1  S   IDS d 303      77.099  19.305  99.420  0.00  0.00     0.252 S 
ATOM      2  O2  IDS d 303      77.282  17.694 100.086  0.00  0.00    -0.244 OA
ATOM      3  O61 IDS d 303      77.353  13.573 104.043  0.00  0.00    -0.646 OA
ATOM      4  O3  IDS d 303      80.199  15.979 101.185  0.00  0.00    -0.390 OA
ATOM      5  O3S IDS d 303      78.329  19.612  98.732  0.00  0.00    -0.572 OA
ATOM      6  C1  IDS d 303      78.012  17.892 102.361  0.00  0.00     0.161 C 
ATOM      7  C4  IDS d 303      77.970  15.043 101.327  0.00  0.00     0.103 C 
ATOM      8  O2S IDS d 303      75.971  19.303  98.530  0.00  0.00    -0.572 OA
ATOM      9  C3  IDS d 303      78.912  16.096 100.702  0.00  0.00     0.094 C 
ATOM     10  C5  IDS d 303      77.573  15.516 102.723  0.00  0.00     0.152 C 
ATOM     11  C6  IDS d 303      76.765  14.485 103.459  0.00  0.00     0.206 C 
ATOM     12  O62 IDS d 303      75.554  14.741 103.605  0.00  0.00    -0.646 OA
ATOM     13  O5  IDS d 303      77.211  16.868 102.934  0.00  0.00    -0.340 OA
ATOM     14  C2  IDS d 303      78.390  17.528 100.910  0.00  0.00     0.134 C 
ATOM     15  O1S IDS d 303      76.873  20.198 100.510  0.00  0.00    -0.572 OA
ATOM     16  H   IDS d 303      80.516  15.073 101.048  0.00  0.00     0.210 HD
ATOM     17  H   IDS d 303      77.407  18.774 102.386  0.00  0.00     0.133 H 
ATOM     18  H   IDS d 303      78.474  14.099 101.339  0.00  0.00     0.092 H 
ATOM     19  H   IDS d 303      78.932  15.902  99.649  0.00  0.00     0.091 H 
ATOM     20  H   IDS d 303      78.521  15.589 103.213  0.00  0.00     0.104 H 
ATOM     21  H   IDS d 303      79.196  18.189 100.666  0.00  0.00     0.097 H 
ATOM     22  C3  SGN d 306      85.390  25.558 106.369  0.00  0.00     0.083 C 
ATOM     23  O1S SGN d 306      83.075  28.414 106.146  0.00  0.00    -0.296 OA
ATOM     24  O4S SGN d 306      88.109  22.220 100.476  0.00  0.00    -0.572 OA
ATOM     25  O5S SGN d 306      86.233  21.145 101.434  0.00  0.00    -0.572 OA
ATOM     26  C2  SGN d 306      85.559  26.713 105.393  0.00  0.00     0.081 C 
ATOM     27  O5  SGN d 306      86.948  25.308 103.988  0.00  0.00    -0.350 OA
ATOM     28  C6  SGN d 306      86.949  22.884 104.090  0.00  0.00     0.067 C 
ATOM     29  S2  SGN d 306      87.493  21.781 101.697  0.00  0.00     0.251 S 
ATOM     30  S1  SGN d 306      84.352  29.076 106.055  0.00  0.00     0.156 S 
ATOM     31  O3S SGN d 306      84.480  30.055 107.105  0.00  0.00    -0.296 OA
ATOM     32  O4  SGN d 306      85.267  23.149 106.504  0.00  0.00    -0.348 OA
ATOM     33  O3  SGN d 306      84.153  25.708 107.041  0.00  0.00    -0.391 OA
ATOM     34  O6S SGN d 306      88.359  20.874 102.407  0.00  0.00    -0.572 OA
ATOM     35  C5  SGN d 306      86.805  24.167 104.888  0.00  0.00     0.091 C 
ATOM     36  O1  SGN d 306      87.970  26.846 105.488  0.00  0.00    -0.369 OA
ATOM     37  N   SGN d 306      85.643  27.892 106.209  0.00  0.00    -0.210 NA
ATOM     38  O6  SGN d 306      87.185  23.168 102.728  0.00  0.00    -0.254 OA
ATOM     39  C4  SGN d 306      85.429  24.244 105.583  0.00  0.00     0.095 C 
ATOM     40  O2S SGN d 306      84.507  29.695 104.776  0.00  0.00    -0.296 OA
ATOM     41  C1  SGN d 306      86.876  26.613 104.607  0.00  0.00     0.147 C 
ATOM     42  H   SGN d 306      86.176  25.552 107.095  0.00  0.00     0.089 H 
ATOM     43  H   SGN d 306      82.999  27.758 105.435  0.00  0.00     0.231 HD
ATOM     44  H   SGN d 306      84.751  26.715 104.691  0.00  0.00     0.076 H 
ATOM     45  H   SGN d 306      86.049  22.313 104.179  0.00  0.00     0.080 H 
ATOM     46  H   SGN d 306      87.779  22.330 104.476  0.00  0.00     0.080 H 
ATOM     47  H   SGN d 306      84.373  29.622 107.966  0.00  0.00     0.231 HD
ATOM     48  H   SGN d 306      83.432  25.714 106.392  0.00  0.00     0.210 HD
ATOM     49  H   SGN d 306      87.565  24.184 105.641  0.00  0.00     0.090 H 
ATOM     50  H   SGN d 306      87.886  27.729 105.881  0.00  0.00     0.212 HD
ATOM     51  H   SGN d 306      86.518  28.362 105.977  0.00  0.00     0.140 HD
ATOM     52  H   SGN d 306      84.647  24.193 104.855  0.00  0.00     0.091 H 
ATOM     53  H   SGN d 306      84.418  29.025 104.080  0.00  0.00     0.231 HD
ATOM     54  H   SGN d 306      86.918  27.353 103.835  0.00  0.00     0.131 H 
ATOM     55  C2  UAP d 301      71.082  11.421 101.452  0.00  0.00     0.132 C 
ATOM     56  S   UAP d 301      70.508   8.876 101.713  0.00  0.00     0.252 S 
ATOM     57  O1S UAP d 301      69.254   8.249 101.874  0.00  0.00    -0.572 OA
ATOM     58  C1  UAP d 301      71.749  12.076 100.260  0.00  0.00     0.161 C 
ATOM     59  O61 UAP d 301      68.238  15.438 100.248  0.00  0.00    -0.646 OA
ATOM     60  C5  UAP d 301      69.951  13.750 100.327  0.00  0.00     0.127 C 
ATOM     61  O3  UAP d 301      71.198  12.702 103.430  0.00  0.00    -0.393 OA
ATOM     62  O2  UAP d 301      70.210  10.439 101.006  0.00  0.00    -0.244 OA
ATOM     63  O5  UAP d 301      70.881  12.980  99.586  0.00  0.00    -0.343 OA
ATOM     64  C6  UAP d 301      69.091  14.786  99.612  0.00  0.00     0.203 C 
ATOM     65  O62 UAP d 301      69.278  14.903  98.382  0.00  0.00    -0.646 OA
ATOM     66  O3S UAP d 301      71.328   8.174 100.776  0.00  0.00    -0.572 OA
ATOM     67  O2S UAP d 301      71.152   9.032 102.995  0.00  0.00    -0.572 OA
ATOM     68  C3  UAP d 301      70.303  12.307 102.437  0.00  0.00     0.069 C 
ATOM     69  C4  UAP d 301      69.623  13.554 101.808  0.00  0.00    -0.005 C 
ATOM     70  H   UAP d 301      71.917  11.060 102.014  0.00  0.00     0.097 H 
ATOM     71  H   UAP d 301      72.023  11.351  99.522  0.00  0.00     0.133 H 
ATOM     72  H   UAP d 301      70.998  13.674 100.532  0.00  0.00     0.100 H 
ATOM     73  H   UAP d 301      71.617  11.918 103.817  0.00  0.00     0.210 HD
ATOM     74  H   UAP d 301      69.490  11.724 102.819  0.00  0.00     0.087 H 
ATOM     75  H   UAP d 301      68.562  13.448 101.908  0.00  0.00     0.041 H 
ATOM     76  H   UAP d 301      69.997  14.411 102.328  0.00  0.00     0.041 H 
ATOM     77  O5  IDS d 305      83.147  22.325 105.694  0.00  0.00    -0.340 OA
ATOM     78  O62 IDS d 305      80.568  23.044 104.971  0.00  0.00    -0.646 OA
ATOM     79  C1  IDS d 305      84.475  22.017 106.120  0.00  0.00     0.161 C 
ATOM     80  O3  IDS d 305      83.449  21.394 109.329  0.00  0.00    -0.390 OA
ATOM     81  C6  IDS d 305      80.745  22.868 106.199  0.00  0.00     0.206 C 
ATOM     82  C2  IDS d 305      84.515  20.966 107.262  0.00  0.00     0.134 C 
ATOM     83  C5  IDS d 305      82.086  22.262 106.614  0.00  0.00     0.152 C 
ATOM     84  C3  IDS d 305      83.291  20.697 108.157  0.00  0.00     0.094 C 
ATOM     85  S   IDS d 305      84.930  18.749 105.688  0.00  0.00     0.252 S 
ATOM     86  C4  IDS d 305      81.937  21.039 107.506  0.00  0.00     0.103 C 
ATOM     87  O3S IDS d 305      85.947  17.764 105.646  0.00  0.00    -0.572 OA
ATOM     88  O1S IDS d 305      84.930  19.498 104.482  0.00  0.00    -0.572 OA
ATOM     89  O2  IDS d 305      85.332  19.825 107.037  0.00  0.00    -0.244 OA
ATOM     90  O61 IDS d 305      79.827  22.930 107.034  0.00  0.00    -0.646 OA
ATOM     91  O2S IDS d 305      83.659  18.165 105.915  0.00  0.00    -0.572 OA
ATOM     92  H   IDS d 305      84.916  21.605 105.237  0.00  0.00     0.133 H 
ATOM     93  H   IDS d 305      84.305  21.169 109.726  0.00  0.00     0.210 HD
ATOM     94  H   IDS d 305      85.043  21.611 107.933  0.00  0.00     0.097 H 
ATOM     95  H   IDS d 305      82.520  22.977 107.282  0.00  0.00     0.104 H 
ATOM     96  H   IDS d 305      83.255  19.642 108.332  0.00  0.00     0.091 H 
ATOM     97  H   IDS d 305      81.232  21.227 108.289  0.00  0.00     0.092 H 
ATOM     98  O6  SGN d 304      76.830  19.950 104.823  0.00  0.00    -0.254 OA
ATOM     99  S2  SGN d 304      75.279  20.541 104.275  0.00  0.00     0.251 S 
ATOM    100  O5S SGN d 304      74.273  19.616 104.726  0.00  0.00    -0.572 OA
ATOM    101  N   SGN d 304      81.505  17.300 107.150  0.00  0.00    -0.210 NA
ATOM    102  O3S SGN d 304      80.789  15.874 109.205  0.00  0.00    -0.296 OA
ATOM    103  C6  SGN d 304      78.002  20.599 104.337  0.00  0.00     0.067 C 
ATOM    104  O3  SGN d 304      80.321  16.278 104.828  0.00  0.00    -0.391 OA
ATOM    105  C5  SGN d 304      79.183  19.842 104.890  0.00  0.00     0.091 C 
ATOM    106  O2S SGN d 304      83.022  16.544 109.068  0.00  0.00    -0.296 OA
ATOM    107  O1  SGN d 304      81.485  19.952 106.689  0.00  0.00    -0.348 OA
ATOM    108  O4S SGN d 304      75.049  21.838 104.836  0.00  0.00    -0.572 OA
ATOM    109  C1  SGN d 304      80.238  19.342 107.032  0.00  0.00     0.150 C 
ATOM    110  C3  SGN d 304      80.330  17.659 105.132  0.00  0.00     0.083 C 
ATOM    111  C2  SGN d 304      80.265  17.841 106.652  0.00  0.00     0.081 C 
ATOM    112  S1  SGN d 304      81.671  16.944 108.864  0.00  0.00     0.156 S 
ATOM    113  O6S SGN d 304      75.298  20.596 102.831  0.00  0.00    -0.572 OA
ATOM    114  O1S SGN d 304      81.363  18.100 109.656  0.00  0.00    -0.296 OA
ATOM    115  O5  SGN d 304      79.143  19.967 106.336  0.00  0.00    -0.349 OA
ATOM    116  C4  SGN d 304      79.117  18.347 104.516  0.00  0.00     0.095 C 
ATOM    117  O4  SGN d 304      79.188  18.188 103.091  0.00  0.00    -0.348 OA
ATOM    118  H   SGN d 304      82.237  17.971 106.915  0.00  0.00     0.140 HD
ATOM    119  H   SGN d 304      81.002  15.096 108.668  0.00  0.00     0.231 HD
ATOM    120  H   SGN d 304      78.026  21.615 104.672  0.00  0.00     0.080 H 
ATOM    121  H   SGN d 304      78.019  20.607 103.267  0.00  0.00     0.080 H 
ATOM    122  H   SGN d 304      81.098  15.855 105.226  0.00  0.00     0.210 HD
ATOM    123  H   SGN d 304      80.086  20.245 104.482  0.00  0.00     0.090 H 
ATOM    124  H   SGN d 304      83.213  15.763 108.527  0.00  0.00     0.231 HD
ATOM    125  H   SGN d 304      80.097  19.459 108.086  0.00  0.00     0.131 H 
ATOM    126  H   SGN d 304      81.225  18.091 104.737  0.00  0.00     0.089 H 
ATOM    127  H   SGN d 304      79.390  17.372 107.050  0.00  0.00     0.076 H 
ATOM    128  H   SGN d 304      80.441  18.359 109.505  0.00  0.00     0.231 HD
ATOM    129  H   SGN d 304      78.200  17.926 104.872  0.00  0.00     0.091 H 
ATOM    130  O5S SGN d 302      77.146   7.876 101.102  0.00  0.00    -0.572 OA
ATOM    131  C4  SGN d 302      74.005  12.868 100.003  0.00  0.00     0.095 C 
ATOM    132  O1S SGN d 302      74.439  16.825  96.240  0.00  0.00    -0.296 OA
ATOM    133  O3  SGN d 302      73.016  14.664  98.765  0.00  0.00    -0.391 OA
ATOM    134  O2S SGN d 302      75.910  15.003  95.921  0.00  0.00    -0.296 OA
ATOM    135  C1  SGN d 302      76.630  13.999  99.538  0.00  0.00     0.150 C 
ATOM    136  C5  SGN d 302      75.214  12.491 100.848  0.00  0.00     0.091 C 
ATOM    137  O3S SGN d 302      76.783  17.115  96.451  0.00  0.00    -0.296 OA
ATOM    138  O5  SGN d 302      76.418  12.657 100.054  0.00  0.00    -0.349 OA
ATOM    139  C6  SGN d 302      75.070  11.053 101.326  0.00  0.00     0.067 C 
ATOM    140  S1  SGN d 302      75.677  16.212  96.651  0.00  0.00     0.156 S 
ATOM    141  O4S SGN d 302      77.735   9.493 102.721  0.00  0.00    -0.572 OA
ATOM    142  O6S SGN d 302      75.573   8.527 102.718  0.00  0.00    -0.572 OA
ATOM    143  O4  SGN d 302      72.858  12.742 100.792  0.00  0.00    -0.348 OA
ATOM    144  N   SGN d 302      75.564  15.781  98.362  0.00  0.00    -0.210 NA
ATOM    145  C3  SGN d 302      74.140  14.308  99.550  0.00  0.00     0.083 C 
ATOM    146  C2  SGN d 302      75.404  14.389  98.708  0.00  0.00     0.081 C 
ATOM    147  S2  SGN d 302      76.676   8.973 101.903  0.00  0.00     0.251 S 
ATOM    148  O6  SGN d 302      76.105  10.237 100.826  0.00  0.00    -0.254 OA
ATOM    149  O1  SGN d 302      76.750  14.967 100.580  0.00  0.00    -0.348 OA
ATOM    150  H   SGN d 302      73.939  12.230  99.147  0.00  0.00     0.091 H 
ATOM    151  H   SGN d 302      74.492  17.065  95.302  0.00  0.00     0.231 HD
ATOM    152  H   SGN d 302      72.213  14.611  99.307  0.00  0.00     0.210 HD
ATOM    153  H   SGN d 302      75.977  15.205  94.974  0.00  0.00     0.231 HD
ATOM    154  H   SGN d 302      77.535  13.988  98.968  0.00  0.00     0.131 H 
ATOM    155  H   SGN d 302      75.278  13.125 101.706  0.00  0.00     0.090 H 
ATOM    156  H   SGN d 302      76.843  17.350  95.512  0.00  0.00     0.231 HD
ATOM    157  H   SGN d 302      74.130  10.667 100.991  0.00  0.00     0.080 H 
ATOM    158  H   SGN d 302      75.124  11.048 102.395  0.00  0.00     0.080 H 
ATOM    159  H   SGN d 302      74.764  16.282  98.748  0.00  0.00     0.140 HD
ATOM    160  H   SGN d 302      74.194  14.974 100.385  0.00  0.00     0.089 H 
ATOM    161  H   SGN d 302      75.323  13.740  97.861  0.00  0.00     0.076 H 
ENDROOT
TORSDOF 50
ENDMDL
MODEL 12
REMARK VINA RESULT:     -11.3      5.301      7.915
REMARK  0 active torsions:
REMARK  status: ('A' for Active; 'I' for Inactive)
REMARK       I    between atoms: S_1  and  O2_2 
REMARK       I    between atoms: O2_2  and  C2_99 
REMARK       I    between atoms: C3_3  and  O3_50 
REMARK       I    between atoms: C2_5  and  O2_57 
REMARK       I    between atoms: O1S_6  and  S1_33 
REMARK       I    between atoms: O3_7  and  C3_52 
REMARK       I    between atoms: O6_9  and  C6_34 
REMARK       I    between atoms: O6_9  and  S2_17 
REMARK       I    between atoms: C2_13  and  N_73 
REMARK       I    between atoms: S_16  and  O2_57 
REMARK       I    between atoms: C1_20  and  O4_43 
REMARK       I    between atoms: C6_21  and  C5_67 
REMARK       I    between atoms: C6_21  and  O6_75 
REMARK       I    between atoms: N_22  and  C2_66 
REMARK       I    between atoms: N_22  and  S1_69 
REMARK       I    between atoms: S2_23  and  O6_75 
REMARK       I    between atoms: C1_24  and  O4_78 
REMARK       I    between atoms: C4_25  and  O4_78 
REMARK       I    between atoms: O3_26  and  C3_81 
REMARK       I    between atoms: O1S_27  and  S1_60 
REMARK       I    between atoms: O3S_28  and  S1_69 
REMARK       I    between atoms: O3_29  and  C3_87 
REMARK       I    between atoms: C6_30  and  C5_80 
REMARK       I    between atoms: O2S_32  and  S1_60 
REMARK       I    between atoms: S1_33  and  N_73 
REMARK       I    between atoms: S1_33  and  O2S_94 
REMARK       I    between atoms: S1_33  and  O3S_35 
REMARK       I    between atoms: C6_34  and  C5_38 
REMARK       I    between atoms: C2_36  and  O2_93 
REMARK       I    between atoms: O3_37  and  C3_65 
REMARK       I    between atoms: C1_40  and  O1_105 
REMARK       I    between atoms: O2S_41  and  S1_69 
REMARK       I    between atoms: C5_42  and  C6_54 
REMARK       I    between atoms: O4_43  and  C4_92 
REMARK       I    between atoms: O1_44  and  C1_62 
REMARK       I    between atoms: O1_44  and  C4_83 
REMARK       I    between atoms: C1_45  and  O4_102 
REMARK       I    between atoms: C4_46  and  O1_105 
REMARK       I    between atoms: O3S_47  and  S1_60 
REMARK       I    between atoms: C5_53  and  C6_61 
REMARK       I    between atoms: C6_54  and  O6_98 
REMARK       I    between atoms: O3_56  and  C3_84 
REMARK       I    between atoms: C5_59  and  C6_63 
REMARK       I    between atoms: S1_60  and  N_86 
REMARK       I    between atoms: S1_69  and  O1S_91 
REMARK       I    between atoms: O1_70  and  C1_96 
REMARK       I    between atoms: S_82  and  O2_93 
REMARK       I    between atoms: N_86  and  C2_90 
REMARK       I    between atoms: S2_95  and  O6_98 
REMARK       I    between atoms: C4_100  and  O4_102 
ROOT
ATOM      1  S   IDS d 303      83.305  18.685 102.983  0.00  0.00     0.252 S 
ATOM      2  O2  IDS d 303      84.309  18.702 101.546  0.00  0.00    -0.244 OA
ATOM      3  O61 IDS d 303      88.802  19.929  98.235  0.00  0.00    -0.646 OA
ATOM      4  O3  IDS d 303      84.218  20.840  98.704  0.00  0.00    -0.390 OA
ATOM      5  O3S IDS d 303      82.011  19.187 102.590  0.00  0.00    -0.572 OA
ATOM      6  C1  IDS d 303      85.574  20.738 101.528  0.00  0.00     0.161 C 
ATOM      7  C4  IDS d 303      85.865  19.089  99.002  0.00  0.00     0.103 C 
ATOM      8  O2S IDS d 303      83.233  17.335 103.470  0.00  0.00    -0.572 OA
ATOM      9  C3  IDS d 303      84.496  19.684  99.403  0.00  0.00     0.094 C 
ATOM     10  C5  IDS d 303      86.963  19.876  99.712  0.00  0.00     0.152 C 
ATOM     11  C6  IDS d 303      88.335  19.452  99.272  0.00  0.00     0.206 C 
ATOM     12  O62 IDS d 303      88.999  18.802 100.102  0.00  0.00    -0.646 OA
ATOM     13  O5  IDS d 303      86.817  20.217 101.079  0.00  0.00    -0.340 OA
ATOM     14  C2  IDS d 303      84.404  19.939 100.918  0.00  0.00     0.134 C 
ATOM     15  O1S IDS d 303      83.923  19.532 103.950  0.00  0.00    -0.572 OA
ATOM     16  H   IDS d 303      84.280  20.666  97.752  0.00  0.00     0.210 HD
ATOM     17  H   IDS d 303      85.590  20.634 102.593  0.00  0.00     0.133 H 
ATOM     18  H   IDS d 303      85.954  19.127  97.936  0.00  0.00     0.092 H 
ATOM     19  H   IDS d 303      83.758  18.953  99.146  0.00  0.00     0.091 H 
ATOM     20  H   IDS d 303      86.800  20.868  99.345  0.00  0.00     0.104 H 
ATOM     21  H   IDS d 303      83.543  20.555 101.075  0.00  0.00     0.097 H 
ATOM     22  C3  SGN d 306      81.836  30.954 104.837  0.00  0.00     0.083 C 
ATOM     23  O1S SGN d 306      81.849  30.176 108.436  0.00  0.00    -0.296 OA
ATOM     24  O4S SGN d 306      77.140  27.896 100.161  0.00  0.00    -0.572 OA
ATOM     25  O5S SGN d 306      79.269  26.869 100.225  0.00  0.00    -0.572 OA
ATOM     26  C2  SGN d 306      80.577  30.826 105.681  0.00  0.00     0.081 C 
ATOM     27  O5  SGN d 306      79.287  30.401 103.673  0.00  0.00    -0.350 OA
ATOM     28  C6  SGN d 306      80.261  29.657 101.579  0.00  0.00     0.067 C 
ATOM     29  S2  SGN d 306      78.559  28.116 100.175  0.00  0.00     0.251 S 
ATOM     30  S1  SGN d 306      80.852  31.215 108.374  0.00  0.00     0.156 S 
ATOM     31  O3S SGN d 306      81.219  32.309 109.238  0.00  0.00    -0.296 OA
ATOM     32  O4  SGN d 306      82.896  30.151 102.819  0.00  0.00    -0.348 OA
ATOM     33  O3  SGN d 306      82.953  30.589 105.626  0.00  0.00    -0.391 OA
ATOM     34  O6S SGN d 306      78.971  28.866  99.015  0.00  0.00    -0.572 OA
ATOM     35  C5  SGN d 306      80.469  30.504 102.822  0.00  0.00     0.091 C 
ATOM     36  O1  SGN d 306      79.311  32.585 104.614  0.00  0.00    -0.369 OA
ATOM     37  N   SGN d 306      80.716  31.804 106.723  0.00  0.00    -0.210 NA
ATOM     38  O6  SGN d 306      78.995  29.035 101.606  0.00  0.00    -0.254 OA
ATOM     39  C4  SGN d 306      81.705  30.033 103.619  0.00  0.00     0.095 C 
ATOM     40  O2S SGN d 306      79.568  30.702 108.738  0.00  0.00    -0.296 OA
ATOM     41  C1  SGN d 306      79.312  31.188 104.886  0.00  0.00     0.147 C 
ATOM     42  H   SGN d 306      81.969  31.960 104.498  0.00  0.00     0.089 H 
ATOM     43  H   SGN d 306      81.592  29.445 107.852  0.00  0.00     0.231 HD
ATOM     44  H   SGN d 306      80.475  29.819 106.028  0.00  0.00     0.076 H 
ATOM     45  H   SGN d 306      81.021  28.906 101.534  0.00  0.00     0.080 H 
ATOM     46  H   SGN d 306      80.314  30.291 100.718  0.00  0.00     0.080 H 
ATOM     47  H   SGN d 306      82.090  32.647 108.980  0.00  0.00     0.231 HD
ATOM     48  H   SGN d 306      82.843  29.677 105.939  0.00  0.00     0.210 HD
ATOM     49  H   SGN d 306      80.628  31.517 102.518  0.00  0.00     0.090 H 
ATOM     50  H   SGN d 306      79.328  33.077 105.451  0.00  0.00     0.212 HD
ATOM     51  H   SGN d 306      79.897  32.412 106.681  0.00  0.00     0.140 HD
ATOM     52  H   SGN d 306      81.588  29.010 103.906  0.00  0.00     0.091 H 
ATOM     53  H   SGN d 306      79.334  29.968 108.149  0.00  0.00     0.231 HD
ATOM     54  H   SGN d 306      78.430  30.966 105.449  0.00  0.00     0.131 H 
ATOM     55  C2  UAP d 301      90.984  13.232  99.268  0.00  0.00     0.132 C 
ATOM     56  S   UAP d 301      92.431  12.156  97.364  0.00  0.00     0.252 S 
ATOM     57  O1S UAP d 301      93.455  11.190  97.450  0.00  0.00    -0.572 OA
ATOM     58  C1  UAP d 301      89.479  13.139  99.417  0.00  0.00     0.161 C 
ATOM     59  O61 UAP d 301      90.104  11.846 104.061  0.00  0.00    -0.646 OA
ATOM     60  C5  UAP d 301      89.872  12.508 101.759  0.00  0.00     0.127 C 
ATOM     61  O3  UAP d 301      91.950  15.017 100.469  0.00  0.00    -0.393 OA
ATOM     62  O2  UAP d 301      91.474  12.017  98.813  0.00  0.00    -0.244 OA
ATOM     63  O5  UAP d 301      89.096  12.410 100.578  0.00  0.00    -0.343 OA
ATOM     64  C6  UAP d 301      89.406  11.803 103.028  0.00  0.00     0.203 C 
ATOM     65  O62 UAP d 301      88.328  11.175 102.945  0.00  0.00    -0.646 OA
ATOM     66  O3S UAP d 301      91.539  11.878  96.280  0.00  0.00    -0.572 OA
ATOM     67  O2S UAP d 301      93.002  13.478  97.278  0.00  0.00    -0.572 OA
ATOM     68  C3  UAP d 301      91.821  13.630 100.493  0.00  0.00     0.069 C 
ATOM     69  C4  UAP d 301      91.246  13.174 101.863  0.00  0.00    -0.005 C 
ATOM     70  H   UAP d 301      91.097  14.047  98.585  0.00  0.00     0.097 H 
ATOM     71  H   UAP d 301      89.039  12.607  98.598  0.00  0.00     0.133 H 
ATOM     72  H   UAP d 301      89.496  13.333 101.193  0.00  0.00     0.100 H 
ATOM     73  H   UAP d 301      92.310  15.293  99.612  0.00  0.00     0.210 HD
ATOM     74  H   UAP d 301      92.761  13.124 100.417  0.00  0.00     0.087 H 
ATOM     75  H   UAP d 301      91.928  12.475 102.301  0.00  0.00     0.041 H 
ATOM     76  H   UAP d 301      91.123  14.053 102.460  0.00  0.00     0.041 H 
ATOM     77  O5  IDS d 305      83.719  27.897 103.089  0.00  0.00    -0.340 OA
ATOM     78  O62 IDS d 305      84.284  25.901 104.930  0.00  0.00    -0.646 OA
ATOM     79  C1  IDS d 305      83.446  28.981 102.199  0.00  0.00     0.161 C 
ATOM     80  O3  IDS d 305      86.663  30.141 102.406  0.00  0.00    -0.390 OA
ATOM     81  C6  IDS d 305      85.186  26.757 104.782  0.00  0.00     0.206 C 
ATOM     82  C2  IDS d 305      84.681  29.395 101.354  0.00  0.00     0.134 C 
ATOM     83  C5  IDS d 305      85.008  27.743 103.627  0.00  0.00     0.152 C 
ATOM     84  C3  IDS d 305      86.116  29.043 101.792  0.00  0.00     0.094 C 
ATOM     85  S   IDS d 305      84.083  27.922  99.110  0.00  0.00     0.252 S 
ATOM     86  C4  IDS d 305      86.219  27.808 102.707  0.00  0.00     0.103 C 
ATOM     87  O3S IDS d 305      83.872  28.263  97.751  0.00  0.00    -0.572 OA
ATOM     88  O1S IDS d 305      82.890  27.393  99.668  0.00  0.00    -0.572 OA
ATOM     89  O2  IDS d 305      84.495  29.428  99.945  0.00  0.00    -0.244 OA
ATOM     90  O61 IDS d 305      86.289  26.687 105.351  0.00  0.00    -0.646 OA
ATOM     91  O2S IDS d 305      85.152  27.001  99.247  0.00  0.00    -0.572 OA
ATOM     92  H   IDS d 305      82.692  28.576 101.558  0.00  0.00     0.133 H 
ATOM     93  H   IDS d 305      86.591  30.910 101.818  0.00  0.00     0.210 HD
ATOM     94  H   IDS d 305      84.670  30.407 101.704  0.00  0.00     0.097 H 
ATOM     95  H   IDS d 305      85.019  28.711 104.082  0.00  0.00     0.104 H 
ATOM     96  H   IDS d 305      86.658  28.779 100.908  0.00  0.00     0.091 H 
ATOM     97  H   IDS d 305      87.121  27.893 103.276  0.00  0.00     0.092 H 
ATOM     98  O6  SGN d 304      87.315  22.206 104.079  0.00  0.00    -0.254 OA
ATOM     99  S2  SGN d 304      87.510  20.986 105.315  0.00  0.00     0.251 S 
ATOM    100  O5S SGN d 304      88.733  20.277 105.043  0.00  0.00    -0.572 OA
ATOM    101  N   SGN d 304      87.562  26.031  99.652  0.00  0.00    -0.210 NA
ATOM    102  O3S SGN d 304      90.034  26.391  98.924  0.00  0.00    -0.296 OA
ATOM    103  C6  SGN d 304      86.078  22.913 104.027  0.00  0.00     0.067 C 
ATOM    104  O3  SGN d 304      86.810  23.377  99.176  0.00  0.00    -0.391 OA
ATOM    105  C5  SGN d 304      86.147  23.828 102.830  0.00  0.00     0.091 C 
ATOM    106  O2S SGN d 304      88.488  28.058  98.393  0.00  0.00    -0.296 OA
ATOM    107  O1  SGN d 304      86.241  26.606 101.926  0.00  0.00    -0.348 OA
ATOM    108  O4S SGN d 304      87.579  21.623 106.594  0.00  0.00    -0.572 OA
ATOM    109  C1  SGN d 304      87.395  25.768 102.037  0.00  0.00     0.150 C 
ATOM    110  C3  SGN d 304      86.525  24.041 100.392  0.00  0.00     0.083 C 
ATOM    111  C2  SGN d 304      87.647  25.039 100.695  0.00  0.00     0.081 C 
ATOM    112  S1  SGN d 304      88.907  27.133  99.390  0.00  0.00     0.156 S 
ATOM    113  O6S SGN d 304      86.382  20.084 105.245  0.00  0.00    -0.572 OA
ATOM    114  O1S SGN d 304      89.246  27.820 100.603  0.00  0.00    -0.296 OA
ATOM    115  O5  SGN d 304      87.221  24.777 103.067  0.00  0.00    -0.349 OA
ATOM    116  C4  SGN d 304      86.451  23.041 101.539  0.00  0.00     0.095 C 
ATOM    117  O4  SGN d 304      85.389  22.116 101.259  0.00  0.00    -0.348 OA
ATOM    118  H   SGN d 304      86.744  26.606  99.855  0.00  0.00     0.140 HD
ATOM    119  H   SGN d 304      89.800  25.929  98.103  0.00  0.00     0.231 HD
ATOM    120  H   SGN d 304      85.944  23.486 104.921  0.00  0.00     0.080 H 
ATOM    121  H   SGN d 304      85.253  22.236 103.946  0.00  0.00     0.080 H 
ATOM    122  H   SGN d 304      86.853  24.026  98.455  0.00  0.00     0.210 HD
ATOM    123  H   SGN d 304      85.205  24.319 102.704  0.00  0.00     0.090 H 
ATOM    124  H   SGN d 304      88.263  27.578  97.581  0.00  0.00     0.231 HD
ATOM    125  H   SGN d 304      88.228  26.392 102.288  0.00  0.00     0.131 H 
ATOM    126  H   SGN d 304      85.586  24.545 100.294  0.00  0.00     0.089 H 
ATOM    127  H   SGN d 304      88.591  24.539 100.750  0.00  0.00     0.076 H 
ATOM    128  H   SGN d 304      89.529  27.176 101.271  0.00  0.00     0.231 HD
ATOM    129  H   SGN d 304      87.368  22.501 101.653  0.00  0.00     0.091 H 
ATOM    130  O5S SGN d 302      88.786  15.981  93.179  0.00  0.00    -0.572 OA
ATOM    131  C4  SGN d 302      87.784  14.785  98.972  0.00  0.00     0.095 C 
ATOM    132  O1S SGN d 302      83.230  13.975 101.906  0.00  0.00    -0.296 OA
ATOM    133  O3  SGN d 302      86.708  13.908 100.923  0.00  0.00    -0.391 OA
ATOM    134  O2S SGN d 302      82.874  14.170  99.578  0.00  0.00    -0.296 OA
ATOM    135  C1  SGN d 302      85.609  16.664  98.623  0.00  0.00     0.150 C 
ATOM    136  C5  SGN d 302      87.919  16.034  98.113  0.00  0.00     0.091 C 
ATOM    137  O3S SGN d 302      82.028  15.817 101.017  0.00  0.00    -0.296 OA
ATOM    138  O5  SGN d 302      86.610  16.404  97.604  0.00  0.00    -0.349 OA
ATOM    139  C6  SGN d 302      88.891  15.764  96.973  0.00  0.00     0.067 C 
ATOM    140  S1  SGN d 302      83.106  14.886 100.795  0.00  0.00     0.156 S 
ATOM    141  O4S SGN d 302      89.102  17.972  94.412  0.00  0.00    -0.572 OA
ATOM    142  O6S SGN d 302      90.614  16.163  94.640  0.00  0.00    -0.572 OA
ATOM    143  O4  SGN d 302      89.043  14.466  99.487  0.00  0.00    -0.348 OA
ATOM    144  N   SGN d 302      84.626  15.770 100.605  0.00  0.00    -0.210 NA
ATOM    145  C3  SGN d 302      86.835  15.067 100.119  0.00  0.00     0.083 C 
ATOM    146  C2  SGN d 302      85.489  15.418  99.504  0.00  0.00     0.081 C 
ATOM    147  S2  SGN d 302      89.240  16.543  94.421  0.00  0.00     0.251 S 
ATOM    148  O6  SGN d 302      88.259  15.878  95.718  0.00  0.00    -0.254 OA
ATOM    149  O1  SGN d 302      85.978  17.744  99.481  0.00  0.00    -0.348 OA
ATOM    150  H   SGN d 302      87.405  13.974  98.387  0.00  0.00     0.091 H 
ATOM    151  H   SGN d 302      82.400  13.486 102.017  0.00  0.00     0.231 HD
ATOM    152  H   SGN d 302      87.569  13.689 101.313  0.00  0.00     0.210 HD
ATOM    153  H   SGN d 302      82.045  13.672  99.648  0.00  0.00     0.231 HD
ATOM    154  H   SGN d 302      84.695  16.914  98.125  0.00  0.00     0.131 H 
ATOM    155  H   SGN d 302      88.302  16.845  98.695  0.00  0.00     0.090 H 
ATOM    156  H   SGN d 302      81.196  15.331 101.121  0.00  0.00     0.231 HD
ATOM    157  H   SGN d 302      89.282  14.773  97.077  0.00  0.00     0.080 H 
ATOM    158  H   SGN d 302      89.676  16.490  97.022  0.00  0.00     0.080 H 
ATOM    159  H   SGN d 302      85.161  15.637 101.463  0.00  0.00     0.140 HD
ATOM    160  H   SGN d 302      87.194  15.866 100.733  0.00  0.00     0.089 H 
ATOM    161  H   SGN d 302      85.129  14.598  98.917  0.00  0.00     0.076 H 
ENDROOT
TORSDOF 50
ENDMDL
MODEL 13
REMARK VINA RESULT:     -11.1      2.498      3.635
REMARK  0 active torsions:
REMARK  status: ('A' for Active; 'I' for Inactive)
REMARK       I    between atoms: S_1  and  O2_2 
REMARK       I    between atoms: O2_2  and  C2_99 
REMARK       I    between atoms: C3_3  and  O3_50 
REMARK       I    between atoms: C2_5  and  O2_57 
REMARK       I    between atoms: O1S_6  and  S1_33 
REMARK       I    between atoms: O3_7  and  C3_52 
REMARK       I    between atoms: O6_9  and  C6_34 
REMARK       I    between atoms: O6_9  and  S2_17 
REMARK       I    between atoms: C2_13  and  N_73 
REMARK       I    between atoms: S_16  and  O2_57 
REMARK       I    between atoms: C1_20  and  O4_43 
REMARK       I    between atoms: C6_21  and  C5_67 
REMARK       I    between atoms: C6_21  and  O6_75 
REMARK       I    between atoms: N_22  and  C2_66 
REMARK       I    between atoms: N_22  and  S1_69 
REMARK       I    between atoms: S2_23  and  O6_75 
REMARK       I    between atoms: C1_24  and  O4_78 
REMARK       I    between atoms: C4_25  and  O4_78 
REMARK       I    between atoms: O3_26  and  C3_81 
REMARK       I    between atoms: O1S_27  and  S1_60 
REMARK       I    between atoms: O3S_28  and  S1_69 
REMARK       I    between atoms: O3_29  and  C3_87 
REMARK       I    between atoms: C6_30  and  C5_80 
REMARK       I    between atoms: O2S_32  and  S1_60 
REMARK       I    between atoms: S1_33  and  N_73 
REMARK       I    between atoms: S1_33  and  O2S_94 
REMARK       I    between atoms: S1_33  and  O3S_35 
REMARK       I    between atoms: C6_34  and  C5_38 
REMARK       I    between atoms: C2_36  and  O2_93 
REMARK       I    between atoms: O3_37  and  C3_65 
REMARK       I    between atoms: C1_40  and  O1_105 
REMARK       I    between atoms: O2S_41  and  S1_69 
REMARK       I    between atoms: C5_42  and  C6_54 
REMARK       I    between atoms: O4_43  and  C4_92 
REMARK       I    between atoms: O1_44  and  C1_62 
REMARK       I    between atoms: O1_44  and  C4_83 
REMARK       I    between atoms: C1_45  and  O4_102 
REMARK       I    between atoms: C4_46  and  O1_105 
REMARK       I    between atoms: O3S_47  and  S1_60 
REMARK       I    between atoms: C5_53  and  C6_61 
REMARK       I    between atoms: C6_54  and  O6_98 
REMARK       I    between atoms: O3_56  and  C3_84 
REMARK       I    between atoms: C5_59  and  C6_63 
REMARK       I    between atoms: S1_60  and  N_86 
REMARK       I    between atoms: S1_69  and  O1S_91 
REMARK       I    between atoms: O1_70  and  C1_96 
REMARK       I    between atoms: S_82  and  O2_93 
REMARK       I    between atoms: N_86  and  C2_90 
REMARK       I    between atoms: S2_95  and  O6_98 
REMARK       I    between atoms: C4_100  and  O4_102 
ROOT
ATOM      1  S   IDS d 303      79.138  19.911 106.124  0.00  0.00     0.252 S 
ATOM      2  O2  IDS d 303      79.316  19.395 104.458  0.00  0.00    -0.244 OA
ATOM      3  O61 IDS d 303      81.973  18.086  99.572  0.00  0.00    -0.646 OA
ATOM      4  O3  IDS d 303      79.048  21.253 101.436  0.00  0.00    -0.390 OA
ATOM      5  O3S IDS d 303      78.206  21.011 106.120  0.00  0.00    -0.572 OA
ATOM      6  C1  IDS d 303      81.245  20.475 103.531  0.00  0.00     0.161 C 
ATOM      7  C4  IDS d 303      79.627  18.902 101.508  0.00  0.00     0.103 C 
ATOM      8  O2S IDS d 303      78.654  18.798 106.894  0.00  0.00    -0.572 OA
ATOM      9  C3  IDS d 303      79.016  20.125 102.229  0.00  0.00     0.094 C 
ATOM     10  C5  IDS d 303      81.148  19.006 101.582  0.00  0.00     0.152 C 
ATOM     11  C6  IDS d 303      81.826  17.927 100.786  0.00  0.00     0.206 C 
ATOM     12  O62 IDS d 303      82.385  17.031 101.446  0.00  0.00    -0.646 OA
ATOM     13  O5  IDS d 303      81.773  19.380 102.796  0.00  0.00    -0.340 OA
ATOM     14  C2  IDS d 303      79.705  20.398 103.577  0.00  0.00     0.134 C 
ATOM     15  O1S IDS d 303      80.424  20.318 106.588  0.00  0.00    -0.572 OA
ATOM     16  H   IDS d 303      78.611  21.067 100.590  0.00  0.00     0.210 HD
ATOM     17  H   IDS d 303      81.660  20.383 104.514  0.00  0.00     0.133 H 
ATOM     18  H   IDS d 303      79.263  18.883 100.502  0.00  0.00     0.092 H 
ATOM     19  H   IDS d 303      77.992  19.883 102.425  0.00  0.00     0.091 H 
ATOM     20  H   IDS d 303      81.333  19.935 101.085  0.00  0.00     0.104 H 
ATOM     21  H   IDS d 303      79.394  21.374 103.890  0.00  0.00     0.097 H 
ATOM     22  C3  SGN d 306      84.550  31.160 105.578  0.00  0.00     0.083 C 
ATOM     23  O1S SGN d 306      85.716  30.508 109.010  0.00  0.00    -0.296 OA
ATOM     24  O4S SGN d 306      77.496  30.970 103.711  0.00  0.00    -0.572 OA
ATOM     25  O5S SGN d 306      78.690  28.985 103.237  0.00  0.00    -0.572 OA
ATOM     26  C2  SGN d 306      83.871  31.711 106.823  0.00  0.00     0.081 C 
ATOM     27  O5  SGN d 306      81.822  32.009 105.561  0.00  0.00    -0.350 OA
ATOM     28  C6  SGN d 306      81.341  30.856 103.482  0.00  0.00     0.067 C 
ATOM     29  S2  SGN d 306      78.705  30.419 103.166  0.00  0.00     0.251 S 
ATOM     30  S1  SGN d 306      85.406  31.914 109.077  0.00  0.00     0.156 S 
ATOM     31  O3S SGN d 306      86.570  32.662 109.483  0.00  0.00    -0.296 OA
ATOM     32  O4  SGN d 306      84.140  29.912 103.549  0.00  0.00    -0.348 OA
ATOM     33  O3  SGN d 306      85.577  30.271 105.975  0.00  0.00    -0.391 OA
ATOM     34  O6S SGN d 306      78.886  30.838 101.799  0.00  0.00    -0.572 OA
ATOM     35  C5  SGN d 306      82.426  31.477 104.344  0.00  0.00     0.091 C 
ATOM     36  O1  SGN d 306      83.265  33.867 105.916  0.00  0.00    -0.369 OA
ATOM     37  N   SGN d 306      84.879  32.480 107.498  0.00  0.00    -0.210 NA
ATOM     38  O6  SGN d 306      80.080  30.984 104.101  0.00  0.00    -0.254 OA
ATOM     39  C4  SGN d 306      83.500  30.436 104.728  0.00  0.00     0.095 C 
ATOM     40  O2S SGN d 306      84.324  32.147 109.983  0.00  0.00    -0.296 OA
ATOM     41  C1  SGN d 306      82.725  32.674 106.475  0.00  0.00     0.147 C 
ATOM     42  H   SGN d 306      84.982  31.948 104.997  0.00  0.00     0.089 H 
ATOM     43  H   SGN d 306      84.927  30.015 108.736  0.00  0.00     0.231 HD
ATOM     44  H   SGN d 306      83.466  30.906 107.401  0.00  0.00     0.076 H 
ATOM     45  H   SGN d 306      81.558  29.818 103.338  0.00  0.00     0.080 H 
ATOM     46  H   SGN d 306      81.317  31.364 102.541  0.00  0.00     0.080 H 
ATOM     47  H   SGN d 306      87.295  32.495 108.861  0.00  0.00     0.231 HD
ATOM     48  H   SGN d 306      85.196  29.551 106.502  0.00  0.00     0.210 HD
ATOM     49  H   SGN d 306      82.897  32.257 103.784  0.00  0.00     0.090 H 
ATOM     50  H   SGN d 306      83.863  34.282 106.558  0.00  0.00     0.212 HD
ATOM     51  H   SGN d 306      84.513  33.424 107.618  0.00  0.00     0.140 HD
ATOM     52  H   SGN d 306      83.050  29.624 105.260  0.00  0.00     0.091 H 
ATOM     53  H   SGN d 306      83.549  31.638 109.698  0.00  0.00     0.231 HD
ATOM     54  H   SGN d 306      82.175  32.947 107.352  0.00  0.00     0.131 H 
ATOM     55  C2  UAP d 301      80.953  11.238 101.227  0.00  0.00     0.132 C 
ATOM     56  S   UAP d 301      80.763   9.556  99.225  0.00  0.00     0.252 S 
ATOM     57  O1S UAP d 301      81.140   8.197  99.152  0.00  0.00    -0.572 OA
ATOM     58  C1  UAP d 301      79.807  11.942 101.923  0.00  0.00     0.161 C 
ATOM     59  O61 UAP d 301      81.648  10.538 106.197  0.00  0.00    -0.646 OA
ATOM     60  C5  UAP d 301      80.806  11.211 104.046  0.00  0.00     0.127 C 
ATOM     61  O3  UAP d 301      83.049  12.265 101.569  0.00  0.00    -0.393 OA
ATOM     62  O2  UAP d 301      80.570   9.943 100.912  0.00  0.00    -0.244 OA
ATOM     63  O5  UAP d 301      79.659  11.525 103.276  0.00  0.00    -0.343 OA
ATOM     64  C6  UAP d 301      80.650  10.859 105.521  0.00  0.00     0.203 C 
ATOM     65  O62 UAP d 301      79.485  10.883 105.973  0.00  0.00    -0.646 OA
ATOM     66  O3S UAP d 301      79.484   9.777  98.625  0.00  0.00    -0.572 OA
ATOM     67  O2S UAP d 301      81.790  10.386  98.645  0.00  0.00    -0.572 OA
ATOM     68  C3  UAP d 301      82.307  11.148 101.948  0.00  0.00     0.069 C 
ATOM     69  C4  UAP d 301      82.227  11.066 103.498  0.00  0.00    -0.005 C 
ATOM     70  H   UAP d 301      81.135  11.871 100.385  0.00  0.00     0.097 H 
ATOM     71  H   UAP d 301      78.870  11.713 101.458  0.00  0.00     0.133 H 
ATOM     72  H   UAP d 301      80.663  12.109 103.483  0.00  0.00     0.100 H 
ATOM     73  H   UAP d 301      83.095  12.309 100.601  0.00  0.00     0.210 HD
ATOM     74  H   UAP d 301      82.765  10.226 101.655  0.00  0.00     0.087 H 
ATOM     75  H   UAP d 301      82.612  10.116 103.807  0.00  0.00     0.041 H 
ATOM     76  H   UAP d 301      82.797  11.883 103.886  0.00  0.00     0.041 H 
ATOM     77  O5  IDS d 305      83.833  27.561 104.005  0.00  0.00    -0.340 OA
ATOM     78  O62 IDS d 305      84.111  25.572 105.918  0.00  0.00    -0.646 OA
ATOM     79  C1  IDS d 305      83.754  28.623 103.053  0.00  0.00     0.161 C 
ATOM     80  O3  IDS d 305      86.879  27.940 101.826  0.00  0.00    -0.390 OA
ATOM     81  C6  IDS d 305      85.150  25.832 105.268  0.00  0.00     0.206 C 
ATOM     82  C2  IDS d 305      84.548  28.329 101.752  0.00  0.00     0.134 C 
ATOM     83  C5  IDS d 305      84.986  26.760 104.064  0.00  0.00     0.152 C 
ATOM     84  C3  IDS d 305      85.679  27.284 101.713  0.00  0.00     0.094 C 
ATOM     85  S   IDS d 305      82.443  27.371 100.263  0.00  0.00     0.252 S 
ATOM     86  C4  IDS d 305      85.566  26.181 102.782  0.00  0.00     0.103 C 
ATOM     87  O3S IDS d 305      81.865  27.765  99.031  0.00  0.00    -0.572 OA
ATOM     88  O1S IDS d 305      81.506  27.543 101.316  0.00  0.00    -0.572 OA
ATOM     89  O2  IDS d 305      83.824  28.447 100.534  0.00  0.00    -0.244 OA
ATOM     90  O61 IDS d 305      86.212  25.202 105.404  0.00  0.00    -0.646 OA
ATOM     91  O2S IDS d 305      82.897  26.029 100.211  0.00  0.00    -0.572 OA
ATOM     92  H   IDS d 305      82.708  28.667 102.834  0.00  0.00     0.133 H 
ATOM     93  H   IDS d 305      86.936  28.631 101.148  0.00  0.00     0.210 HD
ATOM     94  H   IDS d 305      85.162  29.201 101.846  0.00  0.00     0.097 H 
ATOM     95  H   IDS d 305      85.643  27.584 104.256  0.00  0.00     0.104 H 
ATOM     96  H   IDS d 305      85.601  26.771 100.777  0.00  0.00     0.091 H 
ATOM     97  H   IDS d 305      86.545  25.786 102.955  0.00  0.00     0.092 H 
ATOM     98  O6  SGN d 304      84.363  20.835 104.889  0.00  0.00    -0.254 OA
ATOM     99  S2  SGN d 304      84.463  19.698 106.213  0.00  0.00     0.251 S 
ATOM    100  O5S SGN d 304      84.963  18.455 105.687  0.00  0.00    -0.572 OA
ATOM    101  N   SGN d 304      84.479  23.948  99.931  0.00  0.00    -0.210 NA
ATOM    102  O3S SGN d 304      86.255  22.964  98.304  0.00  0.00    -0.296 OA
ATOM    103  C6  SGN d 304      83.715  22.082 105.127  0.00  0.00     0.067 C 
ATOM    104  O3  SGN d 304      82.447  22.072 100.365  0.00  0.00    -0.391 OA
ATOM    105  C5  SGN d 304      83.692  22.821 103.813  0.00  0.00     0.091 C 
ATOM    106  O2S SGN d 304      85.616  25.190  98.003  0.00  0.00    -0.296 OA
ATOM    107  O1  SGN d 304      84.688  25.139 102.336  0.00  0.00    -0.348 OA
ATOM    108  O4S SGN d 304      85.357  20.214 107.204  0.00  0.00    -0.572 OA
ATOM    109  C1  SGN d 304      85.235  23.823 102.212  0.00  0.00     0.150 C 
ATOM    110  C3  SGN d 304      83.054  22.793 101.420  0.00  0.00     0.083 C 
ATOM    111  C2  SGN d 304      84.520  23.063 101.068  0.00  0.00     0.081 C 
ATOM    112  S1  SGN d 304      85.928  24.187  98.964  0.00  0.00     0.156 S 
ATOM    113  O6S SGN d 304      83.136  19.515 106.756  0.00  0.00    -0.572 OA
ATOM    114  O1S SGN d 304      87.027  24.604  99.788  0.00  0.00    -0.296 OA
ATOM    115  O5  SGN d 304      85.070  23.073 103.429  0.00  0.00    -0.349 OA
ATOM    116  C4  SGN d 304      83.011  21.984 102.710  0.00  0.00     0.095 C 
ATOM    117  O4  SGN d 304      81.636  21.746 103.045  0.00  0.00    -0.348 OA
ATOM    118  H   SGN d 304      84.201  24.866 100.279  0.00  0.00     0.140 HD
ATOM    119  H   SGN d 304      85.510  22.688  97.748  0.00  0.00     0.231 HD
ATOM    120  H   SGN d 304      84.259  22.646 105.857  0.00  0.00     0.080 H 
ATOM    121  H   SGN d 304      82.724  21.934 105.501  0.00  0.00     0.080 H 
ATOM    122  H   SGN d 304      82.482  22.599  99.551  0.00  0.00     0.210 HD
ATOM    123  H   SGN d 304      83.139  23.730 103.926  0.00  0.00     0.090 H 
ATOM    124  H   SGN d 304      84.873  24.893  97.456  0.00  0.00     0.231 HD
ATOM    125  H   SGN d 304      86.279  23.924 102.000  0.00  0.00     0.131 H 
ATOM    126  H   SGN d 304      82.522  23.712 101.555  0.00  0.00     0.089 H 
ATOM    127  H   SGN d 304      85.040  22.145 100.891  0.00  0.00     0.076 H 
ATOM    128  H   SGN d 304      87.226  23.910 100.436  0.00  0.00     0.231 HD
ATOM    129  H   SGN d 304      83.516  21.046 102.606  0.00  0.00     0.091 H 
ATOM    130  O5S SGN d 302      77.967  14.697  95.881  0.00  0.00    -0.572 OA
ATOM    131  C4  SGN d 302      79.079  14.229 101.758  0.00  0.00     0.095 C 
ATOM    132  O1S SGN d 302      76.411  15.924 106.232  0.00  0.00    -0.296 OA
ATOM    133  O3  SGN d 302      78.659  14.050 104.109  0.00  0.00    -0.391 OA
ATOM    134  O2S SGN d 302      75.242  16.263 104.206  0.00  0.00    -0.296 OA
ATOM    135  C1  SGN d 302      78.129  16.963 101.801  0.00  0.00     0.150 C 
ATOM    136  C5  SGN d 302      79.407  15.220 100.651  0.00  0.00     0.091 C 
ATOM    137  O3S SGN d 302      75.970  18.117 105.444  0.00  0.00    -0.296 OA
ATOM    138  O5  SGN d 302      78.351  16.214 100.577  0.00  0.00    -0.349 OA
ATOM    139  C6  SGN d 302      79.551  14.477  99.330  0.00  0.00     0.067 C 
ATOM    140  S1  SGN d 302      76.273  16.760 105.065  0.00  0.00     0.156 S 
ATOM    141  O4S SGN d 302      79.669  16.239  96.439  0.00  0.00    -0.572 OA
ATOM    142  O6S SGN d 302      80.086  13.908  96.509  0.00  0.00    -0.572 OA
ATOM    143  O4  SGN d 302      80.122  13.303 101.845  0.00  0.00    -0.348 OA
ATOM    144  N   SGN d 302      77.785  16.722 104.150  0.00  0.00    -0.210 NA
ATOM    145  C3  SGN d 302      78.961  14.969 103.075  0.00  0.00     0.083 C 
ATOM    146  C2  SGN d 302      77.823  15.966 102.921  0.00  0.00     0.081 C 
ATOM    147  S2  SGN d 302      79.108  14.947  96.719  0.00  0.00     0.251 S 
ATOM    148  O6  SGN d 302      78.584  14.897  98.394  0.00  0.00    -0.254 OA
ATOM    149  O1  SGN d 302      79.285  17.697 102.204  0.00  0.00    -0.348 OA
ATOM    150  H   SGN d 302      78.157  13.730 101.546  0.00  0.00     0.091 H 
ATOM    151  H   SGN d 302      75.585  15.939 106.740  0.00  0.00     0.231 HD
ATOM    152  H   SGN d 302      79.388  13.417 104.203  0.00  0.00     0.210 HD
ATOM    153  H   SGN d 302      74.395  16.270 104.679  0.00  0.00     0.231 HD
ATOM    154  H   SGN d 302      77.328  17.650 101.621  0.00  0.00     0.131 H 
ATOM    155  H   SGN d 302      80.331  15.716 100.860  0.00  0.00     0.090 H 
ATOM    156  H   SGN d 302      75.140  18.136 105.946  0.00  0.00     0.231 HD
ATOM    157  H   SGN d 302      79.432  13.428  99.506  0.00  0.00     0.080 H 
ATOM    158  H   SGN d 302      80.520  14.688  98.930  0.00  0.00     0.080 H 
ATOM    159  H   SGN d 302      78.501  16.334 104.765  0.00  0.00     0.140 HD
ATOM    160  H   SGN d 302      79.874  15.468 103.323  0.00  0.00     0.089 H 
ATOM    161  H   SGN d 302      76.911  15.451 102.703  0.00  0.00     0.076 H 
ENDROOT
TORSDOF 50
ENDMDL
MODEL 14
REMARK VINA RESULT:     -11.0      3.191      5.547
REMARK  0 active torsions:
REMARK  status: ('A' for Active; 'I' for Inactive)
REMARK       I    between atoms: S_1  and  O2_2 
REMARK       I    between atoms: O2_2  and  C2_99 
REMARK       I    between atoms: C3_3  and  O3_50 
REMARK       I    between atoms: C2_5  and  O2_57 
REMARK       I    between atoms: O1S_6  and  S1_33 
REMARK       I    between atoms: O3_7  and  C3_52 
REMARK       I    between atoms: O6_9  and  C6_34 
REMARK       I    between atoms: O6_9  and  S2_17 
REMARK       I    between atoms: C2_13  and  N_73 
REMARK       I    between atoms: S_16  and  O2_57 
REMARK       I    between atoms: C1_20  and  O4_43 
REMARK       I    between atoms: C6_21  and  C5_67 
REMARK       I    between atoms: C6_21  and  O6_75 
REMARK       I    between atoms: N_22  and  C2_66 
REMARK       I    between atoms: N_22  and  S1_69 
REMARK       I    between atoms: S2_23  and  O6_75 
REMARK       I    between atoms: C1_24  and  O4_78 
REMARK       I    between atoms: C4_25  and  O4_78 
REMARK       I    between atoms: O3_26  and  C3_81 
REMARK       I    between atoms: O1S_27  and  S1_60 
REMARK       I    between atoms: O3S_28  and  S1_69 
REMARK       I    between atoms: O3_29  and  C3_87 
REMARK       I    between atoms: C6_30  and  C5_80 
REMARK       I    between atoms: O2S_32  and  S1_60 
REMARK       I    between atoms: S1_33  and  N_73 
REMARK       I    between atoms: S1_33  and  O2S_94 
REMARK       I    between atoms: S1_33  and  O3S_35 
REMARK       I    between atoms: C6_34  and  C5_38 
REMARK       I    between atoms: C2_36  and  O2_93 
REMARK       I    between atoms: O3_37  and  C3_65 
REMARK       I    between atoms: C1_40  and  O1_105 
REMARK       I    between atoms: O2S_41  and  S1_69 
REMARK       I    between atoms: C5_42  and  C6_54 
REMARK       I    between atoms: O4_43  and  C4_92 
REMARK       I    between atoms: O1_44  and  C1_62 
REMARK       I    between atoms: O1_44  and  C4_83 
REMARK       I    between atoms: C1_45  and  O4_102 
REMARK       I    between atoms: C4_46  and  O1_105 
REMARK       I    between atoms: O3S_47  and  S1_60 
REMARK       I    between atoms: C5_53  and  C6_61 
REMARK       I    between atoms: C6_54  and  O6_98 
REMARK       I    between atoms: O3_56  and  C3_84 
REMARK       I    between atoms: C5_59  and  C6_63 
REMARK       I    between atoms: S1_60  and  N_86 
REMARK       I    between atoms: S1_69  and  O1S_91 
REMARK       I    between atoms: O1_70  and  C1_96 
REMARK       I    between atoms: S_82  and  O2_93 
REMARK       I    between atoms: N_86  and  C2_90 
REMARK       I    between atoms: S2_95  and  O6_98 
REMARK       I    between atoms: C4_100  and  O4_102 
ROOT
ATOM      1  S   IDS d 303      82.753  18.661 106.582  0.00  0.00     0.252 S 
ATOM      2  O2  IDS d 303      82.354  18.748 104.877  0.00  0.00    -0.244 OA
ATOM      3  O61 IDS d 303      83.206  19.348  99.259  0.00  0.00    -0.646 OA
ATOM      4  O3  IDS d 303      81.198  21.489 102.925  0.00  0.00    -0.390 OA
ATOM      5  O3S IDS d 303      81.922  19.630 107.253  0.00  0.00    -0.572 OA
ATOM      6  C1  IDS d 303      83.921  20.211 103.804  0.00  0.00     0.161 C 
ATOM      7  C4  IDS d 303      81.661  19.297 102.003  0.00  0.00     0.103 C 
ATOM      8  O2S IDS d 303      82.498  17.323 107.040  0.00  0.00    -0.572 OA
ATOM      9  C3  IDS d 303      81.375  20.161 103.253  0.00  0.00     0.094 C 
ATOM     10  C5  IDS d 303      83.126  19.479 101.614  0.00  0.00     0.152 C 
ATOM     11  C6  IDS d 303      83.457  18.781 100.325  0.00  0.00     0.206 C 
ATOM     12  O62 IDS d 303      84.160  17.757 100.423  0.00  0.00    -0.646 OA
ATOM     13  O5  IDS d 303      84.129  19.467 102.612  0.00  0.00    -0.340 OA
ATOM     14  C2  IDS d 303      82.479  20.014 104.315  0.00  0.00     0.134 C 
ATOM     15  O1S IDS d 303      84.137  18.979 106.716  0.00  0.00    -0.572 OA
ATOM     16  H   IDS d 303      80.500  21.567 102.256  0.00  0.00     0.210 HD
ATOM     17  H   IDS d 303      84.629  19.824 104.508  0.00  0.00     0.133 H 
ATOM     18  H   IDS d 303      80.988  19.591 101.225  0.00  0.00     0.092 H 
ATOM     19  H   IDS d 303      80.461  19.796 103.674  0.00  0.00     0.091 H 
ATOM     20  H   IDS d 303      83.180  20.532 101.431  0.00  0.00     0.104 H 
ATOM     21  H   IDS d 303      82.332  20.803 105.023  0.00  0.00     0.097 H 
ATOM     22  C3  SGN d 306      88.194  29.795 108.183  0.00  0.00     0.083 C 
ATOM     23  O1S SGN d 306      90.387  28.113 110.617  0.00  0.00    -0.296 OA
ATOM     24  O4S SGN d 306      80.917  29.742 108.740  0.00  0.00    -0.572 OA
ATOM     25  O5S SGN d 306      81.799  28.122 107.262  0.00  0.00    -0.572 OA
ATOM     26  C2  SGN d 306      87.985  29.846 109.688  0.00  0.00     0.081 C 
ATOM     27  O5  SGN d 306      85.652  30.405 109.335  0.00  0.00    -0.350 OA
ATOM     28  C6  SGN d 306      84.467  29.985 107.261  0.00  0.00     0.067 C 
ATOM     29  S2  SGN d 306      81.855  29.493 107.682  0.00  0.00     0.251 S 
ATOM     30  S1  SGN d 306      90.180  29.389 111.255  0.00  0.00     0.156 S 
ATOM     31  O3S SGN d 306      91.445  30.038 111.493  0.00  0.00    -0.296 OA
ATOM     32  O4  SGN d 306      87.088  29.275 106.098  0.00  0.00    -0.348 OA
ATOM     33  O3  SGN d 306      89.253  28.900 107.900  0.00  0.00    -0.391 OA
ATOM     34  O6S SGN d 306      81.598  30.359 106.559  0.00  0.00    -0.572 OA
ATOM     35  C5  SGN d 306      85.801  30.356 107.884  0.00  0.00     0.091 C 
ATOM     36  O1  SGN d 306      87.215  32.132 109.816  0.00  0.00    -0.369 OA
ATOM     37  N   SGN d 306      89.192  30.413 110.222  0.00  0.00    -0.210 NA
ATOM     38  O6  SGN d 306      83.484  29.808 108.257  0.00  0.00    -0.254 OA
ATOM     39  C4  SGN d 306      86.893  29.326 107.524  0.00  0.00     0.095 C 
ATOM     40  O2S SGN d 306      89.465  29.227 112.483  0.00  0.00    -0.296 OA
ATOM     41  C1  SGN d 306      86.833  30.786 110.078  0.00  0.00     0.147 C 
ATOM     42  H   SGN d 306      88.448  30.761 107.798  0.00  0.00     0.089 H 
ATOM     43  H   SGN d 306      89.530  27.686 110.462  0.00  0.00     0.231 HD
ATOM     44  H   SGN d 306      87.755  28.867 110.056  0.00  0.00     0.076 H 
ATOM     45  H   SGN d 306      84.577  29.074 106.711  0.00  0.00     0.080 H 
ATOM     46  H   SGN d 306      84.159  30.777 106.610  0.00  0.00     0.080 H 
ATOM     47  H   SGN d 306      91.918  30.141 110.654  0.00  0.00     0.231 HD
ATOM     48  H   SGN d 306      89.033  28.020 108.244  0.00  0.00     0.210 HD
ATOM     49  H   SGN d 306      86.098  31.311 107.503  0.00  0.00     0.090 H 
ATOM     50  H   SGN d 306      88.008  32.350 110.331  0.00  0.00     0.212 HD
ATOM     51  H   SGN d 306      88.928  31.234 110.767  0.00  0.00     0.140 HD
ATOM     52  H   SGN d 306      86.605  28.353 107.862  0.00  0.00     0.091 H 
ATOM     53  H   SGN d 306      88.617  28.790 112.308  0.00  0.00     0.231 HD
ATOM     54  H   SGN d 306      86.613  30.709 111.122  0.00  0.00     0.131 H 
ATOM     55  C2  UAP d 301      82.474  12.287  98.721  0.00  0.00     0.132 C 
ATOM     56  S   UAP d 301      81.564  11.366  96.441  0.00  0.00     0.252 S 
ATOM     57  O1S UAP d 301      81.834  10.141  95.794  0.00  0.00    -0.572 OA
ATOM     58  C1  UAP d 301      81.651  12.634  99.944  0.00  0.00     0.161 C 
ATOM     59  O61 UAP d 301      84.722  10.011 102.650  0.00  0.00    -0.646 OA
ATOM     60  C5  UAP d 301      83.254  11.306 101.250  0.00  0.00     0.127 C 
ATOM     61  O3  UAP d 301      84.610  13.286  98.697  0.00  0.00    -0.393 OA
ATOM     62  O2  UAP d 301      81.950  11.150  98.125  0.00  0.00    -0.244 OA
ATOM     63  O5  UAP d 301      81.935  11.778 101.046  0.00  0.00    -0.343 OA
ATOM     64  C6  UAP d 301      83.573  10.469 102.483  0.00  0.00     0.203 C 
ATOM     65  O62 UAP d 301      82.622  10.257 103.266  0.00  0.00    -0.646 OA
ATOM     66  O3S UAP d 301      80.170  11.684  96.398  0.00  0.00    -0.572 OA
ATOM     67  O2S UAP d 301      82.382  12.414  95.881  0.00  0.00    -0.572 OA
ATOM     68  C3  UAP d 301      83.984  12.057  98.891  0.00  0.00     0.069 C 
ATOM     69  C4  UAP d 301      84.410  11.454 100.258  0.00  0.00    -0.005 C 
ATOM     70  H   UAP d 301      82.400  13.178  98.134  0.00  0.00     0.097 H 
ATOM     71  H   UAP d 301      80.605  12.508  99.758  0.00  0.00     0.133 H 
ATOM     72  H   UAP d 301      82.976  12.328 101.104  0.00  0.00     0.100 H 
ATOM     73  H   UAP d 301      84.340  13.656  97.842  0.00  0.00     0.210 HD
ATOM     74  H   UAP d 301      84.279  11.322  98.172  0.00  0.00     0.087 H 
ATOM     75  H   UAP d 301      84.832  10.486 100.084  0.00  0.00     0.041 H 
ATOM     76  H   UAP d 301      85.113  12.132 100.695  0.00  0.00     0.041 H 
ATOM     77  O5  IDS d 305      86.840  26.891 105.800  0.00  0.00    -0.340 OA
ATOM     78  O62 IDS d 305      87.637  24.401 106.724  0.00  0.00    -0.646 OA
ATOM     79  C1  IDS d 305      86.503  28.204 105.345  0.00  0.00     0.161 C 
ATOM     80  O3  IDS d 305      89.022  28.195 103.023  0.00  0.00    -0.390 OA
ATOM     81  C6  IDS d 305      88.418  24.937 105.904  0.00  0.00     0.206 C 
ATOM     82  C2  IDS d 305      86.814  28.420 103.840  0.00  0.00     0.134 C 
ATOM     83  C5  IDS d 305      87.912  26.201 105.208  0.00  0.00     0.152 C 
ATOM     84  C3  IDS d 305      87.822  27.532 103.086  0.00  0.00     0.094 C 
ATOM     85  S   IDS d 305      84.297  27.870 102.877  0.00  0.00     0.252 S 
ATOM     86  C4  IDS d 305      88.014  26.129 103.692  0.00  0.00     0.103 C 
ATOM     87  O3S IDS d 305      83.367  28.613 102.108  0.00  0.00    -0.572 OA
ATOM     88  O1S IDS d 305      83.765  27.612 104.167  0.00  0.00    -0.572 OA
ATOM     89  O2  IDS d 305      85.738  28.888 103.038  0.00  0.00    -0.244 OA
ATOM     90  O61 IDS d 305      89.436  24.375 105.468  0.00  0.00    -0.646 OA
ATOM     91  O2S IDS d 305      84.647  26.660 102.228  0.00  0.00    -0.572 OA
ATOM     92  H   IDS d 305      85.446  28.243 105.504  0.00  0.00     0.133 H 
ATOM     93  H   IDS d 305      88.885  29.076 102.640  0.00  0.00     0.210 HD
ATOM     94  H   IDS d 305      87.464  29.251 104.021  0.00  0.00     0.097 H 
ATOM     95  H   IDS d 305      88.632  26.958 105.446  0.00  0.00     0.104 H 
ATOM     96  H   IDS d 305      87.419  27.359 102.110  0.00  0.00     0.091 H 
ATOM     97  H   IDS d 305      88.978  25.770 103.395  0.00  0.00     0.092 H 
ATOM     98  O6  SGN d 304      87.324  20.315 104.122  0.00  0.00    -0.254 OA
ATOM     99  S2  SGN d 304      87.800  18.810 104.873  0.00  0.00     0.251 S 
ATOM    100  O5S SGN d 304      88.043  17.854 103.825  0.00  0.00    -0.572 OA
ATOM    101  N   SGN d 304      85.955  24.912 100.764  0.00  0.00    -0.210 NA
ATOM    102  O3S SGN d 304      87.056  24.660  98.419  0.00  0.00    -0.296 OA
ATOM    103  C6  SGN d 304      86.847  21.360 104.966  0.00  0.00     0.067 C 
ATOM    104  O3  SGN d 304      84.094  22.859 101.163  0.00  0.00    -0.391 OA
ATOM    105  C5  SGN d 304      86.430  22.494 104.063  0.00  0.00     0.091 C 
ATOM    106  O2S SGN d 304      86.456  26.806  99.116  0.00  0.00    -0.296 OA
ATOM    107  O1  SGN d 304      86.993  25.238 103.226  0.00  0.00    -0.348 OA
ATOM    108  O4S SGN d 304      88.991  19.024 105.636  0.00  0.00    -0.572 OA
ATOM    109  C1  SGN d 304      87.408  24.082 102.492  0.00  0.00     0.150 C 
ATOM    110  C3  SGN d 304      85.044  23.226 102.145  0.00  0.00     0.083 C 
ATOM    111  C2  SGN d 304      86.326  23.701 101.454  0.00  0.00     0.081 C 
ATOM    112  S1  SGN d 304      87.019  25.564  99.523  0.00  0.00     0.156 S 
ATOM    113  O6S SGN d 304      86.716  18.361 105.718  0.00  0.00    -0.572 OA
ATOM    114  O1S SGN d 304      88.344  25.757 100.039  0.00  0.00    -0.296 OA
ATOM    115  O5  SGN d 304      87.616  22.957 103.366  0.00  0.00    -0.349 OA
ATOM    116  C4  SGN d 304      85.389  22.030 103.023  0.00  0.00     0.095 C 
ATOM    117  O4  SGN d 304      84.189  21.596 103.681  0.00  0.00    -0.348 OA
ATOM    118  H   SGN d 304      85.849  25.637 101.473  0.00  0.00     0.140 HD
ATOM    119  H   SGN d 304      86.158  24.534  98.074  0.00  0.00     0.231 HD
ATOM    120  H   SGN d 304      87.624  21.684 105.627  0.00  0.00     0.080 H 
ATOM    121  H   SGN d 304      86.027  21.025 105.565  0.00  0.00     0.080 H 
ATOM    122  H   SGN d 304      83.885  23.630 100.612  0.00  0.00     0.210 HD
ATOM    123  H   SGN d 304      85.986  23.270 104.651  0.00  0.00     0.090 H 
ATOM    124  H   SGN d 304      85.562  26.658  98.771  0.00  0.00     0.231 HD
ATOM    125  H   SGN d 304      88.330  24.322 102.003  0.00  0.00     0.131 H 
ATOM    126  H   SGN d 304      84.628  24.005 102.748  0.00  0.00     0.089 H 
ATOM    127  H   SGN d 304      86.717  22.935 100.818  0.00  0.00     0.076 H 
ATOM    128  H   SGN d 304      88.712  24.902 100.312  0.00  0.00     0.231 HD
ATOM    129  H   SGN d 304      85.789  21.219 102.450  0.00  0.00     0.091 H 
ATOM    130  O5S SGN d 302      78.065  17.119  96.136  0.00  0.00    -0.572 OA
ATOM    131  C4  SGN d 302      81.014  14.785 100.811  0.00  0.00     0.095 C 
ATOM    132  O1S SGN d 302      80.033  14.686 106.200  0.00  0.00    -0.296 OA
ATOM    133  O3  SGN d 302      81.377  13.798 102.963  0.00  0.00    -0.391 OA
ATOM    134  O2S SGN d 302      78.284  15.602 104.901  0.00  0.00    -0.296 OA
ATOM    135  C1  SGN d 302      80.255  17.272 102.085  0.00  0.00     0.150 C 
ATOM    136  C5  SGN d 302      81.007  16.111 100.064  0.00  0.00     0.091 C 
ATOM    137  O3S SGN d 302      79.459  16.979 106.392  0.00  0.00    -0.296 OA
ATOM    138  O5  SGN d 302      80.030  16.995 100.677  0.00  0.00    -0.349 OA
ATOM    139  C6  SGN d 302      80.678  15.867  98.598  0.00  0.00     0.067 C 
ATOM    140  S1  SGN d 302      79.560  15.853 105.497  0.00  0.00     0.156 S 
ATOM    141  O4S SGN d 302      79.924  18.501  96.605  0.00  0.00    -0.572 OA
ATOM    142  O6S SGN d 302      80.235  16.318  95.740  0.00  0.00    -0.572 OA
ATOM    143  O4  SGN d 302      81.985  13.960 100.237  0.00  0.00    -0.348 OA
ATOM    144  N   SGN d 302      80.687  16.232 104.189  0.00  0.00    -0.210 NA
ATOM    145  C3  SGN d 302      81.366  15.030 102.264  0.00  0.00     0.083 C 
ATOM    146  C2  SGN d 302      80.287  15.937 102.834  0.00  0.00     0.081 C 
ATOM    147  S2  SGN d 302      79.427  17.153  96.593  0.00  0.00     0.251 S 
ATOM    148  O6  SGN d 302      79.478  16.507  98.226  0.00  0.00    -0.254 OA
ATOM    149  O1  SGN d 302      81.511  17.908 102.318  0.00  0.00    -0.348 OA
ATOM    150  H   SGN d 302      80.051  14.323 100.751  0.00  0.00     0.091 H 
ATOM    151  H   SGN d 302      79.420  14.471 106.920  0.00  0.00     0.231 HD
ATOM    152  H   SGN d 302      82.067  13.224 102.596  0.00  0.00     0.210 HD
ATOM    153  H   SGN d 302      77.639  15.389 105.594  0.00  0.00     0.231 HD
ATOM    154  H   SGN d 302      79.471  17.920 102.417  0.00  0.00     0.131 H 
ATOM    155  H   SGN d 302      81.970  16.573 100.120  0.00  0.00     0.090 H 
ATOM    156  H   SGN d 302      78.840  16.769 107.108  0.00  0.00     0.231 HD
ATOM    157  H   SGN d 302      80.575  14.814  98.435  0.00  0.00     0.080 H 
ATOM    158  H   SGN d 302      81.472  16.268  98.005  0.00  0.00     0.080 H 
ATOM    159  H   SGN d 302      81.546  15.713 104.370  0.00  0.00     0.140 HD
ATOM    160  H   SGN d 302      82.332  15.480 102.359  0.00  0.00     0.089 H 
ATOM    161  H   SGN d 302      79.331  15.462 102.759  0.00  0.00     0.076 H 
ENDROOT
TORSDOF 50
ENDMDL
MODEL 15
REMARK VINA RESULT:     -11.0      4.426     15.348
REMARK  0 active torsions:
REMARK  status: ('A' for Active; 'I' for Inactive)
REMARK       I    between atoms: S_1  and  O2_2 
REMARK       I    between atoms: O2_2  and  C2_99 
REMARK       I    between atoms: C3_3  and  O3_50 
REMARK       I    between atoms: C2_5  and  O2_57 
REMARK       I    between atoms: O1S_6  and  S1_33 
REMARK       I    between atoms: O3_7  and  C3_52 
REMARK       I    between atoms: O6_9  and  C6_34 
REMARK       I    between atoms: O6_9  and  S2_17 
REMARK       I    between atoms: C2_13  and  N_73 
REMARK       I    between atoms: S_16  and  O2_57 
REMARK       I    between atoms: C1_20  and  O4_43 
REMARK       I    between atoms: C6_21  and  C5_67 
REMARK       I    between atoms: C6_21  and  O6_75 
REMARK       I    between atoms: N_22  and  C2_66 
REMARK       I    between atoms: N_22  and  S1_69 
REMARK       I    between atoms: S2_23  and  O6_75 
REMARK       I    between atoms: C1_24  and  O4_78 
REMARK       I    between atoms: C4_25  and  O4_78 
REMARK       I    between atoms: O3_26  and  C3_81 
REMARK       I    between atoms: O1S_27  and  S1_60 
REMARK       I    between atoms: O3S_28  and  S1_69 
REMARK       I    between atoms: O3_29  and  C3_87 
REMARK       I    between atoms: C6_30  and  C5_80 
REMARK       I    between atoms: O2S_32  and  S1_60 
REMARK       I    between atoms: S1_33  and  N_73 
REMARK       I    between atoms: S1_33  and  O2S_94 
REMARK       I    between atoms: S1_33  and  O3S_35 
REMARK       I    between atoms: C6_34  and  C5_38 
REMARK       I    between atoms: C2_36  and  O2_93 
REMARK       I    between atoms: O3_37  and  C3_65 
REMARK       I    between atoms: C1_40  and  O1_105 
REMARK       I    between atoms: O2S_41  and  S1_69 
REMARK       I    between atoms: C5_42  and  C6_54 
REMARK       I    between atoms: O4_43  and  C4_92 
REMARK       I    between atoms: O1_44  and  C1_62 
REMARK       I    between atoms: O1_44  and  C4_83 
REMARK       I    between atoms: C1_45  and  O4_102 
REMARK       I    between atoms: C4_46  and  O1_105 
REMARK       I    between atoms: O3S_47  and  S1_60 
REMARK       I    between atoms: C5_53  and  C6_61 
REMARK       I    between atoms: C6_54  and  O6_98 
REMARK       I    between atoms: O3_56  and  C3_84 
REMARK       I    between atoms: C5_59  and  C6_63 
REMARK       I    between atoms: S1_60  and  N_86 
REMARK       I    between atoms: S1_69  and  O1S_91 
REMARK       I    between atoms: O1_70  and  C1_96 
REMARK       I    between atoms: S_82  and  O2_93 
REMARK       I    between atoms: N_86  and  C2_90 
REMARK       I    between atoms: S2_95  and  O6_98 
REMARK       I    between atoms: C4_100  and  O4_102 
ROOT
ATOM      1  S   IDS d 303      85.366  28.539 104.370  0.00  0.00     0.252 S 
ATOM      2  O2  IDS d 303      84.852  28.436 106.043  0.00  0.00    -0.244 OA
ATOM      3  O61 IDS d 303      83.810  26.050 111.130  0.00  0.00    -0.646 OA
ATOM      4  O3  IDS d 303      81.613  27.923 107.425  0.00  0.00    -0.390 OA
ATOM      5  O3S IDS d 303      84.251  29.072 103.626  0.00  0.00    -0.572 OA
ATOM      6  C1  IDS d 303      84.055  26.213 106.458  0.00  0.00     0.161 C 
ATOM      7  C4  IDS d 303      83.619  28.125 108.768  0.00  0.00     0.103 C 
ATOM      8  O2S IDS d 303      86.518  29.395 104.302  0.00  0.00    -0.572 OA
ATOM      9  C3  IDS d 303      82.923  28.358 107.408  0.00  0.00     0.094 C 
ATOM     10  C5  IDS d 303      84.025  26.657 108.860  0.00  0.00     0.152 C 
ATOM     11  C6  IDS d 303      84.588  26.311 110.209  0.00  0.00     0.206 C 
ATOM     12  O62 IDS d 303      85.816  26.104 110.253  0.00  0.00    -0.646 OA
ATOM     13  O5  IDS d 303      84.621  26.018 107.746  0.00  0.00    -0.340 OA
ATOM     14  C2  IDS d 303      83.691  27.698 106.251  0.00  0.00     0.134 C 
ATOM     15  O1S IDS d 303      85.697  27.220 103.941  0.00  0.00    -0.572 OA
ATOM     16  H   IDS d 303      81.141  28.347 108.159  0.00  0.00     0.210 HD
ATOM     17  H   IDS d 303      84.812  25.908 105.766  0.00  0.00     0.133 H 
ATOM     18  H   IDS d 303      82.948  28.417 109.549  0.00  0.00     0.092 H 
ATOM     19  H   IDS d 303      82.921  29.416 107.243  0.00  0.00     0.091 H 
ATOM     20  H   IDS d 303      83.083  26.158 108.768  0.00  0.00     0.104 H 
ATOM     21  H   IDS d 303      83.036  27.701 105.404  0.00  0.00     0.097 H 
ATOM     22  C3  SGN d 306      78.039  19.816  99.235  0.00  0.00     0.083 C 
ATOM     23  O1S SGN d 306      80.855  19.120  96.965  0.00  0.00    -0.296 OA
ATOM     24  O4S SGN d 306      75.053  26.443  99.890  0.00  0.00    -0.572 OA
ATOM     25  O5S SGN d 306      76.643  25.915 101.558  0.00  0.00    -0.572 OA
ATOM     26  C2  SGN d 306      78.139  20.357  97.817  0.00  0.00     0.081 C 
ATOM     27  O5  SGN d 306      76.586  22.127  98.394  0.00  0.00    -0.350 OA
ATOM     28  C6  SGN d 306      76.129  22.827 100.672  0.00  0.00     0.067 C 
ATOM     29  S2  SGN d 306      75.512  25.442 100.811  0.00  0.00     0.251 S 
ATOM     30  S1  SGN d 306      79.730  18.972  96.077  0.00  0.00     0.156 S 
ATOM     31  O3S SGN d 306      79.732  17.657  95.486  0.00  0.00    -0.296 OA
ATOM     32  O4  SGN d 306      77.704  20.481 101.534  0.00  0.00    -0.348 OA
ATOM     33  O3  SGN d 306      79.247  19.149  99.554  0.00  0.00    -0.391 OA
ATOM     34  O6S SGN d 306      74.457  25.058 101.715  0.00  0.00    -0.572 OA
ATOM     35  C5  SGN d 306      76.468  21.653  99.770  0.00  0.00     0.091 C 
ATOM     36  O1  SGN d 306      75.793  20.193  97.260  0.00  0.00    -0.369 OA
ATOM     37  N   SGN d 306      78.234  19.199  96.973  0.00  0.00    -0.210 NA
ATOM     38  O6  SGN d 306      76.020  24.016  99.922  0.00  0.00    -0.254 OA
ATOM     39  C4  SGN d 306      77.797  20.989 100.190  0.00  0.00     0.095 C 
ATOM     40  O2S SGN d 306      79.759  19.975  95.058  0.00  0.00    -0.296 OA
ATOM     41  C1  SGN d 306      76.869  21.116  97.400  0.00  0.00     0.147 C 
ATOM     42  H   SGN d 306      77.229  19.123  99.325  0.00  0.00     0.089 H 
ATOM     43  H   SGN d 306      80.844  20.008  97.356  0.00  0.00     0.231 HD
ATOM     44  H   SGN d 306      78.968  21.030  97.743  0.00  0.00     0.076 H 
ATOM     45  H   SGN d 306      76.901  22.942 101.403  0.00  0.00     0.080 H 
ATOM     46  H   SGN d 306      75.191  22.634 101.150  0.00  0.00     0.080 H 
ATOM     47  H   SGN d 306      79.713  16.987  96.186  0.00  0.00     0.231 HD
ATOM     48  H   SGN d 306      79.989  19.769  99.476  0.00  0.00     0.210 HD
ATOM     49  H   SGN d 306      75.686  20.927  99.853  0.00  0.00     0.090 H 
ATOM     50  H   SGN d 306      76.020  19.533  96.586  0.00  0.00     0.212 HD
ATOM     51  H   SGN d 306      77.475  19.252  96.294  0.00  0.00     0.140 HD
ATOM     52  H   SGN d 306      78.592  21.704 100.151  0.00  0.00     0.091 H 
ATOM     53  H   SGN d 306      79.757  20.853  95.470  0.00  0.00     0.231 HD
ATOM     54  H   SGN d 306      77.005  21.601  96.456  0.00  0.00     0.131 H 
ATOM     55  C2  UAP d 301      89.696  29.285 113.491  0.00  0.00     0.132 C 
ATOM     56  S   UAP d 301      89.771  29.881 116.044  0.00  0.00     0.252 S 
ATOM     57  O1S UAP d 301      90.876  29.951 116.919  0.00  0.00    -0.572 OA
ATOM     58  C1  UAP d 301      89.224  30.187 112.370  0.00  0.00     0.161 C 
ATOM     59  O61 UAP d 301      93.296  29.140 109.929  0.00  0.00    -0.646 OA
ATOM     60  C5  UAP d 301      91.297  29.598 111.188  0.00  0.00     0.127 C 
ATOM     61  O3  UAP d 301      89.719  26.995 112.925  0.00  0.00    -0.393 OA
ATOM     62  O2  UAP d 301      90.391  30.040 114.424  0.00  0.00    -0.244 OA
ATOM     63  O5  UAP d 301      90.279  30.539 111.481  0.00  0.00    -0.343 OA
ATOM     64  C6  UAP d 301      92.370  29.944 110.163  0.00  0.00     0.203 C 
ATOM     65  O62 UAP d 301      92.272  31.065 109.619  0.00  0.00    -0.646 OA
ATOM     66  O3S UAP d 301      88.883  30.987 116.232  0.00  0.00    -0.572 OA
ATOM     67  O2S UAP d 301      89.102  28.611 116.191  0.00  0.00    -0.572 OA
ATOM     68  C3  UAP d 301      90.574  28.074 113.141  0.00  0.00     0.069 C 
ATOM     69  C4  UAP d 301      91.506  28.267 111.913  0.00  0.00    -0.005 C 
ATOM     70  H   UAP d 301      88.780  28.862 113.847  0.00  0.00     0.097 H 
ATOM     71  H   UAP d 301      88.858  31.119 112.748  0.00  0.00     0.133 H 
ATOM     72  H   UAP d 301      90.245  29.416 111.123  0.00  0.00     0.100 H 
ATOM     73  H   UAP d 301      89.141  26.881 113.695  0.00  0.00     0.210 HD
ATOM     74  H   UAP d 301      91.243  27.915 113.962  0.00  0.00     0.087 H 
ATOM     75  H   UAP d 301      92.522  28.221 112.249  0.00  0.00     0.041 H 
ATOM     76  H   UAP d 301      91.272  27.490 111.216  0.00  0.00     0.041 H 
ATOM     77  O5  IDS d 305      79.673  21.544 102.443  0.00  0.00    -0.340 OA
ATOM     78  O62 IDS d 305      82.374  22.024 102.040  0.00  0.00    -0.646 OA
ATOM     79  C1  IDS d 305      78.290  21.226 102.611  0.00  0.00     0.161 C 
ATOM     80  O3  IDS d 305      79.016  18.413 104.426  0.00  0.00    -0.390 OA
ATOM     81  C6  IDS d 305      82.104  20.920 102.567  0.00  0.00     0.206 C 
ATOM     82  C2  IDS d 305      77.996  20.492 103.946  0.00  0.00     0.134 C 
ATOM     83  C5  IDS d 305      80.654  20.710 103.004  0.00  0.00     0.152 C 
ATOM     84  C3  IDS d 305      79.101  19.750 104.722  0.00  0.00     0.094 C 
ATOM     85  S   IDS d 305      77.256  22.701 105.408  0.00  0.00     0.252 S 
ATOM     86  C4  IDS d 305      80.527  20.270 104.455  0.00  0.00     0.103 C 
ATOM     87  O3S IDS d 305      76.077  23.050 106.111  0.00  0.00    -0.572 OA
ATOM     88  O1S IDS d 305      77.458  23.594 104.324  0.00  0.00    -0.572 OA
ATOM     89  O2  IDS d 305      76.993  21.068 104.772  0.00  0.00    -0.244 OA
ATOM     90  O61 IDS d 305      82.973  20.123 102.957  0.00  0.00    -0.646 OA
ATOM     91  O2S IDS d 305      78.383  22.694 106.268  0.00  0.00    -0.572 OA
ATOM     92  H   IDS d 305      77.825  22.190 102.620  0.00  0.00     0.133 H 
ATOM     93  H   IDS d 305      78.114  18.100 104.599  0.00  0.00     0.210 HD
ATOM     94  H   IDS d 305      77.564  19.639 103.464  0.00  0.00     0.097 H 
ATOM     95  H   IDS d 305      80.327  19.838 102.475  0.00  0.00     0.104 H 
ATOM     96  H   IDS d 305      78.931  19.932 105.762  0.00  0.00     0.091 H 
ATOM     97  H   IDS d 305      81.213  19.478 104.671  0.00  0.00     0.092 H 
ATOM     98  O6  SGN d 304      85.472  23.228 105.579  0.00  0.00    -0.254 OA
ATOM     99  S2  SGN d 304      87.132  23.571 105.153  0.00  0.00     0.251 S 
ATOM    100  O5S SGN d 304      87.924  23.462 106.350  0.00  0.00    -0.572 OA
ATOM    101  N   SGN d 304      80.272  21.840 107.885  0.00  0.00    -0.210 NA
ATOM    102  O3S SGN d 304      80.603  20.375 110.011  0.00  0.00    -0.296 OA
ATOM    103  C6  SGN d 304      84.468  23.459 104.593  0.00  0.00     0.067 C 
ATOM    104  O3  SGN d 304      81.362  24.383 108.307  0.00  0.00    -0.391 OA
ATOM    105  C5  SGN d 304      83.140  23.169 105.246  0.00  0.00     0.091 C 
ATOM    106  O2S SGN d 304      78.544  20.256 108.915  0.00  0.00    -0.296 OA
ATOM    107  O1  SGN d 304      80.809  21.405 105.283  0.00  0.00    -0.348 OA
ATOM    108  O4S SGN d 304      87.570  22.619 104.178  0.00  0.00    -0.572 OA
ATOM    109  C1  SGN d 304      81.902  21.298 106.201  0.00  0.00     0.150 C 
ATOM    110  C3  SGN d 304      81.596  23.642 107.125  0.00  0.00     0.083 C 
ATOM    111  C2  SGN d 304      81.615  22.148 107.462  0.00  0.00     0.081 C 
ATOM    112  S1  SGN d 304      79.955  20.335 108.739  0.00  0.00     0.156 S 
ATOM    113  O6S SGN d 304      87.198  24.917 104.630  0.00  0.00    -0.572 OA
ATOM    114  O1S SGN d 304      80.431  19.212 107.985  0.00  0.00    -0.296 OA
ATOM    115  O5  SGN d 304      83.128  21.763 105.608  0.00  0.00    -0.349 OA
ATOM    116  C4  SGN d 304      82.945  24.015 106.522  0.00  0.00     0.095 C 
ATOM    117  O4  SGN d 304      82.919  25.412 106.194  0.00  0.00    -0.348 OA
ATOM    118  H   SGN d 304      79.691  21.832 107.047  0.00  0.00     0.140 HD
ATOM    119  H   SGN d 304      80.277  21.136 110.516  0.00  0.00     0.231 HD
ATOM    120  H   SGN d 304      84.616  22.808 103.757  0.00  0.00     0.080 H 
ATOM    121  H   SGN d 304      84.508  24.467 104.236  0.00  0.00     0.080 H 
ATOM    122  H   SGN d 304      80.501  24.136 108.678  0.00  0.00     0.210 HD
ATOM    123  H   SGN d 304      82.350  23.411 104.566  0.00  0.00     0.090 H 
ATOM    124  H   SGN d 304      78.239  21.022 109.426  0.00  0.00     0.231 HD
ATOM    125  H   SGN d 304      82.007  20.264 106.461  0.00  0.00     0.131 H 
ATOM    126  H   SGN d 304      80.818  23.863 106.424  0.00  0.00     0.089 H 
ATOM    127  H   SGN d 304      82.366  21.937 108.194  0.00  0.00     0.076 H 
ATOM    128  H   SGN d 304      81.392  19.281 107.874  0.00  0.00     0.231 HD
ATOM    129  H   SGN d 304      83.748  23.828 107.204  0.00  0.00     0.091 H 
ATOM    130  O5S SGN d 302      83.103  30.701 115.492  0.00  0.00    -0.572 OA
ATOM    131  C4  SGN d 302      87.172  30.141 111.118  0.00  0.00     0.095 C 
ATOM    132  O1S SGN d 302      87.677  32.391 106.149  0.00  0.00    -0.296 OA
ATOM    133  O3  SGN d 302      88.540  30.734 109.244  0.00  0.00    -0.391 OA
ATOM    134  O2S SGN d 302      85.910  33.271 107.448  0.00  0.00    -0.296 OA
ATOM    135  C1  SGN d 302      84.831  30.175 109.413  0.00  0.00     0.150 C 
ATOM    136  C5  SGN d 302      85.872  29.452 111.508  0.00  0.00     0.091 C 
ATOM    137  O3S SGN d 302      85.420  32.067 105.496  0.00  0.00    -0.296 OA
ATOM    138  O5  SGN d 302      84.762  30.131 110.864  0.00  0.00    -0.349 OA
ATOM    139  C6  SGN d 302      85.721  29.473 113.022  0.00  0.00     0.067 C 
ATOM    140  S1  SGN d 302      86.326  32.188 106.611  0.00  0.00     0.156 S 
ATOM    141  O4S SGN d 302      82.743  28.634 114.405  0.00  0.00    -0.572 OA
ATOM    142  O6S SGN d 302      84.685  28.982 115.716  0.00  0.00    -0.572 OA
ATOM    143  O4  SGN d 302      88.233  29.452 111.711  0.00  0.00    -0.348 OA
ATOM    144  N   SGN d 302      86.269  30.715 107.587  0.00  0.00    -0.210 NA
ATOM    145  C3  SGN d 302      87.330  30.095 109.611  0.00  0.00     0.083 C 
ATOM    146  C2  SGN d 302      86.149  30.847 109.019  0.00  0.00     0.081 C 
ATOM    147  S2  SGN d 302      83.728  29.591 114.826  0.00  0.00     0.251 S 
ATOM    148  O6  SGN d 302      84.578  30.201 113.416  0.00  0.00    -0.254 OA
ATOM    149  O1  SGN d 302      84.840  28.872 108.832  0.00  0.00    -0.348 OA
ATOM    150  H   SGN d 302      87.161  31.160 111.444  0.00  0.00     0.091 H 
ATOM    151  H   SGN d 302      87.718  33.198 105.612  0.00  0.00     0.231 HD
ATOM    152  H   SGN d 302      89.290  30.250 109.624  0.00  0.00     0.210 HD
ATOM    153  H   SGN d 302      85.931  34.099 106.942  0.00  0.00     0.231 HD
ATOM    154  H   SGN d 302      83.970  30.705 109.064  0.00  0.00     0.131 H 
ATOM    155  H   SGN d 302      85.883  28.432 111.186  0.00  0.00     0.090 H 
ATOM    156  H   SGN d 302      85.453  32.876 104.963  0.00  0.00     0.231 HD
ATOM    157  H   SGN d 302      86.588  29.929 113.452  0.00  0.00     0.080 H 
ATOM    158  H   SGN d 302      85.612  28.465 113.364  0.00  0.00     0.080 H 
ATOM    159  H   SGN d 302      87.128  30.196 107.402  0.00  0.00     0.140 HD
ATOM    160  H   SGN d 302      87.359  29.087 109.255  0.00  0.00     0.089 H 
ATOM    161  H   SGN d 302      86.150  31.861 109.361  0.00  0.00     0.076 H 
ENDROOT
TORSDOF 50
ENDMDL
MODEL 16
REMARK VINA RESULT:     -11.0      3.352     15.308
REMARK  0 active torsions:
REMARK  status: ('A' for Active; 'I' for Inactive)
REMARK       I    between atoms: S_1  and  O2_2 
REMARK       I    between atoms: O2_2  and  C2_99 
REMARK       I    between atoms: C3_3  and  O3_50 
REMARK       I    between atoms: C2_5  and  O2_57 
REMARK       I    between atoms: O1S_6  and  S1_33 
REMARK       I    between atoms: O3_7  and  C3_52 
REMARK       I    between atoms: O6_9  and  C6_34 
REMARK       I    between atoms: O6_9  and  S2_17 
REMARK       I    between atoms: C2_13  and  N_73 
REMARK       I    between atoms: S_16  and  O2_57 
REMARK       I    between atoms: C1_20  and  O4_43 
REMARK       I    between atoms: C6_21  and  C5_67 
REMARK       I    between atoms: C6_21  and  O6_75 
REMARK       I    between atoms: N_22  and  C2_66 
REMARK       I    between atoms: N_22  and  S1_69 
REMARK       I    between atoms: S2_23  and  O6_75 
REMARK       I    between atoms: C1_24  and  O4_78 
REMARK       I    between atoms: C4_25  and  O4_78 
REMARK       I    between atoms: O3_26  and  C3_81 
REMARK       I    between atoms: O1S_27  and  S1_60 
REMARK       I    between atoms: O3S_28  and  S1_69 
REMARK       I    between atoms: O3_29  and  C3_87 
REMARK       I    between atoms: C6_30  and  C5_80 
REMARK       I    between atoms: O2S_32  and  S1_60 
REMARK       I    between atoms: S1_33  and  N_73 
REMARK       I    between atoms: S1_33  and  O2S_94 
REMARK       I    between atoms: S1_33  and  O3S_35 
REMARK       I    between atoms: C6_34  and  C5_38 
REMARK       I    between atoms: C2_36  and  O2_93 
REMARK       I    between atoms: O3_37  and  C3_65 
REMARK       I    between atoms: C1_40  and  O1_105 
REMARK       I    between atoms: O2S_41  and  S1_69 
REMARK       I    between atoms: C5_42  and  C6_54 
REMARK       I    between atoms: O4_43  and  C4_92 
REMARK       I    between atoms: O1_44  and  C1_62 
REMARK       I    between atoms: O1_44  and  C4_83 
REMARK       I    between atoms: C1_45  and  O4_102 
REMARK       I    between atoms: C4_46  and  O1_105 
REMARK       I    between atoms: O3S_47  and  S1_60 
REMARK       I    between atoms: C5_53  and  C6_61 
REMARK       I    between atoms: C6_54  and  O6_98 
REMARK       I    between atoms: O3_56  and  C3_84 
REMARK       I    between atoms: C5_59  and  C6_63 
REMARK       I    between atoms: S1_60  and  N_86 
REMARK       I    between atoms: S1_69  and  O1S_91 
REMARK       I    between atoms: O1_70  and  C1_96 
REMARK       I    between atoms: S_82  and  O2_93 
REMARK       I    between atoms: N_86  and  C2_90 
REMARK       I    between atoms: S2_95  and  O6_98 
REMARK       I    between atoms: C4_100  and  O4_102 
ROOT
ATOM      1  S   IDS d 303      84.298  18.822 105.448  0.00  0.00     0.252 S 
ATOM      2  O2  IDS d 303      84.278  19.609 103.882  0.00  0.00    -0.244 OA
ATOM      3  O61 IDS d 303      82.263  22.755  99.558  0.00  0.00    -0.646 OA
ATOM      4  O3  IDS d 303      83.390  18.336 100.680  0.00  0.00    -0.390 OA
ATOM      5  O3S IDS d 303      84.571  17.427 105.206  0.00  0.00    -0.572 OA
ATOM      6  C1  IDS d 303      82.007  19.731 103.122  0.00  0.00     0.161 C 
ATOM      7  C4  IDS d 303      84.041  20.638 101.066  0.00  0.00     0.103 C 
ATOM      8  O2S IDS d 303      85.316  19.438 106.252  0.00  0.00    -0.572 OA
ATOM      9  C3  IDS d 303      84.025  19.177 101.571  0.00  0.00     0.094 C 
ATOM     10  C5  IDS d 303      82.672  21.258 101.335  0.00  0.00     0.152 C 
ATOM     11  C6  IDS d 303      82.554  22.637 100.750  0.00  0.00     0.206 C 
ATOM     12  O62 IDS d 303      82.552  23.578 101.567  0.00  0.00    -0.646 OA
ATOM     13  O5  IDS d 303      82.032  21.044 102.578  0.00  0.00    -0.340 OA
ATOM     14  C2  IDS d 303      83.387  19.060 102.966  0.00  0.00     0.134 C 
ATOM     15  O1S IDS d 303      83.013  19.008 106.039  0.00  0.00    -0.572 OA
ATOM     16  H   IDS d 303      83.802  18.420  99.806  0.00  0.00     0.210 HD
ATOM     17  H   IDS d 303      81.761  19.857 104.156  0.00  0.00     0.133 H 
ATOM     18  H   IDS d 303      84.296  20.636 100.026  0.00  0.00     0.092 H 
ATOM     19  H   IDS d 303      85.048  18.870 101.648  0.00  0.00     0.091 H 
ATOM     20  H   IDS d 303      82.022  20.616 100.777  0.00  0.00     0.104 H 
ATOM     21  H   IDS d 303      83.203  18.019 103.134  0.00  0.00     0.097 H 
ATOM     22  C3  SGN d 306      74.056  11.724 104.518  0.00  0.00     0.083 C 
ATOM     23  O1S SGN d 306      73.602  12.316 108.125  0.00  0.00    -0.296 OA
ATOM     24  O4S SGN d 306      80.151   8.829 101.738  0.00  0.00    -0.572 OA
ATOM     25  O5S SGN d 306      80.050  11.188 101.632  0.00  0.00    -0.572 OA
ATOM     26  C2  SGN d 306      74.465  10.734 105.598  0.00  0.00     0.081 C 
ATOM     27  O5  SGN d 306      76.011   9.697 104.046  0.00  0.00    -0.350 OA
ATOM     28  C6  SGN d 306      76.847  10.787 102.047  0.00  0.00     0.067 C 
ATOM     29  S2  SGN d 306      79.331   9.963 101.421  0.00  0.00     0.251 S 
ATOM     30  S1  SGN d 306      73.189  10.940 108.008  0.00  0.00     0.156 S 
ATOM     31  O3S SGN d 306      71.840  10.782 108.492  0.00  0.00    -0.296 OA
ATOM     32  O4  SGN d 306      74.879  12.923 102.588  0.00  0.00    -0.348 OA
ATOM     33  O3  SGN d 306      73.625  12.922 105.138  0.00  0.00    -0.391 OA
ATOM     34  O6S SGN d 306      78.873   9.896 100.056  0.00  0.00    -0.572 OA
ATOM     35  C5  SGN d 306      75.661  10.632 102.982  0.00  0.00     0.091 C 
ATOM     36  O1  SGN d 306      73.874   8.717 104.406  0.00  0.00    -0.369 OA
ATOM     37  N   SGN d 306      73.260  10.442 106.324  0.00  0.00    -0.210 NA
ATOM     38  O6  SGN d 306      77.925   9.983 102.472  0.00  0.00    -0.254 OA
ATOM     39  C4  SGN d 306      75.263  11.985 103.611  0.00  0.00     0.095 C 
ATOM     40  O2S SGN d 306      74.080  10.086 108.731  0.00  0.00    -0.296 OA
ATOM     41  C1  SGN d 306      74.966   9.409 105.003  0.00  0.00     0.147 C 
ATOM     42  H   SGN d 306      73.254  11.336 103.926  0.00  0.00     0.089 H 
ATOM     43  H   SGN d 306      74.510  12.411 107.797  0.00  0.00     0.231 HD
ATOM     44  H   SGN d 306      75.251  11.151 106.193  0.00  0.00     0.076 H 
ATOM     45  H   SGN d 306      77.156  11.812 102.038  0.00  0.00     0.080 H 
ATOM     46  H   SGN d 306      76.554  10.480 101.065  0.00  0.00     0.080 H 
ATOM     47  H   SGN d 306      71.248  11.366 107.994  0.00  0.00     0.231 HD
ATOM     48  H   SGN d 306      74.345  13.284 105.678  0.00  0.00     0.210 HD
ATOM     49  H   SGN d 306      74.830  10.265 102.415  0.00  0.00     0.090 H 
ATOM     50  H   SGN d 306      73.196   8.542 105.078  0.00  0.00     0.212 HD
ATOM     51  H   SGN d 306      73.125   9.432 106.297  0.00  0.00     0.140 HD
ATOM     52  H   SGN d 306      76.088  12.393 104.155  0.00  0.00     0.091 H 
ATOM     53  H   SGN d 306      74.982  10.203 108.395  0.00  0.00     0.231 HD
ATOM     54  H   SGN d 306      75.372   8.776 105.765  0.00  0.00     0.131 H 
ATOM     55  C2  UAP d 301      86.613  27.952 101.737  0.00  0.00     0.132 C 
ATOM     56  S   UAP d 301      87.459  29.628  99.906  0.00  0.00     0.252 S 
ATOM     57  O1S UAP d 301      87.791  30.995 100.022  0.00  0.00    -0.572 OA
ATOM     58  C1  UAP d 301      87.314  26.691 102.196  0.00  0.00     0.161 C 
ATOM     59  O61 UAP d 301      86.700  28.125 106.800  0.00  0.00    -0.646 OA
ATOM     60  C5  UAP d 301      86.952  27.472 104.498  0.00  0.00     0.127 C 
ATOM     61  O3  UAP d 301      84.312  28.004 102.255  0.00  0.00    -0.393 OA
ATOM     62  O2  UAP d 301      87.557  28.941 101.503  0.00  0.00    -0.244 OA
ATOM     63  O5  UAP d 301      87.742  26.774 103.551  0.00  0.00    -0.343 OA
ATOM     64  C6  UAP d 301      87.364  27.477 105.965  0.00  0.00     0.203 C 
ATOM     65  O62 UAP d 301      88.397  26.834 106.250  0.00  0.00    -0.646 OA
ATOM     66  O3S UAP d 301      88.422  28.921  99.119  0.00  0.00    -0.572 OA
ATOM     67  O2S UAP d 301      86.119  29.484  99.391  0.00  0.00    -0.572 OA
ATOM     68  C3  UAP d 301      85.530  28.562 102.640  0.00  0.00     0.069 C 
ATOM     69  C4  UAP d 301      85.749  28.357 104.165  0.00  0.00    -0.005 C 
ATOM     70  H   UAP d 301      86.086  27.619 100.868  0.00  0.00     0.097 H 
ATOM     71  H   UAP d 301      88.208  26.516 101.634  0.00  0.00     0.133 H 
ATOM     72  H   UAP d 301      86.598  26.713 103.833  0.00  0.00     0.100 H 
ATOM     73  H   UAP d 301      84.183  28.137 101.304  0.00  0.00     0.210 HD
ATOM     74  H   UAP d 301      85.561  29.624 102.507  0.00  0.00     0.087 H 
ATOM     75  H   UAP d 301      85.900  29.316 104.617  0.00  0.00     0.041 H 
ATOM     76  H   UAP d 301      84.881  27.860 104.543  0.00  0.00     0.041 H 
ATOM     77  O5  IDS d 305      76.328  14.745 103.231  0.00  0.00    -0.340 OA
ATOM     78  O62 IDS d 305      77.192  16.307 105.354  0.00  0.00    -0.646 OA
ATOM     79  C1  IDS d 305      75.810  13.933 102.176  0.00  0.00     0.161 C 
ATOM     80  O3  IDS d 305      73.340  16.197 101.460  0.00  0.00    -0.390 OA
ATOM     81  C6  IDS d 305      76.116  16.674 104.829  0.00  0.00     0.206 C 
ATOM     82  C2  IDS d 305      75.172  14.765 101.031  0.00  0.00     0.134 C 
ATOM     83  C5  IDS d 305      75.720  15.977 103.527  0.00  0.00     0.152 C 
ATOM     84  C3  IDS d 305      74.696  16.213 101.251  0.00  0.00     0.094 C 
ATOM     85  S   IDS d 305      77.366  14.825  99.373  0.00  0.00     0.252 S 
ATOM     86  C4  IDS d 305      75.409  16.952 102.400  0.00  0.00     0.103 C 
ATOM     87  O3S IDS d 305      77.589  14.399  98.041  0.00  0.00    -0.572 OA
ATOM     88  O1S IDS d 305      78.170  14.070 100.266  0.00  0.00    -0.572 OA
ATOM     89  O2  IDS d 305      75.658  14.506  99.721  0.00  0.00    -0.244 OA
ATOM     90  O61 IDS d 305      75.510  17.704 105.170  0.00  0.00    -0.646 OA
ATOM     91  O2S IDS d 305      77.623  16.211  99.518  0.00  0.00    -0.572 OA
ATOM     92  H   IDS d 305      76.683  13.433 101.813  0.00  0.00     0.133 H 
ATOM     93  H   IDS d 305      72.905  15.730 100.730  0.00  0.00     0.210 HD
ATOM     94  H   IDS d 305      74.218  14.287 101.119  0.00  0.00     0.097 H 
ATOM     95  H   IDS d 305      74.760  15.545 103.722  0.00  0.00     0.104 H 
ATOM     96  H   IDS d 305      74.948  16.765 100.369  0.00  0.00     0.091 H 
ATOM     97  H   IDS d 305      74.762  17.732 102.743  0.00  0.00     0.092 H 
ATOM     98  O6  SGN d 304      79.215  20.690 104.849  0.00  0.00    -0.254 OA
ATOM     99  S2  SGN d 304      79.777  21.520 106.281  0.00  0.00     0.251 S 
ATOM    100  O5S SGN d 304      79.913  22.915 105.955  0.00  0.00    -0.572 OA
ATOM    101  N   SGN d 304      77.244  18.809  99.665  0.00  0.00    -0.210 NA
ATOM    102  O3S SGN d 304      76.066  20.755  98.402  0.00  0.00    -0.296 OA
ATOM    103  C6  SGN d 304      79.186  19.265 104.870  0.00  0.00     0.067 C 
ATOM    104  O3  SGN d 304      79.959  19.404 100.005  0.00  0.00    -0.391 OA
ATOM    105  C5  SGN d 304      78.752  18.816 103.497  0.00  0.00     0.091 C 
ATOM    106  O2S SGN d 304      75.513  18.568  97.796  0.00  0.00    -0.296 OA
ATOM    107  O1  SGN d 304      76.650  17.506 101.946  0.00  0.00    -0.348 OA
ATOM    108  O4S SGN d 304      78.817  21.345 107.328  0.00  0.00    -0.572 OA
ATOM    109  C1  SGN d 304      76.809  18.926 102.029  0.00  0.00     0.150 C 
ATOM    110  C3  SGN d 304      79.153  18.905 101.055  0.00  0.00     0.083 C 
ATOM    111  C2  SGN d 304      77.721  19.421 100.881  0.00  0.00     0.081 C 
ATOM    112  S1  SGN d 304      75.799  19.438  98.886  0.00  0.00     0.156 S 
ATOM    113  O6S SGN d 304      81.059  20.965 106.654  0.00  0.00    -0.572 OA
ATOM    114  O1S SGN d 304      74.698  19.472  99.805  0.00  0.00    -0.296 OA
ATOM    115  O5  SGN d 304      77.404  19.310 103.281  0.00  0.00    -0.349 OA
ATOM    116  C4  SGN d 304      79.676  19.388 102.402  0.00  0.00     0.095 C 
ATOM    117  O4  SGN d 304      81.012  18.890 102.568  0.00  0.00    -0.348 OA
ATOM    118  H   SGN d 304      77.062  17.828  99.879  0.00  0.00     0.140 HD
ATOM    119  H   SGN d 304      76.810  20.726  97.781  0.00  0.00     0.231 HD
ATOM    120  H   SGN d 304      78.489  18.923 105.607  0.00  0.00     0.080 H 
ATOM    121  H   SGN d 304      80.147  18.866 105.119  0.00  0.00     0.080 H 
ATOM    122  H   SGN d 304      79.614  19.089  99.154  0.00  0.00     0.210 HD
ATOM    123  H   SGN d 304      78.797  17.748 103.443  0.00  0.00     0.090 H 
ATOM    124  H   SGN d 304      76.266  18.557  97.185  0.00  0.00     0.231 HD
ATOM    125  H   SGN d 304      75.836  19.367 101.952  0.00  0.00     0.131 H 
ATOM    126  H   SGN d 304      79.176  17.836 101.024  0.00  0.00     0.089 H 
ATOM    127  H   SGN d 304      77.706  20.491 100.869  0.00  0.00     0.076 H 
ATOM    128  H   SGN d 304      74.909  20.068 100.541  0.00  0.00     0.231 HD
ATOM    129  H   SGN d 304      79.688  20.456 102.462  0.00  0.00     0.091 H 
ATOM    130  O5S SGN d 302      87.144  24.358  95.715  0.00  0.00    -0.572 OA
ATOM    131  C4  SGN d 302      86.819  24.389 101.706  0.00  0.00     0.095 C 
ATOM    132  O1S SGN d 302      88.625  20.967 105.582  0.00  0.00    -0.296 OA
ATOM    133  O3  SGN d 302      87.437  23.984 103.984  0.00  0.00    -0.391 OA
ATOM    134  O2S SGN d 302      89.333  20.429 103.393  0.00  0.00    -0.296 OA
ATOM    135  C1  SGN d 302      86.311  21.562 101.345  0.00  0.00     0.150 C 
ATOM    136  C5  SGN d 302      85.971  23.856 100.560  0.00  0.00     0.091 C 
ATOM    137  O3S SGN d 302      87.881  18.977 104.526  0.00  0.00    -0.296 OA
ATOM    138  O5  SGN d 302      86.398  22.504 100.243  0.00  0.00    -0.349 OA
ATOM    139  C6  SGN d 302      86.116  24.771  99.352  0.00  0.00     0.067 C 
ATOM    140  S1  SGN d 302      88.255  20.356 104.330  0.00  0.00     0.156 S 
ATOM    141  O4S SGN d 302      84.949  23.744  96.341  0.00  0.00    -0.572 OA
ATOM    142  O6S SGN d 302      85.730  25.951  96.701  0.00  0.00    -0.572 OA
ATOM    143  O4  SGN d 302      86.370  25.674 102.026  0.00  0.00    -0.348 OA
ATOM    144  N   SGN d 302      86.893  21.247 103.637  0.00  0.00    -0.210 NA
ATOM    145  C3  SGN d 302      86.652  23.489 102.914  0.00  0.00     0.083 C 
ATOM    146  C2  SGN d 302      87.143  22.109 102.507  0.00  0.00     0.081 C 
ATOM    147  S2  SGN d 302      86.088  24.555  96.671  0.00  0.00     0.251 S 
ATOM    148  O6  SGN d 302      86.686  24.092  98.256  0.00  0.00    -0.254 OA
ATOM    149  O1  SGN d 302      84.976  21.412 101.825  0.00  0.00    -0.348 OA
ATOM    150  H   SGN d 302      87.849  24.416 101.421  0.00  0.00     0.091 H 
ATOM    151  H   SGN d 302      89.372  20.484 105.970  0.00  0.00     0.231 HD
ATOM    152  H   SGN d 302      87.119  24.864 104.239  0.00  0.00     0.210 HD
ATOM    153  H   SGN d 302      90.100  19.949 103.743  0.00  0.00     0.231 HD
ATOM    154  H   SGN d 302      86.660  20.614 100.990  0.00  0.00     0.131 H 
ATOM    155  H   SGN d 302      84.940  23.833 100.841  0.00  0.00     0.090 H 
ATOM    156  H   SGN d 302      88.629  18.491 104.906  0.00  0.00     0.231 HD
ATOM    157  H   SGN d 302      86.744  25.597  99.614  0.00  0.00     0.080 H 
ATOM    158  H   SGN d 302      85.142  25.110  99.069  0.00  0.00     0.080 H 
ATOM    159  H   SGN d 302      86.504  21.828 104.380  0.00  0.00     0.140 HD
ATOM    160  H   SGN d 302      85.631  23.452 103.232  0.00  0.00     0.089 H 
ATOM    161  H   SGN d 302      88.173  22.156 102.219  0.00  0.00     0.076 H 
ENDROOT
TORSDOF 50
ENDMDL
MODEL 17
REMARK VINA RESULT:     -10.9      2.804      3.925
REMARK  0 active torsions:
REMARK  status: ('A' for Active; 'I' for Inactive)
REMARK       I    between atoms: S_1  and  O2_2 
REMARK       I    between atoms: O2_2  and  C2_99 
REMARK       I    between atoms: C3_3  and  O3_50 
REMARK       I    between atoms: C2_5  and  O2_57 
REMARK       I    between atoms: O1S_6  and  S1_33 
REMARK       I    between atoms: O3_7  and  C3_52 
REMARK       I    between atoms: O6_9  and  C6_34 
REMARK       I    between atoms: O6_9  and  S2_17 
REMARK       I    between atoms: C2_13  and  N_73 
REMARK       I    between atoms: S_16  and  O2_57 
REMARK       I    between atoms: C1_20  and  O4_43 
REMARK       I    between atoms: C6_21  and  C5_67 
REMARK       I    between atoms: C6_21  and  O6_75 
REMARK       I    between atoms: N_22  and  C2_66 
REMARK       I    between atoms: N_22  and  S1_69 
REMARK       I    between atoms: S2_23  and  O6_75 
REMARK       I    between atoms: C1_24  and  O4_78 
REMARK       I    between atoms: C4_25  and  O4_78 
REMARK       I    between atoms: O3_26  and  C3_81 
REMARK       I    between atoms: O1S_27  and  S1_60 
REMARK       I    between atoms: O3S_28  and  S1_69 
REMARK       I    between atoms: O3_29  and  C3_87 
REMARK       I    between atoms: C6_30  and  C5_80 
REMARK       I    between atoms: O2S_32  and  S1_60 
REMARK       I    between atoms: S1_33  and  N_73 
REMARK       I    between atoms: S1_33  and  O2S_94 
REMARK       I    between atoms: S1_33  and  O3S_35 
REMARK       I    between atoms: C6_34  and  C5_38 
REMARK       I    between atoms: C2_36  and  O2_93 
REMARK       I    between atoms: O3_37  and  C3_65 
REMARK       I    between atoms: C1_40  and  O1_105 
REMARK       I    between atoms: O2S_41  and  S1_69 
REMARK       I    between atoms: C5_42  and  C6_54 
REMARK       I    between atoms: O4_43  and  C4_92 
REMARK       I    between atoms: O1_44  and  C1_62 
REMARK       I    between atoms: O1_44  and  C4_83 
REMARK       I    between atoms: C1_45  and  O4_102 
REMARK       I    between atoms: C4_46  and  O1_105 
REMARK       I    between atoms: O3S_47  and  S1_60 
REMARK       I    between atoms: C5_53  and  C6_61 
REMARK       I    between atoms: C6_54  and  O6_98 
REMARK       I    between atoms: O3_56  and  C3_84 
REMARK       I    between atoms: C5_59  and  C6_63 
REMARK       I    between atoms: S1_60  and  N_86 
REMARK       I    between atoms: S1_69  and  O1S_91 
REMARK       I    between atoms: O1_70  and  C1_96 
REMARK       I    between atoms: S_82  and  O2_93 
REMARK       I    between atoms: N_86  and  C2_90 
REMARK       I    between atoms: S2_95  and  O6_98 
REMARK       I    between atoms: C4_100  and  O4_102 
ROOT
ATOM      1  S   IDS d 303      79.924  19.336 105.372  0.00  0.00     0.252 S 
ATOM      2  O2  IDS d 303      80.749  18.787 103.926  0.00  0.00    -0.244 OA
ATOM      3  O61 IDS d 303      85.111  17.761 100.381  0.00  0.00    -0.646 OA
ATOM      4  O3  IDS d 303      81.273  20.432 100.815  0.00  0.00    -0.390 OA
ATOM      5  O3S IDS d 303      78.895  20.250 104.940  0.00  0.00    -0.572 OA
ATOM      6  C1  IDS d 303      82.691  20.154 103.596  0.00  0.00     0.161 C 
ATOM      7  C4  IDS d 303      82.142  18.228 101.320  0.00  0.00     0.103 C 
ATOM      8  O2S IDS d 303      79.378  18.190 106.045  0.00  0.00    -0.572 OA
ATOM      9  C3  IDS d 303      81.138  19.353 101.663  0.00  0.00     0.094 C 
ATOM     10  C5  IDS d 303      83.507  18.607 101.890  0.00  0.00     0.152 C 
ATOM     11  C6  IDS d 303      84.576  17.633 101.484  0.00  0.00     0.206 C 
ATOM     12  O62 IDS d 303      85.000  16.881 102.383  0.00  0.00    -0.646 OA
ATOM     13  O5  IDS d 303      83.603  19.140 103.198  0.00  0.00    -0.340 OA
ATOM     14  C2  IDS d 303      81.263  19.805 103.128  0.00  0.00     0.134 C 
ATOM     15  O1S IDS d 303      80.888  19.986 106.197  0.00  0.00    -0.572 OA
ATOM     16  H   IDS d 303      81.192  20.134  99.895  0.00  0.00     0.210 HD
ATOM     17  H   IDS d 303      82.745  20.181 104.664  0.00  0.00     0.133 H 
ATOM     18  H   IDS d 303      82.159  18.100 100.257  0.00  0.00     0.092 H 
ATOM     19  H   IDS d 303      80.160  18.941 101.526  0.00  0.00     0.091 H 
ATOM     20  H   IDS d 303      83.709  19.531 101.391  0.00  0.00     0.104 H 
ATOM     21  H   IDS d 303      80.717  20.721 103.216  0.00  0.00     0.097 H 
ATOM     22  C3  SGN d 306      83.398  31.337 105.520  0.00  0.00     0.083 C 
ATOM     23  O1S SGN d 306      83.377  31.057 109.192  0.00  0.00    -0.296 OA
ATOM     24  O4S SGN d 306      77.558  29.805 101.419  0.00  0.00    -0.572 OA
ATOM     25  O5S SGN d 306      79.131  28.047 101.582  0.00  0.00    -0.572 OA
ATOM     26  C2  SGN d 306      82.252  31.812 106.400  0.00  0.00     0.081 C 
ATOM     27  O5  SGN d 306      80.752  31.683 104.499  0.00  0.00    -0.350 OA
ATOM     28  C6  SGN d 306      81.210  30.371 102.510  0.00  0.00     0.067 C 
ATOM     29  S2  SGN d 306      78.950  29.456 101.372  0.00  0.00     0.251 S 
ATOM     30  S1  SGN d 306      82.852  32.386 109.005  0.00  0.00     0.156 S 
ATOM     31  O3S SGN d 306      83.672  33.347 109.700  0.00  0.00    -0.296 OA
ATOM     32  O4  SGN d 306      83.918  29.948 103.612  0.00  0.00    -0.348 OA
ATOM     33  O3  SGN d 306      84.345  30.665 106.329  0.00  0.00    -0.391 OA
ATOM     34  O6S SGN d 306      79.530  29.840 100.111  0.00  0.00    -0.572 OA
ATOM     35  C5  SGN d 306      81.817  31.214 103.618  0.00  0.00     0.091 C 
ATOM     36  O1  SGN d 306      81.679  33.782 105.125  0.00  0.00    -0.369 OA
ATOM     37  N   SGN d 306      82.830  32.778 107.292  0.00  0.00    -0.210 NA
ATOM     38  O6  SGN d 306      79.808  30.298 102.651  0.00  0.00    -0.254 OA
ATOM     39  C4  SGN d 306      82.835  30.400 104.446  0.00  0.00     0.095 C 
ATOM     40  O2S SGN d 306      81.500  32.461 109.465  0.00  0.00    -0.296 OA
ATOM     41  C1  SGN d 306      81.166  32.538 105.589  0.00  0.00     0.147 C 
ATOM     42  H   SGN d 306      83.880  32.164 105.040  0.00  0.00     0.089 H 
ATOM     43  H   SGN d 306      82.819  30.419 108.721  0.00  0.00     0.231 HD
ATOM     44  H   SGN d 306      81.798  30.973 106.888  0.00  0.00     0.076 H 
ATOM     45  H   SGN d 306      81.619  29.384 102.555  0.00  0.00     0.080 H 
ATOM     46  H   SGN d 306      81.438  30.825 101.568  0.00  0.00     0.080 H 
ATOM     47  H   SGN d 306      84.585  33.285 109.379  0.00  0.00     0.231 HD
ATOM     48  H   SGN d 306      83.919  29.913 106.768  0.00  0.00     0.210 HD
ATOM     49  H   SGN d 306      82.329  32.041 103.171  0.00  0.00     0.090 H 
ATOM     50  H   SGN d 306      81.944  34.326 105.884  0.00  0.00     0.212 HD
ATOM     51  H   SGN d 306      82.306  33.646 107.183  0.00  0.00     0.140 HD
ATOM     52  H   SGN d 306      82.357  29.545 104.876  0.00  0.00     0.091 H 
ATOM     53  H   SGN d 306      80.961  31.809 108.990  0.00  0.00     0.231 HD
ATOM     54  H   SGN d 306      80.310  32.746 106.197  0.00  0.00     0.131 H 
ATOM     55  C2  UAP d 301      84.638  10.921 102.295  0.00  0.00     0.132 C 
ATOM     56  S   UAP d 301      85.418   9.146 100.530  0.00  0.00     0.252 S 
ATOM     57  O1S UAP d 301      85.999   7.875 100.729  0.00  0.00    -0.572 OA
ATOM     58  C1  UAP d 301      83.227  11.439 102.487  0.00  0.00     0.161 C 
ATOM     59  O61 UAP d 301      83.651  10.577 107.252  0.00  0.00    -0.646 OA
ATOM     60  C5  UAP d 301      83.521  10.993 104.886  0.00  0.00     0.127 C 
ATOM     61  O3  UAP d 301      86.299  12.321 103.213  0.00  0.00    -0.393 OA
ATOM     62  O2  UAP d 301      84.592   9.566 102.004  0.00  0.00    -0.244 OA
ATOM     63  O5  UAP d 301      82.682  11.062 103.747  0.00  0.00    -0.343 OA
ATOM     64  C6  UAP d 301      82.916  10.684 106.250  0.00  0.00     0.203 C 
ATOM     65  O62 UAP d 301      81.677  10.519 106.279  0.00  0.00    -0.646 OA
ATOM     66  O3S UAP d 301      84.411   9.107  99.515  0.00  0.00    -0.572 OA
ATOM     67  O2S UAP d 301      86.443  10.120 100.247  0.00  0.00    -0.572 OA
ATOM     68  C3  UAP d 301      85.652  11.107 103.434  0.00  0.00     0.069 C 
ATOM     69  C4  UAP d 301      85.048  11.080 104.866  0.00  0.00    -0.005 C 
ATOM     70  H   UAP d 301      85.003  11.539 101.502  0.00  0.00     0.097 H 
ATOM     71  H   UAP d 301      82.559  11.025 101.761  0.00  0.00     0.133 H 
ATOM     72  H   UAP d 301      83.448  11.825 104.218  0.00  0.00     0.100 H 
ATOM     73  H   UAP d 301      86.673  12.330 102.318  0.00  0.00     0.210 HD
ATOM     74  H   UAP d 301      86.318  10.270 103.410  0.00  0.00     0.087 H 
ATOM     75  H   UAP d 301      85.442  10.229 105.383  0.00  0.00     0.041 H 
ATOM     76  H   UAP d 301      85.316  12.003 105.337  0.00  0.00     0.041 H 
ATOM     77  O5  IDS d 305      83.834  27.602 104.178  0.00  0.00    -0.340 OA
ATOM     78  O62 IDS d 305      83.728  25.782 106.267  0.00  0.00    -0.646 OA
ATOM     79  C1  IDS d 305      83.932  28.591 103.151  0.00  0.00     0.161 C 
ATOM     80  O3  IDS d 305      87.354  28.424 103.125  0.00  0.00    -0.390 OA
ATOM     81  C6  IDS d 305      84.875  26.195 105.982  0.00  0.00     0.206 C 
ATOM     82  C2  IDS d 305      85.165  28.386 102.230  0.00  0.00     0.134 C 
ATOM     83  C5  IDS d 305      85.003  27.025 104.704  0.00  0.00     0.152 C 
ATOM     84  C3  IDS d 305      86.384  27.560 102.682  0.00  0.00     0.094 C 
ATOM     85  S   IDS d 305      83.885  27.002 100.228  0.00  0.00     0.252 S 
ATOM     86  C4  IDS d 305      86.075  26.502 103.759  0.00  0.00     0.103 C 
ATOM     87  O3S IDS d 305      83.721  27.231  98.839  0.00  0.00    -0.572 OA
ATOM     88  O1S IDS d 305      82.626  27.050 100.880  0.00  0.00    -0.572 OA
ATOM     89  O2  IDS d 305      84.903  28.319 100.835  0.00  0.00    -0.244 OA
ATOM     90  O61 IDS d 305      85.906  25.771 106.532  0.00  0.00    -0.646 OA
ATOM     91  O2S IDS d 305      84.528  25.762 100.470  0.00  0.00    -0.572 OA
ATOM     92  H   IDS d 305      83.034  28.436 102.589  0.00  0.00     0.133 H 
ATOM     93  H   IDS d 305      87.538  29.084 102.437  0.00  0.00     0.210 HD
ATOM     94  H   IDS d 305      85.567  29.357 102.435  0.00  0.00     0.097 H 
ATOM     95  H   IDS d 305      85.416  27.960 105.019  0.00  0.00     0.104 H 
ATOM     96  H   IDS d 305      86.717  27.001 101.833  0.00  0.00     0.091 H 
ATOM     97  H   IDS d 305      86.980  26.298 104.292  0.00  0.00     0.092 H 
ATOM     98  O6  SGN d 304      85.044  21.126 105.878  0.00  0.00    -0.254 OA
ATOM     99  S2  SGN d 304      84.848  20.085 107.269  0.00  0.00     0.251 S 
ATOM    100  O5S SGN d 304      85.684  18.929 107.073  0.00  0.00    -0.572 OA
ATOM    101  N   SGN d 304      86.407  23.988 100.955  0.00  0.00    -0.210 NA
ATOM    102  O3S SGN d 304      88.768  23.268 100.131  0.00  0.00    -0.296 OA
ATOM    103  C6  SGN d 304      84.171  22.246 105.755  0.00  0.00     0.067 C 
ATOM    104  O3  SGN d 304      84.664  21.799 100.871  0.00  0.00    -0.391 OA
ATOM    105  C5  SGN d 304      84.496  22.910 104.440  0.00  0.00     0.091 C 
ATOM    106  O2S SGN d 304      87.942  25.327  99.405  0.00  0.00    -0.296 OA
ATOM    107  O1  SGN d 304      85.578  25.302 103.154  0.00  0.00    -0.348 OA
ATOM    108  O4S SGN d 304      85.250  20.795 108.444  0.00  0.00    -0.572 OA
ATOM    109  C1  SGN d 304      86.328  24.101 103.357  0.00  0.00     0.150 C 
ATOM    110  C3  SGN d 304      84.746  22.663 101.988  0.00  0.00     0.083 C 
ATOM    111  C2  SGN d 304      86.183  23.175 102.125  0.00  0.00     0.081 C 
ATOM    112  S1  SGN d 304      88.048  24.440 100.513  0.00  0.00     0.156 S 
ATOM    113  O6S SGN d 304      83.460  19.691 107.349  0.00  0.00    -0.572 OA
ATOM    114  O1S SGN d 304      88.712  25.083 101.611  0.00  0.00    -0.296 OA
ATOM    115  O5  SGN d 304      85.865  23.388 104.518  0.00  0.00    -0.349 OA
ATOM    116  C4  SGN d 304      84.380  21.917 103.265  0.00  0.00     0.095 C 
ATOM    117  O4  SGN d 304      83.028  21.451 103.140  0.00  0.00    -0.348 OA
ATOM    118  H   SGN d 304      85.888  24.856 101.093  0.00  0.00     0.140 HD
ATOM    119  H   SGN d 304      88.315  22.838  99.389  0.00  0.00     0.231 HD
ATOM    120  H   SGN d 304      84.333  22.930 106.562  0.00  0.00     0.080 H 
ATOM    121  H   SGN d 304      83.147  21.939 105.786  0.00  0.00     0.080 H 
ATOM    122  H   SGN d 304      84.899  22.287 100.067  0.00  0.00     0.210 HD
ATOM    123  H   SGN d 304      83.806  23.710 104.267  0.00  0.00     0.090 H 
ATOM    124  H   SGN d 304      87.491  24.878  98.673  0.00  0.00     0.231 HD
ATOM    125  H   SGN d 304      87.353  24.378 103.500  0.00  0.00     0.131 H 
ATOM    126  H   SGN d 304      84.066  23.476 101.841  0.00  0.00     0.089 H 
ATOM    127  H   SGN d 304      86.866  22.358 102.229  0.00  0.00     0.076 H 
ATOM    128  H   SGN d 304      88.776  24.465 102.356  0.00  0.00     0.231 HD
ATOM    129  H   SGN d 304      85.026  21.081 103.435  0.00  0.00     0.091 H 
ATOM    130  O5S SGN d 302      83.215  13.551  95.928  0.00  0.00    -0.572 OA
ATOM    131  C4  SGN d 302      82.262  13.548 101.852  0.00  0.00     0.095 C 
ATOM    132  O1S SGN d 302      77.974  14.933 104.967  0.00  0.00    -0.296 OA
ATOM    133  O3  SGN d 302      81.080  13.401 103.930  0.00  0.00    -0.391 OA
ATOM    134  O2S SGN d 302      77.550  14.968 102.642  0.00  0.00    -0.296 OA
ATOM    135  C1  SGN d 302      80.951  16.068 101.290  0.00  0.00     0.150 C 
ATOM    136  C5  SGN d 302      82.800  14.533 100.824  0.00  0.00     0.091 C 
ATOM    137  O3S SGN d 302      77.506  16.976 103.854  0.00  0.00    -0.296 OA
ATOM    138  O5  SGN d 302      81.698  15.317 100.296  0.00  0.00    -0.349 OA
ATOM    139  C6  SGN d 302      83.509  13.770  99.713  0.00  0.00     0.067 C 
ATOM    140  S1  SGN d 302      78.126  15.679 103.742  0.00  0.00     0.156 S 
ATOM    141  O4S SGN d 302      84.358  15.395  96.864  0.00  0.00    -0.572 OA
ATOM    142  O6S SGN d 302      85.076  13.183  97.310  0.00  0.00    -0.572 OA
ATOM    143  O4  SGN d 302      83.338  12.829 102.380  0.00  0.00    -0.348 OA
ATOM    144  N   SGN d 302      79.850  15.872 103.398  0.00  0.00    -0.210 NA
ATOM    145  C3  SGN d 302      81.580  14.313 102.969  0.00  0.00     0.083 C 
ATOM    146  C2  SGN d 302      80.430  15.082 102.339  0.00  0.00     0.081 C 
ATOM    147  S2  SGN d 302      83.939  14.037  97.070  0.00  0.00     0.251 S 
ATOM    148  O6  SGN d 302      82.877  13.969  98.468  0.00  0.00    -0.254 OA
ATOM    149  O1  SGN d 302      81.767  17.014 101.980  0.00  0.00    -0.348 OA
ATOM    150  H   SGN d 302      81.560  12.884 101.394  0.00  0.00     0.091 H 
ATOM    151  H   SGN d 302      77.031  14.823 105.163  0.00  0.00     0.231 HD
ATOM    152  H   SGN d 302      81.818  12.914 104.328  0.00  0.00     0.210 HD
ATOM    153  H   SGN d 302      76.600  14.844 102.799  0.00  0.00     0.231 HD
ATOM    154  H   SGN d 302      80.169  16.591 100.781  0.00  0.00     0.131 H 
ATOM    155  H   SGN d 302      83.506  15.195 101.279  0.00  0.00     0.090 H 
ATOM    156  H   SGN d 302      76.561  16.867 104.043  0.00  0.00     0.231 HD
ATOM    157  H   SGN d 302      83.498  12.726  99.946  0.00  0.00     0.080 H 
ATOM    158  H   SGN d 302      84.512  14.133  99.643  0.00  0.00     0.080 H 
ATOM    159  H   SGN d 302      80.356  15.647 104.254  0.00  0.00     0.140 HD
ATOM    160  H   SGN d 302      82.262  14.978 103.457  0.00  0.00     0.089 H 
ATOM    161  H   SGN d 302      79.741  14.403 101.880  0.00  0.00     0.076 H 
ENDROOT
TORSDOF 50
ENDMDL
MODEL 18
REMARK VINA RESULT:     -10.9      4.575     15.423
REMARK  0 active torsions:
REMARK  status: ('A' for Active; 'I' for Inactive)
REMARK       I    between atoms: S_1  and  O2_2 
REMARK       I    between atoms: O2_2  and  C2_99 
REMARK       I    between atoms: C3_3  and  O3_50 
REMARK       I    between atoms: C2_5  and  O2_57 
REMARK       I    between atoms: O1S_6  and  S1_33 
REMARK       I    between atoms: O3_7  and  C3_52 
REMARK       I    between atoms: O6_9  and  C6_34 
REMARK       I    between atoms: O6_9  and  S2_17 
REMARK       I    between atoms: C2_13  and  N_73 
REMARK       I    between atoms: S_16  and  O2_57 
REMARK       I    between atoms: C1_20  and  O4_43 
REMARK       I    between atoms: C6_21  and  C5_67 
REMARK       I    between atoms: C6_21  and  O6_75 
REMARK       I    between atoms: N_22  and  C2_66 
REMARK       I    between atoms: N_22  and  S1_69 
REMARK       I    between atoms: S2_23  and  O6_75 
REMARK       I    between atoms: C1_24  and  O4_78 
REMARK       I    between atoms: C4_25  and  O4_78 
REMARK       I    between atoms: O3_26  and  C3_81 
REMARK       I    between atoms: O1S_27  and  S1_60 
REMARK       I    between atoms: O3S_28  and  S1_69 
REMARK       I    between atoms: O3_29  and  C3_87 
REMARK       I    between atoms: C6_30  and  C5_80 
REMARK       I    between atoms: O2S_32  and  S1_60 
REMARK       I    between atoms: S1_33  and  N_73 
REMARK       I    between atoms: S1_33  and  O2S_94 
REMARK       I    between atoms: S1_33  and  O3S_35 
REMARK       I    between atoms: C6_34  and  C5_38 
REMARK       I    between atoms: C2_36  and  O2_93 
REMARK       I    between atoms: O3_37  and  C3_65 
REMARK       I    between atoms: C1_40  and  O1_105 
REMARK       I    between atoms: O2S_41  and  S1_69 
REMARK       I    between atoms: C5_42  and  C6_54 
REMARK       I    between atoms: O4_43  and  C4_92 
REMARK       I    between atoms: O1_44  and  C1_62 
REMARK       I    between atoms: O1_44  and  C4_83 
REMARK       I    between atoms: C1_45  and  O4_102 
REMARK       I    between atoms: C4_46  and  O1_105 
REMARK       I    between atoms: O3S_47  and  S1_60 
REMARK       I    between atoms: C5_53  and  C6_61 
REMARK       I    between atoms: C6_54  and  O6_98 
REMARK       I    between atoms: O3_56  and  C3_84 
REMARK       I    between atoms: C5_59  and  C6_63 
REMARK       I    between atoms: S1_60  and  N_86 
REMARK       I    between atoms: S1_69  and  O1S_91 
REMARK       I    between atoms: O1_70  and  C1_96 
REMARK       I    between atoms: S_82  and  O2_93 
REMARK       I    between atoms: N_86  and  C2_90 
REMARK       I    between atoms: S2_95  and  O6_98 
REMARK       I    between atoms: C4_100  and  O4_102 
ROOT
ATOM      1  S   IDS d 303      81.412  26.720  99.406  0.00  0.00     0.252 S 
ATOM      2  O2  IDS d 303      82.999  27.188  99.982  0.00  0.00    -0.244 OA
ATOM      3  O61 IDS d 303      88.627  26.815 100.898  0.00  0.00    -0.646 OA
ATOM      4  O3  IDS d 303      84.516  26.729 103.168  0.00  0.00    -0.390 OA
ATOM      5  O3S IDS d 303      80.534  26.736 100.550  0.00  0.00    -0.572 OA
ATOM      6  C1  IDS d 303      84.257  25.200 100.444  0.00  0.00     0.161 C 
ATOM      7  C4  IDS d 303      85.648  27.757 101.289  0.00  0.00     0.103 C 
ATOM      8  O2S IDS d 303      81.000  27.657  98.399  0.00  0.00    -0.572 OA
ATOM      9  C3  IDS d 303      84.314  27.330 101.943  0.00  0.00     0.094 C 
ATOM     10  C5  IDS d 303      86.297  26.525 100.665  0.00  0.00     0.152 C 
ATOM     11  C6  IDS d 303      87.667  26.823 100.125  0.00  0.00     0.206 C 
ATOM     12  O62 IDS d 303      87.771  26.852  98.883  0.00  0.00    -0.646 OA
ATOM     13  O5  IDS d 303      85.512  25.612  99.921  0.00  0.00    -0.340 OA
ATOM     14  C2  IDS d 303      83.494  26.409 101.023  0.00  0.00     0.134 C 
ATOM     15  O1S IDS d 303      81.524  25.410  98.852  0.00  0.00    -0.572 OA
ATOM     16  H   IDS d 303      85.034  27.320 103.737  0.00  0.00     0.210 HD
ATOM     17  H   IDS d 303      83.728  24.779  99.615  0.00  0.00     0.133 H 
ATOM     18  H   IDS d 303      86.263  28.215 102.036  0.00  0.00     0.092 H 
ATOM     19  H   IDS d 303      83.750  28.227 102.100  0.00  0.00     0.091 H 
ATOM     20  H   IDS d 303      86.420  25.883 101.512  0.00  0.00     0.104 H 
ATOM     21  H   IDS d 303      82.722  25.979 101.627  0.00  0.00     0.097 H 
ATOM     22  C3  SGN d 306      80.175  15.625 105.020  0.00  0.00     0.083 C 
ATOM     23  O1S SGN d 306      78.316  14.575 102.019  0.00  0.00    -0.296 OA
ATOM     24  O4S SGN d 306      78.241  21.410 109.028  0.00  0.00    -0.572 OA
ATOM     25  O5S SGN d 306      79.962  21.833 107.462  0.00  0.00    -0.572 OA
ATOM     26  C2  SGN d 306      78.657  15.585 104.934  0.00  0.00     0.081 C 
ATOM     27  O5  SGN d 306      78.521  17.163 106.769  0.00  0.00    -0.350 OA
ATOM     28  C6  SGN d 306      80.353  18.603 107.445  0.00  0.00     0.067 C 
ATOM     29  S2  SGN d 306      79.473  20.931 108.467  0.00  0.00     0.251 S 
ATOM     30  S1  SGN d 306      77.571  13.914 103.061  0.00  0.00     0.156 S 
ATOM     31  O3S SGN d 306      77.538  12.493 102.825  0.00  0.00    -0.296 OA
ATOM     32  O4  SGN d 306      82.038  17.061 105.571  0.00  0.00    -0.348 OA
ATOM     33  O3  SGN d 306      80.711  15.339 103.742  0.00  0.00    -0.391 OA
ATOM     34  O6S SGN d 306      80.469  20.759 109.494  0.00  0.00    -0.572 OA
ATOM     35  C5  SGN d 306      79.974  17.244 106.883  0.00  0.00     0.091 C 
ATOM     36  O1  SGN d 306      78.239  14.840 107.194  0.00  0.00    -0.369 OA
ATOM     37  N   SGN d 306      78.329  14.223 104.617  0.00  0.00    -0.210 NA
ATOM     38  O6  SGN d 306      79.201  19.376 107.699  0.00  0.00    -0.254 OA
ATOM     39  C4  SGN d 306      80.601  17.020 105.490  0.00  0.00     0.095 C 
ATOM     40  O2S SGN d 306      76.241  14.437 103.136  0.00  0.00    -0.296 OA
ATOM     41  C1  SGN d 306      77.995  15.907 106.284  0.00  0.00     0.147 C 
ATOM     42  H   SGN d 306      80.538  14.899 105.716  0.00  0.00     0.089 H 
ATOM     43  H   SGN d 306      78.331  15.530 102.188  0.00  0.00     0.231 HD
ATOM     44  H   SGN d 306      78.315  16.302 104.216  0.00  0.00     0.076 H 
ATOM     45  H   SGN d 306      80.971  19.115 106.738  0.00  0.00     0.080 H 
ATOM     46  H   SGN d 306      80.881  18.459 108.364  0.00  0.00     0.080 H 
ATOM     47  H   SGN d 306      78.444  12.152 102.776  0.00  0.00     0.231 HD
ATOM     48  H   SGN d 306      80.388  15.992 103.102  0.00  0.00     0.210 HD
ATOM     49  H   SGN d 306      80.344  16.489 107.545  0.00  0.00     0.090 H 
ATOM     50  H   SGN d 306      77.872  14.017 106.834  0.00  0.00     0.212 HD
ATOM     51  H   SGN d 306      77.692  13.886 105.340  0.00  0.00     0.140 HD
ATOM     52  H   SGN d 306      80.277  17.783 104.815  0.00  0.00     0.091 H 
ATOM     53  H   SGN d 306      76.279  15.393 103.295  0.00  0.00     0.231 HD
ATOM     54  H   SGN d 306      76.935  16.005 106.176  0.00  0.00     0.131 H 
ATOM     55  C2  UAP d 301      89.464  31.621  95.713  0.00  0.00     0.132 C 
ATOM     56  S   UAP d 301      91.582  33.159  95.861  0.00  0.00     0.252 S 
ATOM     57  O1S UAP d 301      92.346  33.740  94.827  0.00  0.00    -0.572 OA
ATOM     58  C1  UAP d 301      88.086  31.931  96.261  0.00  0.00     0.161 C 
ATOM     59  O61 UAP d 301      86.189  30.701  91.958  0.00  0.00    -0.646 OA
ATOM     60  C5  UAP d 301      87.199  31.277  94.065  0.00  0.00     0.127 C 
ATOM     61  O3  UAP d 301      89.832  29.327  95.306  0.00  0.00    -0.393 OA
ATOM     62  O2  UAP d 301      90.020  32.779  95.192  0.00  0.00    -0.244 OA
ATOM     63  O5  UAP d 301      87.116  32.078  95.230  0.00  0.00    -0.343 OA
ATOM     64  C6  UAP d 301      86.105  31.370  93.008  0.00  0.00     0.203 C 
ATOM     65  O62 UAP d 301      85.169  32.163  93.251  0.00  0.00    -0.646 OA
ATOM     66  O3S UAP d 301      91.338  34.092  96.918  0.00  0.00    -0.572 OA
ATOM     67  O2S UAP d 301      92.220  31.954  96.332  0.00  0.00    -0.572 OA
ATOM     68  C3  UAP d 301      89.601  30.529  94.641  0.00  0.00     0.069 C 
ATOM     69  C4  UAP d 301      88.381  30.382  93.689  0.00  0.00    -0.005 C 
ATOM     70  H   UAP d 301      89.968  31.225  96.570  0.00  0.00     0.097 H 
ATOM     71  H   UAP d 301      88.077  32.864  96.786  0.00  0.00     0.133 H 
ATOM     72  H   UAP d 301      87.223  30.915  95.071  0.00  0.00     0.100 H 
ATOM     73  H   UAP d 301      90.594  29.426  95.898  0.00  0.00     0.210 HD
ATOM     74  H   UAP d 301      90.408  30.810  93.998  0.00  0.00     0.087 H 
ATOM     75  H   UAP d 301      88.694  30.635  92.697  0.00  0.00     0.041 H 
ATOM     76  H   UAP d 301      88.044  29.370  93.764  0.00  0.00     0.041 H 
ATOM     77  O5  IDS d 305      82.435  18.698 103.840  0.00  0.00    -0.340 OA
ATOM     78  O62 IDS d 305      81.841  19.418 101.229  0.00  0.00    -0.646 OA
ATOM     79  C1  IDS d 305      82.732  18.248 105.164  0.00  0.00     0.161 C 
ATOM     80  O3  IDS d 305      85.489  16.513 104.103  0.00  0.00    -0.390 OA
ATOM     81  C6  IDS d 305      82.759  18.575 101.350  0.00  0.00     0.206 C 
ATOM     82  C2  IDS d 305      84.252  18.050 105.407  0.00  0.00     0.134 C 
ATOM     83  C5  IDS d 305      83.263  18.316 102.771  0.00  0.00     0.152 C 
ATOM     84  C3  IDS d 305      85.240  17.855 104.241  0.00  0.00     0.094 C 
ATOM     85  S   IDS d 305      84.750  20.499 106.554  0.00  0.00     0.252 S 
ATOM     86  C4  IDS d 305      84.773  18.456 102.902  0.00  0.00     0.103 C 
ATOM     87  O3S IDS d 305      85.277  20.896 107.807  0.00  0.00    -0.572 OA
ATOM     88  O1S IDS d 305      83.401  20.925 106.438  0.00  0.00    -0.572 OA
ATOM     89  O2  IDS d 305      84.803  18.729 106.528  0.00  0.00    -0.244 OA
ATOM     90  O61 IDS d 305      83.417  18.143 100.389  0.00  0.00    -0.646 OA
ATOM     91  O2S IDS d 305      85.529  21.008 105.485  0.00  0.00    -0.572 OA
ATOM     92  H   IDS d 305      82.372  19.052 105.771  0.00  0.00     0.133 H 
ATOM     93  H   IDS d 305      85.782  16.149 104.953  0.00  0.00     0.210 HD
ATOM     94  H   IDS d 305      84.146  17.019 105.677  0.00  0.00     0.097 H 
ATOM     95  H   IDS d 305      83.119  17.268 102.931  0.00  0.00     0.104 H 
ATOM     96  H   IDS d 305      86.130  18.394 104.490  0.00  0.00     0.091 H 
ATOM     97  H   IDS d 305      85.270  17.932 102.113  0.00  0.00     0.092 H 
ATOM     98  O6  SGN d 304      84.589  22.380  98.539  0.00  0.00    -0.254 OA
ATOM     99  S2  SGN d 304      84.040  22.797  96.933  0.00  0.00     0.251 S 
ATOM    100  O5S SGN d 304      85.175  23.289  96.195  0.00  0.00    -0.572 OA
ATOM    101  N   SGN d 304      87.325  21.164 103.571  0.00  0.00    -0.210 NA
ATOM    102  O3S SGN d 304      89.848  20.708 103.125  0.00  0.00    -0.296 OA
ATOM    103  C6  SGN d 304      83.605  22.047  99.515  0.00  0.00     0.067 C 
ATOM    104  O3  SGN d 304      86.709  23.814 102.911  0.00  0.00    -0.391 OA
ATOM    105  C5  SGN d 304      84.338  21.819 100.814  0.00  0.00     0.091 C 
ATOM    106  O2S SGN d 304      88.913  19.842 105.082  0.00  0.00    -0.296 OA
ATOM    107  O1  SGN d 304      85.090  19.852 102.841  0.00  0.00    -0.348 OA
ATOM    108  O4S SGN d 304      83.507  21.628  96.303  0.00  0.00    -0.572 OA
ATOM    109  C1  SGN d 304      85.962  20.287 101.793  0.00  0.00     0.150 C 
ATOM    110  C3  SGN d 304      85.905  22.723 102.506  0.00  0.00     0.083 C 
ATOM    111  C2  SGN d 304      86.797  21.499 102.272  0.00  0.00     0.081 C 
ATOM    112  S1  SGN d 304      88.701  20.076 103.694  0.00  0.00     0.156 S 
ATOM    113  O6S SGN d 304      83.034  23.829  97.050  0.00  0.00    -0.572 OA
ATOM    114  O1S SGN d 304      88.437  18.842 103.011  0.00  0.00    -0.296 OA
ATOM    115  O5  SGN d 304      85.217  20.680 100.626  0.00  0.00    -0.349 OA
ATOM    116  C4  SGN d 304      85.186  23.048 101.202  0.00  0.00     0.095 C 
ATOM    117  O4  SGN d 304      84.341  24.185 101.428  0.00  0.00    -0.348 OA
ATOM    118  H   SGN d 304      86.564  20.739 104.101  0.00  0.00     0.140 HD
ATOM    119  H   SGN d 304      90.022  21.541 103.591  0.00  0.00     0.231 HD
ATOM    120  H   SGN d 304      83.086  21.157  99.225  0.00  0.00     0.080 H 
ATOM    121  H   SGN d 304      82.883  22.830  99.614  0.00  0.00     0.080 H 
ATOM    122  H   SGN d 304      87.159  23.592 103.742  0.00  0.00     0.210 HD
ATOM    123  H   SGN d 304      83.628  21.648 101.596  0.00  0.00     0.090 H 
ATOM    124  H   SGN d 304      89.091  20.685 105.528  0.00  0.00     0.231 HD
ATOM    125  H   SGN d 304      86.602  19.466 101.542  0.00  0.00     0.131 H 
ATOM    126  H   SGN d 304      85.185  22.526 103.272  0.00  0.00     0.089 H 
ATOM    127  H   SGN d 304      87.543  21.713 101.536  0.00  0.00     0.076 H 
ATOM    128  H   SGN d 304      88.295  19.018 102.068  0.00  0.00     0.231 HD
ATOM    129  H   SGN d 304      85.876  23.272 100.415  0.00  0.00     0.091 H 
ATOM    130  O5S SGN d 302      90.846  32.607 102.539  0.00  0.00    -0.572 OA
ATOM    131  C4  SGN d 302      86.979  31.072  98.216  0.00  0.00     0.095 C 
ATOM    132  O1S SGN d 302      81.520  31.280  97.814  0.00  0.00    -0.296 OA
ATOM    133  O3  SGN d 302      85.003  31.109  96.862  0.00  0.00    -0.391 OA
ATOM    134  O2S SGN d 302      82.399  32.293  99.759  0.00  0.00    -0.296 OA
ATOM    135  C1  SGN d 302      85.428  30.065 100.444  0.00  0.00     0.150 C 
ATOM    136  C5  SGN d 302      87.624  30.385  99.411  0.00  0.00     0.091 C 
ATOM    137  O3S SGN d 302      81.076  30.366  99.957  0.00  0.00    -0.296 OA
ATOM    138  O5  SGN d 302      86.782  30.573 100.579  0.00  0.00    -0.349 OA
ATOM    139  C6  SGN d 302      89.013  30.964  99.641  0.00  0.00     0.067 C 
ATOM    140  S1  SGN d 302      82.043  31.054  99.138  0.00  0.00     0.156 S 
ATOM    141  O4S SGN d 302      90.654  30.251 102.518  0.00  0.00    -0.572 OA
ATOM    142  O6S SGN d 302      91.700  31.389 100.723  0.00  0.00    -0.572 OA
ATOM    143  O4  SGN d 302      87.779  30.848  97.092  0.00  0.00    -0.348 OA
ATOM    144  N   SGN d 302      83.516  30.084  99.016  0.00  0.00    -0.210 NA
ATOM    145  C3  SGN d 302      85.607  30.475  97.975  0.00  0.00     0.083 C 
ATOM    146  C2  SGN d 302      84.785  30.736  99.227  0.00  0.00     0.081 C 
ATOM    147  S2  SGN d 302      90.656  31.443 101.716  0.00  0.00     0.251 S 
ATOM    148  O6  SGN d 302      89.108  31.591 100.900  0.00  0.00    -0.254 OA
ATOM    149  O1  SGN d 302      85.399  28.658 100.203  0.00  0.00    -0.348 OA
ATOM    150  H   SGN d 302      86.883  32.121  98.401  0.00  0.00     0.091 H 
ATOM    151  H   SGN d 302      80.711  31.812  97.872  0.00  0.00     0.231 HD
ATOM    152  H   SGN d 302      85.531  30.939  96.067  0.00  0.00     0.210 HD
ATOM    153  H   SGN d 302      81.610  32.852  99.842  0.00  0.00     0.231 HD
ATOM    154  H   SGN d 302      84.911  30.271 101.358  0.00  0.00     0.131 H 
ATOM    155  H   SGN d 302      87.725  29.336  99.225  0.00  0.00     0.090 H 
ATOM    156  H   SGN d 302      80.269  30.900 100.023  0.00  0.00     0.231 HD
ATOM    157  H   SGN d 302      89.220  31.685  98.877  0.00  0.00     0.080 H 
ATOM    158  H   SGN d 302      89.721  30.163  99.609  0.00  0.00     0.080 H 
ATOM    159  H   SGN d 302      83.536  29.681  98.079  0.00  0.00     0.140 HD
ATOM    160  H   SGN d 302      85.670  29.426  97.773  0.00  0.00     0.089 H 
ATOM    161  H   SGN d 302      84.706  31.790  99.401  0.00  0.00     0.076 H 
ENDROOT
TORSDOF 50
ENDMDL
MODEL 19
REMARK VINA RESULT:     -10.9      2.671     15.224
REMARK  0 active torsions:
REMARK  status: ('A' for Active; 'I' for Inactive)
REMARK       I    between atoms: S_1  and  O2_2 
REMARK       I    between atoms: O2_2  and  C2_99 
REMARK       I    between atoms: C3_3  and  O3_50 
REMARK       I    between atoms: C2_5  and  O2_57 
REMARK       I    between atoms: O1S_6  and  S1_33 
REMARK       I    between atoms: O3_7  and  C3_52 
REMARK       I    between atoms: O6_9  and  C6_34 
REMARK       I    between atoms: O6_9  and  S2_17 
REMARK       I    between atoms: C2_13  and  N_73 
REMARK       I    between atoms: S_16  and  O2_57 
REMARK       I    between atoms: C1_20  and  O4_43 
REMARK       I    between atoms: C6_21  and  C5_67 
REMARK       I    between atoms: C6_21  and  O6_75 
REMARK       I    between atoms: N_22  and  C2_66 
REMARK       I    between atoms: N_22  and  S1_69 
REMARK       I    between atoms: S2_23  and  O6_75 
REMARK       I    between atoms: C1_24  and  O4_78 
REMARK       I    between atoms: C4_25  and  O4_78 
REMARK       I    between atoms: O3_26  and  C3_81 
REMARK       I    between atoms: O1S_27  and  S1_60 
REMARK       I    between atoms: O3S_28  and  S1_69 
REMARK       I    between atoms: O3_29  and  C3_87 
REMARK       I    between atoms: C6_30  and  C5_80 
REMARK       I    between atoms: O2S_32  and  S1_60 
REMARK       I    between atoms: S1_33  and  N_73 
REMARK       I    between atoms: S1_33  and  O2S_94 
REMARK       I    between atoms: S1_33  and  O3S_35 
REMARK       I    between atoms: C6_34  and  C5_38 
REMARK       I    between atoms: C2_36  and  O2_93 
REMARK       I    between atoms: O3_37  and  C3_65 
REMARK       I    between atoms: C1_40  and  O1_105 
REMARK       I    between atoms: O2S_41  and  S1_69 
REMARK       I    between atoms: C5_42  and  C6_54 
REMARK       I    between atoms: O4_43  and  C4_92 
REMARK       I    between atoms: O1_44  and  C1_62 
REMARK       I    between atoms: O1_44  and  C4_83 
REMARK       I    between atoms: C1_45  and  O4_102 
REMARK       I    between atoms: C4_46  and  O1_105 
REMARK       I    between atoms: O3S_47  and  S1_60 
REMARK       I    between atoms: C5_53  and  C6_61 
REMARK       I    between atoms: C6_54  and  O6_98 
REMARK       I    between atoms: O3_56  and  C3_84 
REMARK       I    between atoms: C5_59  and  C6_63 
REMARK       I    between atoms: S1_60  and  N_86 
REMARK       I    between atoms: S1_69  and  O1S_91 
REMARK       I    between atoms: O1_70  and  C1_96 
REMARK       I    between atoms: S_82  and  O2_93 
REMARK       I    between atoms: N_86  and  C2_90 
REMARK       I    between atoms: S2_95  and  O6_98 
REMARK       I    between atoms: C4_100  and  O4_102 
ROOT
ATOM      1  S   IDS d 303      85.942  21.449 106.229  0.00  0.00     0.252 S 
ATOM      2  O2  IDS d 303      85.692  22.231 104.680  0.00  0.00    -0.244 OA
ATOM      3  O61 IDS d 303      82.891  24.947 100.506  0.00  0.00    -0.646 OA
ATOM      4  O3  IDS d 303      84.931  20.835 101.497  0.00  0.00    -0.390 OA
ATOM      5  O3S IDS d 303      86.477  20.139 105.951  0.00  0.00    -0.572 OA
ATOM      6  C1  IDS d 303      83.410  21.901 104.022  0.00  0.00     0.161 C 
ATOM      7  C4  IDS d 303      85.124  23.216 101.896  0.00  0.00     0.103 C 
ATOM      8  O2S IDS d 303      86.852  22.250 107.000  0.00  0.00    -0.572 OA
ATOM      9  C3  IDS d 303      85.425  21.778 102.375  0.00  0.00     0.094 C 
ATOM     10  C5  IDS d 303      83.673  23.546 102.236  0.00  0.00     0.152 C 
ATOM     11  C6  IDS d 303      83.254  24.878 101.682  0.00  0.00     0.206 C 
ATOM     12  O62 IDS d 303      83.101  25.793 102.515  0.00  0.00    -0.646 OA
ATOM     13  O5  IDS d 303      83.146  23.196 103.502  0.00  0.00    -0.340 OA
ATOM     14  C2  IDS d 303      84.888  21.522 103.794  0.00  0.00     0.134 C 
ATOM     15  O1S IDS d 303      84.674  21.368 106.879  0.00  0.00    -0.572 OA
ATOM     16  H   IDS d 303      85.277  21.008 100.608  0.00  0.00     0.210 HD
ATOM     17  H   IDS d 303      83.192  21.965 105.068  0.00  0.00     0.133 H 
ATOM     18  H   IDS d 303      85.327  23.276 100.847  0.00  0.00     0.092 H 
ATOM     19  H   IDS d 303      86.491  21.682 102.403  0.00  0.00     0.091 H 
ATOM     20  H   IDS d 303      83.140  22.793 101.695  0.00  0.00     0.104 H 
ATOM     21  H   IDS d 303      84.924  20.463 103.951  0.00  0.00     0.097 H 
ATOM     22  C3  SGN d 306      77.298  12.447 105.615  0.00  0.00     0.083 C 
ATOM     23  O1S SGN d 306      76.901  12.902 109.248  0.00  0.00    -0.296 OA
ATOM     24  O4S SGN d 306      83.715  10.861 102.521  0.00  0.00    -0.572 OA
ATOM     25  O5S SGN d 306      83.138  13.153 102.462  0.00  0.00    -0.572 OA
ATOM     26  C2  SGN d 306      77.946  11.549 106.658  0.00  0.00     0.081 C 
ATOM     27  O5  SGN d 306      79.596  10.858 105.022  0.00  0.00    -0.350 OA
ATOM     28  C6  SGN d 306      80.104  12.113 103.008  0.00  0.00     0.067 C 
ATOM     29  S2  SGN d 306      82.671  11.810 102.260  0.00  0.00     0.251 S 
ATOM     30  S1  SGN d 306      76.768  11.472 109.124  0.00  0.00     0.156 S 
ATOM     31  O3S SGN d 306      75.502  11.041 109.663  0.00  0.00    -0.296 OA
ATOM     32  O4  SGN d 306      77.775  13.804 103.673  0.00  0.00    -0.348 OA
ATOM     33  O3  SGN d 306      76.665  13.527 106.275  0.00  0.00    -0.391 OA
ATOM     34  O6S SGN d 306      82.172  11.665 100.916  0.00  0.00    -0.572 OA
ATOM     35  C5  SGN d 306      79.017  11.713 103.991  0.00  0.00     0.091 C 
ATOM     36  O1  SGN d 306      77.717   9.465 105.456  0.00  0.00    -0.369 OA
ATOM     37  N   SGN d 306      76.859  11.014 107.429  0.00  0.00    -0.210 NA
ATOM     38  O6  SGN d 306      81.339  11.537 103.372  0.00  0.00    -0.254 OA
ATOM     39  C4  SGN d 306      78.385  12.952 104.661  0.00  0.00     0.095 C 
ATOM     40  O2S SGN d 306      77.844  10.807 109.792  0.00  0.00    -0.296 OA
ATOM     41  C1  SGN d 306      78.675  10.357 106.017  0.00  0.00     0.147 C 
ATOM     42  H   SGN d 306      76.564  11.910 105.051  0.00  0.00     0.089 H 
ATOM     43  H   SGN d 306      77.756  13.180 108.883  0.00  0.00     0.231 HD
ATOM     44  H   SGN d 306      78.660  12.109 107.226  0.00  0.00     0.076 H 
ATOM     45  H   SGN d 306      80.200  13.178 103.005  0.00  0.00     0.080 H 
ATOM     46  H   SGN d 306      79.833  11.761 102.034  0.00  0.00     0.080 H 
ATOM     47  H   SGN d 306      74.782  11.499 109.202  0.00  0.00     0.231 HD
ATOM     48  H   SGN d 306      77.322  14.021 106.790  0.00  0.00     0.210 HD
ATOM     49  H   SGN d 306      78.251  11.192 103.454  0.00  0.00     0.090 H 
ATOM     50  H   SGN d 306      77.120   9.152 106.153  0.00  0.00     0.212 HD
ATOM     51  H   SGN d 306      76.928   9.997 107.390  0.00  0.00     0.140 HD
ATOM     52  H   SGN d 306      79.136  13.513 105.176  0.00  0.00     0.091 H 
ATOM     53  H   SGN d 306      78.689  11.106 109.420  0.00  0.00     0.231 HD
ATOM     54  H   SGN d 306      79.235   9.812 106.749  0.00  0.00     0.131 H 
ATOM     55  C2  UAP d 301      86.206  30.892 102.589  0.00  0.00     0.132 C 
ATOM     56  S   UAP d 301      86.615  32.720 100.754  0.00  0.00     0.252 S 
ATOM     57  O1S UAP d 301      86.670  34.125 100.880  0.00  0.00    -0.572 OA
ATOM     58  C1  UAP d 301      87.167  29.794 102.994  0.00  0.00     0.161 C 
ATOM     59  O61 UAP d 301      86.491  31.032 107.646  0.00  0.00    -0.646 OA
ATOM     60  C5  UAP d 301      86.762  30.465 105.323  0.00  0.00     0.127 C 
ATOM     61  O3  UAP d 301      83.969  30.476 103.208  0.00  0.00    -0.393 OA
ATOM     62  O2  UAP d 301      86.921  32.053 102.333  0.00  0.00    -0.244 OA
ATOM     63  O5  UAP d 301      87.631  29.949 104.331  0.00  0.00    -0.343 OA
ATOM     64  C6  UAP d 301      87.232  30.539 106.771  0.00  0.00     0.203 C 
ATOM     65  O62 UAP d 301      88.385  30.114 106.999  0.00  0.00    -0.646 OA
ATOM     66  O3S UAP d 301      87.662  32.229  99.913  0.00  0.00    -0.572 OA
ATOM     67  O2S UAP d 301      85.308  32.315 100.296  0.00  0.00    -0.572 OA
ATOM     68  C3  UAP d 301      85.066  31.264 103.550  0.00  0.00     0.069 C 
ATOM     69  C4  UAP d 301      85.392  31.093 105.060  0.00  0.00    -0.005 C 
ATOM     70  H   UAP d 301      85.717  30.468 101.738  0.00  0.00     0.097 H 
ATOM     71  H   UAP d 301      88.051  29.807 102.391  0.00  0.00     0.133 H 
ATOM     72  H   UAP d 301      86.537  29.656 104.661  0.00  0.00     0.100 H 
ATOM     73  H   UAP d 301      83.771  30.588 102.265  0.00  0.00     0.210 HD
ATOM     74  H   UAP d 301      84.878  32.311 103.434  0.00  0.00     0.087 H 
ATOM     75  H   UAP d 301      85.368  32.058 105.522  0.00  0.00     0.041 H 
ATOM     76  H   UAP d 301      84.659  30.428 105.466  0.00  0.00     0.041 H 
ATOM     77  O5  IDS d 305      78.857  15.874 104.286  0.00  0.00    -0.340 OA
ATOM     78  O62 IDS d 305      79.487  17.558 106.397  0.00  0.00    -0.646 OA
ATOM     79  C1  IDS d 305      78.464  14.984 103.239  0.00  0.00     0.161 C 
ATOM     80  O3  IDS d 305      75.560  16.712 102.673  0.00  0.00    -0.390 OA
ATOM     81  C6  IDS d 305      78.337  17.707 105.926  0.00  0.00     0.206 C 
ATOM     82  C2  IDS d 305      77.620  15.681 102.139  0.00  0.00     0.134 C 
ATOM     83  C5  IDS d 305      78.028  16.956 104.630  0.00  0.00     0.152 C 
ATOM     84  C3  IDS d 305      76.874  17.002 102.406  0.00  0.00     0.094 C 
ATOM     85  S   IDS d 305      79.678  16.196 100.389  0.00  0.00     0.252 S 
ATOM     86  C4  IDS d 305      77.477  17.859 103.536  0.00  0.00     0.103 C 
ATOM     87  O3S IDS d 305      79.921  15.836  99.040  0.00  0.00    -0.572 OA
ATOM     88  O1S IDS d 305      80.658  15.610 101.232  0.00  0.00    -0.572 OA
ATOM     89  O2  IDS d 305      78.087  15.538 100.804  0.00  0.00    -0.244 OA
ATOM     90  O61 IDS d 305      77.553  18.590 106.313  0.00  0.00    -0.646 OA
ATOM     91  O2S IDS d 305      79.659  17.605 100.547  0.00  0.00    -0.572 OA
ATOM     92  H   IDS d 305      79.402  14.673 102.830  0.00  0.00     0.133 H 
ATOM     93  H   IDS d 305      75.194  16.173 101.954  0.00  0.00     0.210 HD
ATOM     94  H   IDS d 305      76.787  15.020 102.260  0.00  0.00     0.097 H 
ATOM     95  H   IDS d 305      77.185  16.338 104.859  0.00  0.00     0.104 H 
ATOM     96  H   IDS d 305      76.970  17.601 101.524  0.00  0.00     0.091 H 
ATOM     97  H   IDS d 305      76.703  18.489 103.921  0.00  0.00     0.092 H 
ATOM     98  O6  SGN d 304      80.566  22.263 105.885  0.00  0.00    -0.254 OA
ATOM     99  S2  SGN d 304      81.015  23.175 107.307  0.00  0.00     0.251 S 
ATOM    100  O5S SGN d 304      80.854  24.573 107.001  0.00  0.00    -0.572 OA
ATOM    101  N   SGN d 304      78.775  20.071 100.759  0.00  0.00    -0.210 NA
ATOM    102  O3S SGN d 304      77.173  21.752  99.583  0.00  0.00    -0.296 OA
ATOM    103  C6  SGN d 304      80.824  20.861 105.882  0.00  0.00     0.067 C 
ATOM    104  O3  SGN d 304      81.327  21.198 100.991  0.00  0.00    -0.391 OA
ATOM    105  C5  SGN d 304      80.426  20.347 104.521  0.00  0.00     0.091 C 
ATOM    106  O2S SGN d 304      77.042  19.505  98.962  0.00  0.00    -0.296 OA
ATOM    107  O1  SGN d 304      78.559  18.655 103.038  0.00  0.00    -0.348 OA
ATOM    108  O4S SGN d 304      80.159  22.802 108.391  0.00  0.00    -0.572 OA
ATOM    109  C1  SGN d 304      78.434  20.077 103.140  0.00  0.00     0.150 C 
ATOM    110  C3  SGN d 304      80.688  20.536 102.065  0.00  0.00     0.083 C 
ATOM    111  C2  SGN d 304      79.175  20.756 101.963  0.00  0.00     0.081 C 
ATOM    112  S1  SGN d 304      77.198  20.405 100.054  0.00  0.00     0.156 S 
ATOM    113  O6S SGN d 304      82.398  22.886 107.614  0.00  0.00    -0.572 OA
ATOM    114  O1S SGN d 304      76.157  20.208 101.021  0.00  0.00    -0.296 OA
ATOM    115  O5  SGN d 304      78.998  20.562 104.373  0.00  0.00    -0.349 OA
ATOM    116  C4  SGN d 304      81.165  21.102 103.397  0.00  0.00     0.095 C 
ATOM    117  O4  SGN d 304      82.580  20.882 103.497  0.00  0.00    -0.348 OA
ATOM    118  H   SGN d 304      78.803  19.072 100.962  0.00  0.00     0.140 HD
ATOM    119  H   SGN d 304      77.879  21.879  98.930  0.00  0.00     0.231 HD
ATOM    120  H   SGN d 304      80.244  20.379 106.642  0.00  0.00     0.080 H 
ATOM    121  H   SGN d 304      81.856  20.661 106.081  0.00  0.00     0.080 H 
ATOM    122  H   SGN d 304      81.014  20.827 100.151  0.00  0.00     0.210 HD
ATOM    123  H   SGN d 304      80.681  19.310 104.446  0.00  0.00     0.090 H 
ATOM    124  H   SGN d 304      77.753  19.652  98.319  0.00  0.00     0.231 HD
ATOM    125  H   SGN d 304      77.390  20.314 103.114  0.00  0.00     0.131 H 
ATOM    126  H   SGN d 304      80.923  19.494 102.014  0.00  0.00     0.089 H 
ATOM    127  H   SGN d 304      78.945  21.801 101.972  0.00  0.00     0.076 H 
ATOM    128  H   SGN d 304      76.278  20.827 101.757  0.00  0.00     0.231 HD
ATOM    129  H   SGN d 304      80.965  22.151 103.476  0.00  0.00     0.091 H 
ATOM    130  O5S SGN d 302      87.168  27.534  96.485  0.00  0.00    -0.572 OA
ATOM    131  C4  SGN d 302      87.120  27.444 102.484  0.00  0.00     0.095 C 
ATOM    132  O1S SGN d 302      89.753  24.419 106.215  0.00  0.00    -0.296 OA
ATOM    133  O3  SGN d 302      87.912  27.150 104.725  0.00  0.00    -0.391 OA
ATOM    134  O2S SGN d 302      90.452  24.055 103.987  0.00  0.00    -0.296 OA
ATOM    135  C1  SGN d 302      87.174  24.575 102.093  0.00  0.00     0.150 C 
ATOM    136  C5  SGN d 302      86.345  26.761 101.366  0.00  0.00     0.091 C 
ATOM    137  O3S SGN d 302      89.375  22.330 105.156  0.00  0.00    -0.296 OA
ATOM    138  O5  SGN d 302      87.019  25.526 101.006  0.00  0.00    -0.349 OA
ATOM    139  C6  SGN d 302      86.248  27.698 100.170  0.00  0.00     0.067 C 
ATOM    140  S1  SGN d 302      89.455  23.758 104.969  0.00  0.00     0.156 S 
ATOM    141  O4S SGN d 302      85.173  26.485  97.195  0.00  0.00    -0.572 OA
ATOM    142  O6S SGN d 302      85.511  28.801  97.560  0.00  0.00    -0.572 OA
ATOM    143  O4  SGN d 302      86.439  28.609 102.847  0.00  0.00    -0.348 OA
ATOM    144  N   SGN d 302      87.912  24.363 104.353  0.00  0.00    -0.210 NA
ATOM    145  C3  SGN d 302      87.193  26.517 103.681  0.00  0.00     0.083 C 
ATOM    146  C2  SGN d 302      87.932  25.268 103.229  0.00  0.00     0.081 C 
ATOM    147  S2  SGN d 302      86.140  27.505  97.489  0.00  0.00     0.251 S 
ATOM    148  O6  SGN d 302      86.891  27.157  99.038  0.00  0.00    -0.254 OA
ATOM    149  O1  SGN d 302      85.919  24.156 102.629  0.00  0.00    -0.348 OA
ATOM    150  H   SGN d 302      88.111  27.680 102.155  0.00  0.00     0.091 H 
ATOM    151  H   SGN d 302      90.598  24.092 106.561  0.00  0.00     0.231 HD
ATOM    152  H   SGN d 302      87.436  27.945 105.010  0.00  0.00     0.210 HD
ATOM    153  H   SGN d 302      91.315  23.735 104.296  0.00  0.00     0.231 HD
ATOM    154  H   SGN d 302      87.688  23.721 101.706  0.00  0.00     0.131 H 
ATOM    155  H   SGN d 302      85.353  26.529 101.692  0.00  0.00     0.090 H 
ATOM    156  H   SGN d 302      90.222  22.000 105.494  0.00  0.00     0.231 HD
ATOM    157  H   SGN d 302      86.709  28.631 100.420  0.00  0.00     0.080 H 
ATOM    158  H   SGN d 302      85.213  27.837  99.935  0.00  0.00     0.080 H 
ATOM    159  H   SGN d 302      87.449  24.847 105.122  0.00  0.00     0.140 HD
ATOM    160  H   SGN d 302      86.217  26.273 104.043  0.00  0.00     0.089 H 
ATOM    161  H   SGN d 302      88.917  25.524 102.897  0.00  0.00     0.076 H 
ENDROOT
TORSDOF 50
ENDMDL
MODEL 20
REMARK VINA RESULT:     -10.9      3.173      6.312
REMARK  0 active torsions:
REMARK  status: ('A' for Active; 'I' for Inactive)
REMARK       I    between atoms: S_1  and  O2_2 
REMARK       I    between atoms: O2_2  and  C2_99 
REMARK       I    between atoms: C3_3  and  O3_50 
REMARK       I    between atoms: C2_5  and  O2_57 
REMARK       I    between atoms: O1S_6  and  S1_33 
REMARK       I    between atoms: O3_7  and  C3_52 
REMARK       I    between atoms: O6_9  and  C6_34 
REMARK       I    between atoms: O6_9  and  S2_17 
REMARK       I    between atoms: C2_13  and  N_73 
REMARK       I    between atoms: S_16  and  O2_57 
REMARK       I    between atoms: C1_20  and  O4_43 
REMARK       I    between atoms: C6_21  and  C5_67 
REMARK       I    between atoms: C6_21  and  O6_75 
REMARK       I    between atoms: N_22  and  C2_66 
REMARK       I    between atoms: N_22  and  S1_69 
REMARK       I    between atoms: S2_23  and  O6_75 
REMARK       I    between atoms: C1_24  and  O4_78 
REMARK       I    between atoms: C4_25  and  O4_78 
REMARK       I    between atoms: O3_26  and  C3_81 
REMARK       I    between atoms: O1S_27  and  S1_60 
REMARK       I    between atoms: O3S_28  and  S1_69 
REMARK       I    between atoms: O3_29  and  C3_87 
REMARK       I    between atoms: C6_30  and  C5_80 
REMARK       I    between atoms: O2S_32  and  S1_60 
REMARK       I    between atoms: S1_33  and  N_73 
REMARK       I    between atoms: S1_33  and  O2S_94 
REMARK       I    between atoms: S1_33  and  O3S_35 
REMARK       I    between atoms: C6_34  and  C5_38 
REMARK       I    between atoms: C2_36  and  O2_93 
REMARK       I    between atoms: O3_37  and  C3_65 
REMARK       I    between atoms: C1_40  and  O1_105 
REMARK       I    between atoms: O2S_41  and  S1_69 
REMARK       I    between atoms: C5_42  and  C6_54 
REMARK       I    between atoms: O4_43  and  C4_92 
REMARK       I    between atoms: O1_44  and  C1_62 
REMARK       I    between atoms: O1_44  and  C4_83 
REMARK       I    between atoms: C1_45  and  O4_102 
REMARK       I    between atoms: C4_46  and  O1_105 
REMARK       I    between atoms: O3S_47  and  S1_60 
REMARK       I    between atoms: C5_53  and  C6_61 
REMARK       I    between atoms: C6_54  and  O6_98 
REMARK       I    between atoms: O3_56  and  C3_84 
REMARK       I    between atoms: C5_59  and  C6_63 
REMARK       I    between atoms: S1_60  and  N_86 
REMARK       I    between atoms: S1_69  and  O1S_91 
REMARK       I    between atoms: O1_70  and  C1_96 
REMARK       I    between atoms: S_82  and  O2_93 
REMARK       I    between atoms: N_86  and  C2_90 
REMARK       I    between atoms: S2_95  and  O6_98 
REMARK       I    between atoms: C4_100  and  O4_102 
ROOT
ATOM      1  S   IDS d 303      83.057  18.917 106.610  0.00  0.00     0.252 S 
ATOM      2  O2  IDS d 303      82.217  19.308 105.122  0.00  0.00    -0.244 OA
ATOM      3  O61 IDS d 303      81.538  21.023  99.714  0.00  0.00    -0.646 OA
ATOM      4  O3  IDS d 303      80.579  22.306 104.129  0.00  0.00    -0.390 OA
ATOM      5  O3S IDS d 303      82.434  19.692 107.654  0.00  0.00    -0.572 OA
ATOM      6  C1  IDS d 303      83.440  21.033 103.992  0.00  0.00     0.161 C 
ATOM      7  C4  IDS d 303      80.782  20.362 102.699  0.00  0.00     0.103 C 
ATOM      8  O2S IDS d 303      82.935  17.504 106.842  0.00  0.00    -0.572 OA
ATOM      9  C3  IDS d 303      80.839  20.951 104.126  0.00  0.00     0.094 C 
ATOM     10  C5  IDS d 303      82.089  20.694 101.985  0.00  0.00     0.152 C 
ATOM     11  C6  IDS d 303      82.065  20.276 100.542  0.00  0.00     0.206 C 
ATOM     12  O62 IDS d 303      82.770  19.292 100.246  0.00  0.00    -0.646 OA
ATOM     13  O5  IDS d 303      83.322  20.545 102.663  0.00  0.00    -0.340 OA
ATOM     14  C2  IDS d 303      82.186  20.664 104.812  0.00  0.00     0.134 C 
ATOM     15  O1S IDS d 303      84.427  19.278 106.439  0.00  0.00    -0.572 OA
ATOM     16  H   IDS d 303      79.727  22.474 103.694  0.00  0.00     0.210 HD
ATOM     17  H   IDS d 303      84.310  20.558 104.394  0.00  0.00     0.133 H 
ATOM     18  H   IDS d 303      79.924  20.763 102.199  0.00  0.00     0.092 H 
ATOM     19  H   IDS d 303      80.071  20.463 104.690  0.00  0.00     0.091 H 
ATOM     20  H   IDS d 303      82.091  21.764 102.008  0.00  0.00     0.104 H 
ATOM     21  H   IDS d 303      82.232  21.293 105.677  0.00  0.00     0.097 H 
ATOM     22  C3  SGN d 306      88.714  29.815 108.925  0.00  0.00     0.083 C 
ATOM     23  O1S SGN d 306      91.479  27.818 110.315  0.00  0.00    -0.296 OA
ATOM     24  O4S SGN d 306      81.850  29.259 111.343  0.00  0.00    -0.572 OA
ATOM     25  O5S SGN d 306      82.308  28.004 109.392  0.00  0.00    -0.572 OA
ATOM     26  C2  SGN d 306      88.915  29.564 110.412  0.00  0.00     0.081 C 
ATOM     27  O5  SGN d 306      86.572  30.052 110.800  0.00  0.00    -0.350 OA
ATOM     28  C6  SGN d 306      84.876  29.975 109.067  0.00  0.00     0.067 C 
ATOM     29  S2  SGN d 306      82.472  29.270 110.049  0.00  0.00     0.251 S 
ATOM     30  S1  SGN d 306      91.449  28.935 111.226  0.00  0.00     0.156 S 
ATOM     31  O3S SGN d 306      92.731  29.593 111.250  0.00  0.00    -0.296 OA
ATOM     32  O4  SGN d 306      87.092  29.646 107.142  0.00  0.00    -0.348 OA
ATOM     33  O3  SGN d 306      89.661  29.050 108.203  0.00  0.00    -0.391 OA
ATOM     34  O6S SGN d 306      81.924  30.320 109.229  0.00  0.00    -0.572 OA
ATOM     35  C5  SGN d 306      86.328  30.291 109.381  0.00  0.00     0.091 C 
ATOM     36  O1  SGN d 306      88.204  31.738 111.191  0.00  0.00    -0.369 OA
ATOM     37  N   SGN d 306      90.220  30.083 110.714  0.00  0.00    -0.210 NA
ATOM     38  O6  SGN d 306      84.195  29.556 110.229  0.00  0.00    -0.254 OA
ATOM     39  C4  SGN d 306      87.285  29.411 108.549  0.00  0.00     0.095 C 
ATOM     40  O2S SGN d 306      91.088  28.500 112.540  0.00  0.00    -0.296 OA
ATOM     41  C1  SGN d 306      87.908  30.347 111.269  0.00  0.00     0.147 C 
ATOM     42  H   SGN d 306      88.855  30.849 108.689  0.00  0.00     0.089 H 
ATOM     43  H   SGN d 306      90.613  27.383 110.307  0.00  0.00     0.231 HD
ATOM     44  H   SGN d 306      88.792  28.522 110.623  0.00  0.00     0.076 H 
ATOM     45  H   SGN d 306      84.837  29.195 108.336  0.00  0.00     0.080 H 
ATOM     46  H   SGN d 306      84.405  30.859 108.691  0.00  0.00     0.080 H 
ATOM     47  H   SGN d 306      92.963  29.882 110.354  0.00  0.00     0.231 HD
ATOM     48  H   SGN d 306      89.541  28.109 108.409  0.00  0.00     0.210 HD
ATOM     49  H   SGN d 306      86.511  31.316 109.134  0.00  0.00     0.090 H 
ATOM     50  H   SGN d 306      89.105  31.895 111.513  0.00  0.00     0.212 HD
ATOM     51  H   SGN d 306      90.110  30.768 111.461  0.00  0.00     0.140 HD
ATOM     52  H   SGN d 306      87.099  28.377 108.750  0.00  0.00     0.091 H 
ATOM     53  H   SGN d 306      90.224  28.060 112.509  0.00  0.00     0.231 HD
ATOM     54  H   SGN d 306      87.974  30.059 112.297  0.00  0.00     0.131 H 
ATOM     55  C2  UAP d 301      80.697  14.168  97.986  0.00  0.00     0.132 C 
ATOM     56  S   UAP d 301      79.213  13.655  95.886  0.00  0.00     0.252 S 
ATOM     57  O1S UAP d 301      79.301  12.594  94.960  0.00  0.00    -0.572 OA
ATOM     58  C1  UAP d 301      80.230  14.228  99.426  0.00  0.00     0.161 C 
ATOM     59  O61 UAP d 301      83.915  11.305 100.654  0.00  0.00    -0.646 OA
ATOM     60  C5  UAP d 301      82.125  12.763  99.974  0.00  0.00     0.127 C 
ATOM     61  O3  UAP d 301      82.748  15.268  97.604  0.00  0.00    -0.393 OA
ATOM     62  O2  UAP d 301      80.035  13.140  97.333  0.00  0.00    -0.244 OA
ATOM     63  O5  UAP d 301      80.798  13.193 100.220  0.00  0.00    -0.343 OA
ATOM     64  C6  UAP d 301      82.763  11.723 100.888  0.00  0.00     0.203 C 
ATOM     65  O62 UAP d 301      82.055  11.313 101.833  0.00  0.00    -0.646 OA
ATOM     66  O3S UAP d 301      77.858  13.899  96.274  0.00  0.00    -0.572 OA
ATOM     67  O2S UAP d 301      79.850  14.833  95.353  0.00  0.00    -0.572 OA
ATOM     68  C3  UAP d 301      82.198  13.993  97.706  0.00  0.00     0.069 C 
ATOM     69  C4  UAP d 301      82.974  13.162  98.765  0.00  0.00    -0.005 C 
ATOM     70  H   UAP d 301      80.467  15.150  97.629  0.00  0.00     0.097 H 
ATOM     71  H   UAP d 301      79.172  14.084  99.498  0.00  0.00     0.133 H 
ATOM     72  H   UAP d 301      81.817  13.777 100.113  0.00  0.00     0.100 H 
ATOM     73  H   UAP d 301      82.259  15.780  96.942  0.00  0.00     0.210 HD
ATOM     74  H   UAP d 301      82.291  13.427  96.802  0.00  0.00     0.087 H 
ATOM     75  H   UAP d 301      83.335  12.270  98.297  0.00  0.00     0.041 H 
ATOM     76  H   UAP d 301      83.767  13.780  99.129  0.00  0.00     0.041 H 
ATOM     77  O5  IDS d 305      86.777  27.354 106.448  0.00  0.00    -0.340 OA
ATOM     78  O62 IDS d 305      87.795  24.780 106.615  0.00  0.00    -0.646 OA
ATOM     79  C1  IDS d 305      86.329  28.709 106.370  0.00  0.00     0.161 C 
ATOM     80  O3  IDS d 305      88.136  29.285 103.516  0.00  0.00    -0.390 OA
ATOM     81  C6  IDS d 305      88.327  25.505 105.744  0.00  0.00     0.206 C 
ATOM     82  C2  IDS d 305      86.227  29.228 104.910  0.00  0.00     0.134 C 
ATOM     83  C5  IDS d 305      87.653  26.851 105.472  0.00  0.00     0.152 C 
ATOM     84  C3  IDS d 305      86.998  28.558 103.757  0.00  0.00     0.094 C 
ATOM     85  S   IDS d 305      83.545  28.737 104.549  0.00  0.00     0.252 S 
ATOM     86  C4  IDS d 305      87.346  27.076 103.999  0.00  0.00     0.103 C 
ATOM     87  O3S IDS d 305      82.442  29.562 104.215  0.00  0.00    -0.572 OA
ATOM     88  O1S IDS d 305      83.376  28.207 105.855  0.00  0.00    -0.572 OA
ATOM     89  O2  IDS d 305      84.975  29.782 104.527  0.00  0.00    -0.244 OA
ATOM     90  O61 IDS d 305      89.193  25.094 104.953  0.00  0.00    -0.646 OA
ATOM     91  O2S IDS d 305      83.710  27.695 103.602  0.00  0.00    -0.572 OA
ATOM     92  H   IDS d 305      85.353  28.660 106.804  0.00  0.00     0.133 H 
ATOM     93  H   IDS d 305      87.901  30.214 103.367  0.00  0.00     0.210 HD
ATOM     94  H   IDS d 305      86.901  30.042 105.078  0.00  0.00     0.097 H 
ATOM     95  H   IDS d 305      88.409  27.585 105.660  0.00  0.00     0.104 H 
ATOM     96  H   IDS d 305      86.349  28.554 102.906  0.00  0.00     0.091 H 
ATOM     97  H   IDS d 305      88.196  26.834 103.395  0.00  0.00     0.092 H 
ATOM     98  O6  SGN d 304      86.804  21.260 103.423  0.00  0.00    -0.254 OA
ATOM     99  S2  SGN d 304      87.464  19.666 103.707  0.00  0.00     0.251 S 
ATOM    100  O5S SGN d 304      87.420  18.945 102.462  0.00  0.00    -0.572 OA
ATOM    101  N   SGN d 304      84.582  26.335 101.528  0.00  0.00    -0.210 NA
ATOM    102  O3S SGN d 304      85.017  26.599  98.976  0.00  0.00    -0.296 OA
ATOM    103  C6  SGN d 304      86.568  22.096 104.553  0.00  0.00     0.067 C 
ATOM    104  O3  SGN d 304      82.897  24.146 101.981  0.00  0.00    -0.391 OA
ATOM    105  C5  SGN d 304      85.923  23.357 104.037  0.00  0.00     0.091 C 
ATOM    106  O2S SGN d 304      84.622  28.535 100.221  0.00  0.00    -0.296 OA
ATOM    107  O1  SGN d 304      86.239  26.237 103.648  0.00  0.00    -0.348 OA
ATOM    108  O4S SGN d 304      88.816  19.795 104.159  0.00  0.00    -0.572 OA
ATOM    109  C1  SGN d 304      86.445  25.269 102.615  0.00  0.00     0.150 C 
ATOM    110  C3  SGN d 304      84.074  24.368 102.734  0.00  0.00     0.083 C 
ATOM    111  C2  SGN d 304      85.125  25.036 101.841  0.00  0.00     0.081 C 
ATOM    112  S1  SGN d 304      85.275  27.270 100.209  0.00  0.00     0.156 S 
ATOM    113  O6S SGN d 304      86.646  19.005 104.699  0.00  0.00    -0.572 OA
ATOM    114  O1S SGN d 304      86.689  27.433 100.389  0.00  0.00    -0.296 OA
ATOM    115  O5  SGN d 304      86.880  24.010 103.161  0.00  0.00    -0.349 OA
ATOM    116  C4  SGN d 304      84.643  23.046 103.234  0.00  0.00     0.095 C 
ATOM    117  O4  SGN d 304      83.663  22.428 104.082  0.00  0.00    -0.348 OA
ATOM    118  H   SGN d 304      84.668  26.903 102.371  0.00  0.00     0.140 HD
ATOM    119  H   SGN d 304      84.060  26.493  98.860  0.00  0.00     0.231 HD
ATOM    120  H   SGN d 304      87.493  22.328 105.039  0.00  0.00     0.080 H 
ATOM    121  H   SGN d 304      85.937  21.607 105.266  0.00  0.00     0.080 H 
ATOM    122  H   SGN d 304      82.547  24.995 101.670  0.00  0.00     0.210 HD
ATOM    123  H   SGN d 304      85.651  23.981 104.863  0.00  0.00     0.090 H 
ATOM    124  H   SGN d 304      83.669  28.408 100.098  0.00  0.00     0.231 HD
ATOM    125  H   SGN d 304      87.202  25.648 101.960  0.00  0.00     0.131 H 
ATOM    126  H   SGN d 304      83.833  24.993 103.568  0.00  0.00     0.089 H 
ATOM    127  H   SGN d 304      85.332  24.429 100.985  0.00  0.00     0.076 H 
ATOM    128  H   SGN d 304      87.118  26.563 100.379  0.00  0.00     0.231 HD
ATOM    129  H   SGN d 304      84.876  22.384 102.426  0.00  0.00     0.091 H 
ATOM    130  O5S SGN d 302      75.752  19.159  97.663  0.00  0.00    -0.572 OA
ATOM    131  C4  SGN d 302      79.845  16.134 100.840  0.00  0.00     0.095 C 
ATOM    132  O1S SGN d 302      80.339  14.947 106.165  0.00  0.00    -0.296 OA
ATOM    133  O3  SGN d 302      80.770  14.773 102.580  0.00  0.00    -0.391 OA
ATOM    134  O2S SGN d 302      78.305  15.999 105.580  0.00  0.00    -0.296 OA
ATOM    135  C1  SGN d 302      79.451  18.285 102.739  0.00  0.00     0.150 C 
ATOM    136  C5  SGN d 302      79.637  17.577 100.402  0.00  0.00     0.091 C 
ATOM    137  O3S SGN d 302      79.834  17.126 106.955  0.00  0.00    -0.296 OA
ATOM    138  O5  SGN d 302      78.858  18.272 101.413  0.00  0.00    -0.349 OA
ATOM    139  C6  SGN d 302      78.929  17.601  99.055  0.00  0.00     0.067 C 
ATOM    140  S1  SGN d 302      79.693  16.200 105.859  0.00  0.00     0.156 S 
ATOM    141  O4S SGN d 302      77.667  20.525  97.896  0.00  0.00    -0.572 OA
ATOM    142  O6S SGN d 302      77.739  18.569  96.561  0.00  0.00    -0.572 OA
ATOM    143  O4  SGN d 302      80.629  15.489  99.880  0.00  0.00    -0.348 OA
ATOM    144  N   SGN d 302      80.430  16.885 104.405  0.00  0.00    -0.210 NA
ATOM    145  C3  SGN d 302      80.572  16.114 102.170  0.00  0.00     0.083 C 
ATOM    146  C2  SGN d 302      79.683  16.835 103.171  0.00  0.00     0.081 C 
ATOM    147  S2  SGN d 302      77.187  19.179  97.746  0.00  0.00     0.251 S 
ATOM    148  O6  SGN d 302      77.672  18.235  99.145  0.00  0.00    -0.254 OA
ATOM    149  O1  SGN d 302      80.723  18.932 102.758  0.00  0.00    -0.348 OA
ATOM    150  H   SGN d 302      78.901  15.640 100.943  0.00  0.00     0.091 H 
ATOM    151  H   SGN d 302      79.940  14.565 106.963  0.00  0.00     0.231 HD
ATOM    152  H   SGN d 302      81.338  14.319 101.938  0.00  0.00     0.210 HD
ATOM    153  H   SGN d 302      77.869  15.622 106.360  0.00  0.00     0.231 HD
ATOM    154  H   SGN d 302      78.783  18.813 103.387  0.00  0.00     0.131 H 
ATOM    155  H   SGN d 302      80.579  18.071 100.295  0.00  0.00     0.090 H 
ATOM    156  H   SGN d 302      79.429  16.749 107.752  0.00  0.00     0.231 HD
ATOM    157  H   SGN d 302      78.788  16.596  98.717  0.00  0.00     0.080 H 
ATOM    158  H   SGN d 302      79.535  18.152  98.367  0.00  0.00     0.080 H 
ATOM    159  H   SGN d 302      81.307  16.388 104.247  0.00  0.00     0.140 HD
ATOM    160  H   SGN d 302      81.528  16.590 102.097  0.00  0.00     0.089 H 
ATOM    161  H   SGN d 302      78.742  16.331 103.255  0.00  0.00     0.076 H 
ENDROOT
TORSDOF 50
ENDMDL
MODEL 21
REMARK VINA RESULT:     -10.8      5.374     14.517
REMARK  0 active torsions:
REMARK  status: ('A' for Active; 'I' for Inactive)
REMARK       I    between atoms: S_1  and  O2_2 
REMARK       I    between atoms: O2_2  and  C2_99 
REMARK       I    between atoms: C3_3  and  O3_50 
REMARK       I    between atoms: C2_5  and  O2_57 
REMARK       I    between atoms: O1S_6  and  S1_33 
REMARK       I    between atoms: O3_7  and  C3_52 
REMARK       I    between atoms: O6_9  and  C6_34 
REMARK       I    between atoms: O6_9  and  S2_17 
REMARK       I    between atoms: C2_13  and  N_73 
REMARK       I    between atoms: S_16  and  O2_57 
REMARK       I    between atoms: C1_20  and  O4_43 
REMARK       I    between atoms: C6_21  and  C5_67 
REMARK       I    between atoms: C6_21  and  O6_75 
REMARK       I    between atoms: N_22  and  C2_66 
REMARK       I    between atoms: N_22  and  S1_69 
REMARK       I    between atoms: S2_23  and  O6_75 
REMARK       I    between atoms: C1_24  and  O4_78 
REMARK       I    between atoms: C4_25  and  O4_78 
REMARK       I    between atoms: O3_26  and  C3_81 
REMARK       I    between atoms: O1S_27  and  S1_60 
REMARK       I    between atoms: O3S_28  and  S1_69 
REMARK       I    between atoms: O3_29  and  C3_87 
REMARK       I    between atoms: C6_30  and  C5_80 
REMARK       I    between atoms: O2S_32  and  S1_60 
REMARK       I    between atoms: S1_33  and  N_73 
REMARK       I    between atoms: S1_33  and  O2S_94 
REMARK       I    between atoms: S1_33  and  O3S_35 
REMARK       I    between atoms: C6_34  and  C5_38 
REMARK       I    between atoms: C2_36  and  O2_93 
REMARK       I    between atoms: O3_37  and  C3_65 
REMARK       I    between atoms: C1_40  and  O1_105 
REMARK       I    between atoms: O2S_41  and  S1_69 
REMARK       I    between atoms: C5_42  and  C6_54 
REMARK       I    between atoms: O4_43  and  C4_92 
REMARK       I    between atoms: O1_44  and  C1_62 
REMARK       I    between atoms: O1_44  and  C4_83 
REMARK       I    between atoms: C1_45  and  O4_102 
REMARK       I    between atoms: C4_46  and  O1_105 
REMARK       I    between atoms: O3S_47  and  S1_60 
REMARK       I    between atoms: C5_53  and  C6_61 
REMARK       I    between atoms: C6_54  and  O6_98 
REMARK       I    between atoms: O3_56  and  C3_84 
REMARK       I    between atoms: C5_59  and  C6_63 
REMARK       I    between atoms: S1_60  and  N_86 
REMARK       I    between atoms: S1_69  and  O1S_91 
REMARK       I    between atoms: O1_70  and  C1_96 
REMARK       I    between atoms: S_82  and  O2_93 
REMARK       I    between atoms: N_86  and  C2_90 
REMARK       I    between atoms: S2_95  and  O6_98 
REMARK       I    between atoms: C4_100  and  O4_102 
ROOT
ATOM      1  S   IDS d 303      77.317  22.657 105.116  0.00  0.00     0.252 S 
ATOM      2  O2  IDS d 303      78.848  22.111 104.460  0.00  0.00    -0.244 OA
ATOM      3  O61 IDS d 303      83.222  21.763 100.799  0.00  0.00    -0.646 OA
ATOM      4  O3  IDS d 303      79.608  19.267 102.461  0.00  0.00    -0.390 OA
ATOM      5  O3S IDS d 303      76.516  21.478 105.334  0.00  0.00    -0.572 OA
ATOM      6  C1  IDS d 303      78.743  22.254 102.069  0.00  0.00     0.161 C 
ATOM      7  C4  IDS d 303      81.257  20.918 103.110  0.00  0.00     0.103 C 
ATOM      8  O2S IDS d 303      77.575  23.367 106.338  0.00  0.00    -0.572 OA
ATOM      9  C3  IDS d 303      79.867  20.286 103.354  0.00  0.00     0.094 C 
ATOM     10  C5  IDS d 303      81.152  21.876 101.926  0.00  0.00     0.152 C 
ATOM     11  C6  IDS d 303      82.491  22.433 101.532  0.00  0.00     0.206 C 
ATOM     12  O62 IDS d 303      82.685  23.633 101.805  0.00  0.00    -0.646 OA
ATOM     13  O5  IDS d 303      80.049  22.757 101.825  0.00  0.00    -0.340 OA
ATOM     14  C2  IDS d 303      78.744  21.336 103.309  0.00  0.00     0.134 C 
ATOM     15  O1S IDS d 303      76.721  23.523 104.152  0.00  0.00    -0.572 OA
ATOM     16  H   IDS d 303      80.323  18.612 102.500  0.00  0.00     0.210 HD
ATOM     17  H   IDS d 303      78.132  23.117 102.235  0.00  0.00     0.133 H 
ATOM     18  H   IDS d 303      81.964  20.132 102.945  0.00  0.00     0.092 H 
ATOM     19  H   IDS d 303      79.890  19.869 104.339  0.00  0.00     0.091 H 
ATOM     20  H   IDS d 303      80.832  21.225 101.140  0.00  0.00     0.104 H 
ATOM     21  H   IDS d 303      77.821  20.798 103.249  0.00  0.00     0.097 H 
ATOM     22  C3  SGN d 306      69.684  19.868  95.625  0.00  0.00     0.083 C 
ATOM     23  O1S SGN d 306      67.786  22.878  96.572  0.00  0.00    -0.296 OA
ATOM     24  O4S SGN d 306      71.017  14.419 100.294  0.00  0.00    -0.572 OA
ATOM     25  O5S SGN d 306      72.791  15.964 100.058  0.00  0.00    -0.572 OA
ATOM     26  C2  SGN d 306      68.414  19.840  96.460  0.00  0.00     0.081 C 
ATOM     27  O5  SGN d 306      69.046  17.668  97.332  0.00  0.00    -0.350 OA
ATOM     28  C6  SGN d 306      71.313  16.806  97.284  0.00  0.00     0.067 C 
ATOM     29  S2  SGN d 306      71.809  15.176  99.367  0.00  0.00     0.251 S 
ATOM     30  S1  SGN d 306      66.723  21.975  96.206  0.00  0.00     0.156 S 
ATOM     31  O3S SGN d 306      65.920  22.551  95.156  0.00  0.00    -0.296 OA
ATOM     32  O4  SGN d 306      71.985  19.129  95.587  0.00  0.00    -0.348 OA
ATOM     33  O3  SGN d 306      70.063  21.215  95.415  0.00  0.00    -0.391 OA
ATOM     34  O6S SGN d 306      72.459  14.305  98.421  0.00  0.00    -0.572 OA
ATOM     35  C5  SGN d 306      70.283  17.654  96.558  0.00  0.00     0.091 C 
ATOM     36  O1  SGN d 306      67.484  17.808  95.543  0.00  0.00    -0.369 OA
ATOM     37  N   SGN d 306      67.406  20.456  95.643  0.00  0.00    -0.210 NA
ATOM     38  O6  SGN d 306      70.773  16.279  98.476  0.00  0.00    -0.254 OA
ATOM     39  C4  SGN d 306      70.780  19.104  96.375  0.00  0.00     0.095 C 
ATOM     40  O2S SGN d 306      65.911  21.668  97.343  0.00  0.00    -0.296 OA
ATOM     41  C1  SGN d 306      67.946  18.405  96.750  0.00  0.00     0.147 C 
ATOM     42  H   SGN d 306      69.527  19.402  94.674  0.00  0.00     0.089 H 
ATOM     43  H   SGN d 306      68.319  22.481  97.278  0.00  0.00     0.231 HD
ATOM     44  H   SGN d 306      68.585  20.330  97.397  0.00  0.00     0.076 H 
ATOM     45  H   SGN d 306      72.163  17.411  97.520  0.00  0.00     0.080 H 
ATOM     46  H   SGN d 306      71.601  15.995  96.648  0.00  0.00     0.080 H 
ATOM     47  H   SGN d 306      66.483  22.754  94.393  0.00  0.00     0.231 HD
ATOM     48  H   SGN d 306      70.209  21.647  96.271  0.00  0.00     0.210 HD
ATOM     49  H   SGN d 306      70.118  17.229  95.590  0.00  0.00     0.090 H 
ATOM     50  H   SGN d 306      66.749  18.329  95.185  0.00  0.00     0.212 HD
ATOM     51  H   SGN d 306      66.638  19.791  95.551  0.00  0.00     0.140 HD
ATOM     52  H   SGN d 306      70.988  19.543  97.328  0.00  0.00     0.091 H 
ATOM     53  H   SGN d 306      66.464  21.282  98.040  0.00  0.00     0.231 HD
ATOM     54  H   SGN d 306      67.133  18.401  97.446  0.00  0.00     0.131 H 
ATOM     55  C2  UAP d 301      86.982  25.655 105.425  0.00  0.00     0.132 C 
ATOM     56  S   UAP d 301      89.580  25.301 105.426  0.00  0.00     0.252 S 
ATOM     57  O1S UAP d 301      90.613  26.218 105.717  0.00  0.00    -0.572 OA
ATOM     58  C1  UAP d 301      85.976  24.940 106.303  0.00  0.00     0.161 C 
ATOM     59  O61 UAP d 301      84.043  29.250 107.451  0.00  0.00    -0.646 OA
ATOM     60  C5  UAP d 301      85.041  27.152 106.823  0.00  0.00     0.127 C 
ATOM     61  O3  UAP d 301      86.037  26.642 103.503  0.00  0.00    -0.393 OA
ATOM     62  O2  UAP d 301      88.128  25.917 106.162  0.00  0.00    -0.244 OA
ATOM     63  O5  UAP d 301      85.334  25.823 107.216  0.00  0.00    -0.343 OA
ATOM     64  C6  UAP d 301      84.268  28.064 107.769  0.00  0.00     0.203 C 
ATOM     65  O62 UAP d 301      83.919  27.560 108.858  0.00  0.00    -0.646 OA
ATOM     66  O3S UAP d 301      89.820  24.031 106.040  0.00  0.00    -0.572 OA
ATOM     67  O2S UAP d 301      89.400  25.194 103.999  0.00  0.00    -0.572 OA
ATOM     68  C3  UAP d 301      86.566  26.970 104.749  0.00  0.00     0.069 C 
ATOM     69  C4  UAP d 301      85.547  27.830 105.548  0.00  0.00    -0.005 C 
ATOM     70  H   UAP d 301      87.115  24.965 104.618  0.00  0.00     0.097 H 
ATOM     71  H   UAP d 301      86.450  24.203 106.917  0.00  0.00     0.133 H 
ATOM     72  H   UAP d 301      84.785  26.272 106.273  0.00  0.00     0.100 H 
ATOM     73  H   UAP d 301      86.678  26.106 103.010  0.00  0.00     0.210 HD
ATOM     74  H   UAP d 301      87.438  27.586 104.681  0.00  0.00     0.087 H 
ATOM     75  H   UAP d 301      86.021  28.750 105.820  0.00  0.00     0.041 H 
ATOM     76  H   UAP d 301      84.698  27.980 104.915  0.00  0.00     0.041 H 
ATOM     77  O5  IDS d 305      73.355  20.430  97.092  0.00  0.00    -0.340 OA
ATOM     78  O62 IDS d 305      73.460  22.728  98.640  0.00  0.00    -0.646 OA
ATOM     79  C1  IDS d 305      73.251  19.286  96.242  0.00  0.00     0.161 C 
ATOM     80  O3  IDS d 305      74.640  20.956  93.592  0.00  0.00    -0.390 OA
ATOM     81  C6  IDS d 305      73.739  22.891  97.430  0.00  0.00     0.206 C 
ATOM     82  C2  IDS d 305      74.378  19.220  95.177  0.00  0.00     0.134 C 
ATOM     83  C5  IDS d 305      73.906  21.622  96.592  0.00  0.00     0.152 C 
ATOM     84  C3  IDS d 305      75.173  20.472  94.760  0.00  0.00     0.094 C 
ATOM     85  S   IDS d 305      76.071  17.548  96.556  0.00  0.00     0.252 S 
ATOM     86  C4  IDS d 305      75.222  21.581  95.829  0.00  0.00     0.103 C 
ATOM     87  O3S IDS d 305      76.635  16.281  96.266  0.00  0.00    -0.572 OA
ATOM     88  O1S IDS d 305      75.203  17.448  97.674  0.00  0.00    -0.572 OA
ATOM     89  O2  IDS d 305      75.129  18.013  95.130  0.00  0.00    -0.244 OA
ATOM     90  O61 IDS d 305      74.114  23.978  96.959  0.00  0.00    -0.646 OA
ATOM     91  O2S IDS d 305      77.079  18.517  96.790  0.00  0.00    -0.572 OA
ATOM     92  H   IDS d 305      73.357  18.472  96.928  0.00  0.00     0.133 H 
ATOM     93  H   IDS d 305      74.615  20.247  92.930  0.00  0.00     0.210 HD
ATOM     94  H   IDS d 305      73.695  19.204  94.352  0.00  0.00     0.097 H 
ATOM     95  H   IDS d 305      73.190  21.714  95.802  0.00  0.00     0.104 H 
ATOM     96  H   IDS d 305      76.190  20.169  94.629  0.00  0.00     0.091 H 
ATOM     97  H   IDS d 305      75.399  22.512  95.332  0.00  0.00     0.092 H 
ATOM     98  O6  SGN d 304      77.585  24.815 100.121  0.00  0.00    -0.254 OA
ATOM     99  S2  SGN d 304      77.485  26.220 101.155  0.00  0.00     0.251 S 
ATOM    100  O5S SGN d 304      78.751  26.901 101.095  0.00  0.00    -0.572 OA
ATOM    101  N   SGN d 304      78.792  20.469  96.386  0.00  0.00    -0.210 NA
ATOM    102  O3S SGN d 304      80.656  21.213  94.728  0.00  0.00    -0.296 OA
ATOM    103  C6  SGN d 304      76.514  23.876 100.163  0.00  0.00     0.067 C 
ATOM    104  O3  SGN d 304      79.812  20.406  98.992  0.00  0.00    -0.391 OA
ATOM    105  C5  SGN d 304      76.895  22.735  99.253  0.00  0.00     0.091 C 
ATOM    106  O2S SGN d 304      79.255  19.461  94.079  0.00  0.00    -0.296 OA
ATOM    107  O1  SGN d 304      76.268  21.321  96.773  0.00  0.00    -0.348 OA
ATOM    108  O4S SGN d 304      76.438  27.074 100.682  0.00  0.00    -0.572 OA
ATOM    109  C1  SGN d 304      77.309  22.295  96.891  0.00  0.00     0.150 C 
ATOM    110  C3  SGN d 304      78.569  21.002  98.676  0.00  0.00     0.083 C 
ATOM    111  C2  SGN d 304      78.640  21.600  97.267  0.00  0.00     0.081 C 
ATOM    112  S1  SGN d 304      79.313  20.728  94.725  0.00  0.00     0.156 S 
ATOM    113  O6S SGN d 304      77.220  25.773 102.504  0.00  0.00    -0.572 OA
ATOM    114  O1S SGN d 304      78.457  21.670  94.064  0.00  0.00    -0.296 OA
ATOM    115  O5  SGN d 304      77.000  23.267  97.906  0.00  0.00    -0.349 OA
ATOM    116  C4  SGN d 304      78.253  22.125  99.657  0.00  0.00     0.095 C 
ATOM    117  O4  SGN d 304      78.173  21.560 100.974  0.00  0.00    -0.348 OA
ATOM    118  H   SGN d 304      77.887  20.002  96.342  0.00  0.00     0.140 HD
ATOM    119  H   SGN d 304      81.230  20.571  95.176  0.00  0.00     0.231 HD
ATOM    120  H   SGN d 304      75.609  24.334  99.820  0.00  0.00     0.080 H 
ATOM    121  H   SGN d 304      76.347  23.530 101.162  0.00  0.00     0.080 H 
ATOM    122  H   SGN d 304      79.998  19.694  98.360  0.00  0.00     0.210 HD
ATOM    123  H   SGN d 304      76.155  21.966  99.320  0.00  0.00     0.090 H 
ATOM    124  H   SGN d 304      79.838  18.837  94.537  0.00  0.00     0.231 HD
ATOM    125  H   SGN d 304      77.399  22.790  95.946  0.00  0.00     0.131 H 
ATOM    126  H   SGN d 304      77.806  20.254  98.732  0.00  0.00     0.089 H 
ATOM    127  H   SGN d 304      79.431  22.317  97.203  0.00  0.00     0.076 H 
ATOM    128  H   SGN d 304      78.508  22.527  94.517  0.00  0.00     0.231 HD
ATOM    129  H   SGN d 304      79.008  22.884  99.645  0.00  0.00     0.091 H 
ATOM    130  O5S SGN d 302      88.166  18.928 103.745  0.00  0.00    -0.572 OA
ATOM    131  C4  SGN d 302      84.436  23.176 105.756  0.00  0.00     0.095 C 
ATOM    132  O1S SGN d 302      80.071  23.081 109.064  0.00  0.00    -0.296 OA
ATOM    133  O3  SGN d 302      82.925  24.318 107.222  0.00  0.00    -0.391 OA
ATOM    134  O2S SGN d 302      81.218  21.022 108.894  0.00  0.00    -0.296 OA
ATOM    135  C1  SGN d 302      82.426  21.149 105.270  0.00  0.00     0.150 C 
ATOM    136  C5  SGN d 302      84.497  22.242 104.555  0.00  0.00     0.091 C 
ATOM    137  O3S SGN d 302      79.034  21.200 108.056  0.00  0.00    -0.296 OA
ATOM    138  O5  SGN d 302      83.818  21.001 104.885  0.00  0.00    -0.349 OA
ATOM    139  C6  SGN d 302      85.951  21.987 104.184  0.00  0.00     0.067 C 
ATOM    140  S1  SGN d 302      80.278  21.899 108.265  0.00  0.00     0.156 S 
ATOM    141  O4S SGN d 302      86.694  19.513 101.991  0.00  0.00    -0.572 OA
ATOM    142  O6S SGN d 302      88.327  21.050 102.754  0.00  0.00    -0.572 OA
ATOM    143  O4  SGN d 302      85.056  24.380 105.411  0.00  0.00    -0.348 OA
ATOM    144  N   SGN d 302      80.963  22.372 106.705  0.00  0.00    -0.210 NA
ATOM    145  C3  SGN d 302      82.987  23.447 106.107  0.00  0.00     0.083 C 
ATOM    146  C2  SGN d 302      82.360  22.108 106.462  0.00  0.00     0.081 C 
ATOM    147  S2  SGN d 302      87.421  19.994 103.133  0.00  0.00     0.251 S 
ATOM    148  O6  SGN d 302      86.285  20.624 104.315  0.00  0.00    -0.254 OA
ATOM    149  O1  SGN d 302      81.635  21.725 104.232  0.00  0.00    -0.348 OA
ATOM    150  H   SGN d 302      84.929  22.731 106.595  0.00  0.00     0.091 H 
ATOM    151  H   SGN d 302      79.695  22.830 109.922  0.00  0.00     0.231 HD
ATOM    152  H   SGN d 302      83.325  25.170 106.989  0.00  0.00     0.210 HD
ATOM    153  H   SGN d 302      80.872  20.742 109.757  0.00  0.00     0.231 HD
ATOM    154  H   SGN d 302      82.046  20.174 105.496  0.00  0.00     0.131 H 
ATOM    155  H   SGN d 302      84.008  22.687 103.715  0.00  0.00     0.090 H 
ATOM    156  H   SGN d 302      78.661  20.941 108.913  0.00  0.00     0.231 HD
ATOM    157  H   SGN d 302      86.581  22.564 104.828  0.00  0.00     0.080 H 
ATOM    158  H   SGN d 302      86.091  22.271 103.162  0.00  0.00     0.080 H 
ATOM    159  H   SGN d 302      80.824  23.378 106.607  0.00  0.00     0.140 HD
ATOM    160  H   SGN d 302      82.469  23.906 105.291  0.00  0.00     0.089 H 
ATOM    161  H   SGN d 302      82.870  21.675 107.298  0.00  0.00     0.076 H 
ENDROOT
TORSDOF 50
ENDMDL
MODEL 22
REMARK VINA RESULT:     -10.8      5.251     14.691
REMARK  0 active torsions:
REMARK  status: ('A' for Active; 'I' for Inactive)
REMARK       I    between atoms: S_1  and  O2_2 
REMARK       I    between atoms: O2_2  and  C2_99 
REMARK       I    between atoms: C3_3  and  O3_50 
REMARK       I    between atoms: C2_5  and  O2_57 
REMARK       I    between atoms: O1S_6  and  S1_33 
REMARK       I    between atoms: O3_7  and  C3_52 
REMARK       I    between atoms: O6_9  and  C6_34 
REMARK       I    between atoms: O6_9  and  S2_17 
REMARK       I    between atoms: C2_13  and  N_73 
REMARK       I    between atoms: S_16  and  O2_57 
REMARK       I    between atoms: C1_20  and  O4_43 
REMARK       I    between atoms: C6_21  and  C5_67 
REMARK       I    between atoms: C6_21  and  O6_75 
REMARK       I    between atoms: N_22  and  C2_66 
REMARK       I    between atoms: N_22  and  S1_69 
REMARK       I    between atoms: S2_23  and  O6_75 
REMARK       I    between atoms: C1_24  and  O4_78 
REMARK       I    between atoms: C4_25  and  O4_78 
REMARK       I    between atoms: O3_26  and  C3_81 
REMARK       I    between atoms: O1S_27  and  S1_60 
REMARK       I    between atoms: O3S_28  and  S1_69 
REMARK       I    between atoms: O3_29  and  C3_87 
REMARK       I    between atoms: C6_30  and  C5_80 
REMARK       I    between atoms: O2S_32  and  S1_60 
REMARK       I    between atoms: S1_33  and  N_73 
REMARK       I    between atoms: S1_33  and  O2S_94 
REMARK       I    between atoms: S1_33  and  O3S_35 
REMARK       I    between atoms: C6_34  and  C5_38 
REMARK       I    between atoms: C2_36  and  O2_93 
REMARK       I    between atoms: O3_37  and  C3_65 
REMARK       I    between atoms: C1_40  and  O1_105 
REMARK       I    between atoms: O2S_41  and  S1_69 
REMARK       I    between atoms: C5_42  and  C6_54 
REMARK       I    between atoms: O4_43  and  C4_92 
REMARK       I    between atoms: O1_44  and  C1_62 
REMARK       I    between atoms: O1_44  and  C4_83 
REMARK       I    between atoms: C1_45  and  O4_102 
REMARK       I    between atoms: C4_46  and  O1_105 
REMARK       I    between atoms: O3S_47  and  S1_60 
REMARK       I    between atoms: C5_53  and  C6_61 
REMARK       I    between atoms: C6_54  and  O6_98 
REMARK       I    between atoms: O3_56  and  C3_84 
REMARK       I    between atoms: C5_59  and  C6_63 
REMARK       I    between atoms: S1_60  and  N_86 
REMARK       I    between atoms: S1_69  and  O1S_91 
REMARK       I    between atoms: O1_70  and  C1_96 
REMARK       I    between atoms: S_82  and  O2_93 
REMARK       I    between atoms: N_86  and  C2_90 
REMARK       I    between atoms: S2_95  and  O6_98 
REMARK       I    between atoms: C4_100  and  O4_102 
ROOT
ATOM      1  S   IDS d 303      83.872  19.285  96.959  0.00  0.00     0.252 S 
ATOM      2  O2  IDS d 303      84.496  20.688  97.804  0.00  0.00    -0.244 OA
ATOM      3  O61 IDS d 303      87.387  23.650 101.743  0.00  0.00    -0.646 OA
ATOM      4  O3  IDS d 303      83.009  22.695 100.338  0.00  0.00    -0.390 OA
ATOM      5  O3S IDS d 303      82.438  19.434  96.910  0.00  0.00    -0.572 OA
ATOM      6  C1  IDS d 303      84.781  20.119 100.115  0.00  0.00     0.161 C 
ATOM      7  C4  IDS d 303      85.255  23.049  99.504  0.00  0.00     0.103 C 
ATOM      8  O2S IDS d 303      84.454  19.249  95.646  0.00  0.00    -0.572 OA
ATOM      9  C3  IDS d 303      83.863  22.414  99.291  0.00  0.00     0.094 C 
ATOM     10  C5  IDS d 303      86.041  22.179 100.482  0.00  0.00     0.152 C 
ATOM     11  C6  IDS d 303      87.359  22.797 100.853  0.00  0.00     0.206 C 
ATOM     12  O62 IDS d 303      88.372  22.251 100.376  0.00  0.00    -0.646 OA
ATOM     13  O5  IDS d 303      86.022  20.770 100.347  0.00  0.00    -0.340 OA
ATOM     14  C2  IDS d 303      83.954  20.894  99.068  0.00  0.00     0.134 C 
ATOM     15  O1S IDS d 303      84.251  18.130  97.705  0.00  0.00    -0.572 OA
ATOM     16  H   IDS d 303      82.960  23.655 100.468  0.00  0.00     0.210 HD
ATOM     17  H   IDS d 303      85.034  19.144  99.753  0.00  0.00     0.133 H 
ATOM     18  H   IDS d 303      85.122  24.051  99.858  0.00  0.00     0.092 H 
ATOM     19  H   IDS d 303      83.458  22.854  98.404  0.00  0.00     0.091 H 
ATOM     20  H   IDS d 303      85.419  22.204 101.352  0.00  0.00     0.104 H 
ATOM     21  H   IDS d 303      82.961  20.508  99.166  0.00  0.00     0.097 H 
ATOM     22  C3  SGN d 306      77.841  13.556 106.284  0.00  0.00     0.083 C 
ATOM     23  O1S SGN d 306      78.836  10.396 104.675  0.00  0.00    -0.296 OA
ATOM     24  O4S SGN d 306      74.052  18.729 102.798  0.00  0.00    -0.572 OA
ATOM     25  O5S SGN d 306      76.387  19.097 102.860  0.00  0.00    -0.572 OA
ATOM     26  C2  SGN d 306      76.926  12.737 105.386  0.00  0.00     0.081 C 
ATOM     27  O5  SGN d 306      75.581  14.710 104.974  0.00  0.00    -0.350 OA
ATOM     28  C6  SGN d 306      76.371  16.977 105.328  0.00  0.00     0.067 C 
ATOM     29  S2  SGN d 306      75.230  18.713 103.619  0.00  0.00     0.251 S 
ATOM     30  S1  SGN d 306      77.507  10.076 105.131  0.00  0.00     0.156 S 
ATOM     31  O3S SGN d 306      77.542   8.928 106.002  0.00  0.00    -0.296 OA
ATOM     32  O4  SGN d 306      78.746  15.773 106.607  0.00  0.00    -0.348 OA
ATOM     33  O3  SGN d 306      79.133  12.978 106.265  0.00  0.00    -0.391 OA
ATOM     34  O6S SGN d 306      75.074  19.593 104.750  0.00  0.00    -0.572 OA
ATOM     35  C5  SGN d 306      76.436  15.540 105.816  0.00  0.00     0.091 C 
ATOM     36  O1  SGN d 306      74.874  13.125 106.600  0.00  0.00    -0.369 OA
ATOM     37  N   SGN d 306      76.838  11.445 106.008  0.00  0.00    -0.210 NA
ATOM     38  O6  SGN d 306      75.503  17.087 104.221  0.00  0.00    -0.254 OA
ATOM     39  C4  SGN d 306      77.880  14.995 105.760  0.00  0.00     0.095 C 
ATOM     40  O2S SGN d 306      76.640   9.832 104.020  0.00  0.00    -0.296 OA
ATOM     41  C1  SGN d 306      75.502  13.313 105.336  0.00  0.00     0.147 C 
ATOM     42  H   SGN d 306      77.482  13.563 107.292  0.00  0.00     0.089 H 
ATOM     43  H   SGN d 306      78.801  11.169 104.090  0.00  0.00     0.231 HD
ATOM     44  H   SGN d 306      77.315  12.723 104.389  0.00  0.00     0.076 H 
ATOM     45  H   SGN d 306      77.350  17.295 105.040  0.00  0.00     0.080 H 
ATOM     46  H   SGN d 306      75.999  17.592 106.120  0.00  0.00     0.080 H 
ATOM     47  H   SGN d 306      78.133   9.106 106.749  0.00  0.00     0.231 HD
ATOM     48  H   SGN d 306      79.469  12.967 105.355  0.00  0.00     0.210 HD
ATOM     49  H   SGN d 306      76.104  15.514 106.833  0.00  0.00     0.090 H 
ATOM     50  H   SGN d 306      74.840  12.178 106.807  0.00  0.00     0.212 HD
ATOM     51  H   SGN d 306      75.850  11.251 106.171  0.00  0.00     0.140 HD
ATOM     52  H   SGN d 306      78.251  15.043 104.758  0.00  0.00     0.091 H 
ATOM     53  H   SGN d 306      76.626  10.612 103.444  0.00  0.00     0.231 HD
ATOM     54  H   SGN d 306      74.910  12.807 104.602  0.00  0.00     0.131 H 
ATOM     55  C2  UAP d 301      92.287  24.908  96.734  0.00  0.00     0.132 C 
ATOM     56  S   UAP d 301      93.671  27.123  96.967  0.00  0.00     0.252 S 
ATOM     57  O1S UAP d 301      95.000  27.399  96.580  0.00  0.00    -0.572 OA
ATOM     58  C1  UAP d 301      91.011  24.724  95.939  0.00  0.00     0.161 C 
ATOM     59  O61 UAP d 301      92.956  20.768  93.891  0.00  0.00    -0.646 OA
ATOM     60  C5  UAP d 301      92.053  22.726  94.959  0.00  0.00     0.127 C 
ATOM     61  O3  UAP d 301      92.634  23.250  98.375  0.00  0.00    -0.393 OA
ATOM     62  O2  UAP d 301      93.142  25.749  96.038  0.00  0.00    -0.244 OA
ATOM     63  O5  UAP d 301      91.184  23.838  94.839  0.00  0.00    -0.343 OA
ATOM     64  C6  UAP d 301      92.162  21.727  93.814  0.00  0.00     0.203 C 
ATOM     65  O62 UAP d 301      91.444  21.953  92.815  0.00  0.00    -0.646 OA
ATOM     66  O3S UAP d 301      92.791  28.194  96.616  0.00  0.00    -0.572 OA
ATOM     67  O2S UAP d 301      93.620  26.812  98.375  0.00  0.00    -0.572 OA
ATOM     68  C3  UAP d 301      93.096  23.662  97.127  0.00  0.00     0.069 C 
ATOM     69  C4  UAP d 301      93.023  22.482  96.118  0.00  0.00    -0.005 C 
ATOM     70  H   UAP d 301      91.926  25.301  97.661  0.00  0.00     0.097 H 
ATOM     71  H   UAP d 301      90.687  25.647  95.504  0.00  0.00     0.133 H 
ATOM     72  H   UAP d 301      91.273  22.981  95.644  0.00  0.00     0.100 H 
ATOM     73  H   UAP d 301      92.683  23.991  98.999  0.00  0.00     0.210 HD
ATOM     74  H   UAP d 301      94.129  23.941  97.137  0.00  0.00     0.087 H 
ATOM     75  H   UAP d 301      94.000  22.323  95.712  0.00  0.00     0.041 H 
ATOM     76  H   UAP d 301      92.661  21.631  96.655  0.00  0.00     0.041 H 
ATOM     77  O5  IDS d 305      80.460  16.274 104.981  0.00  0.00    -0.340 OA
ATOM     78  O62 IDS d 305      82.126  15.193 103.045  0.00  0.00    -0.646 OA
ATOM     79  C1  IDS d 305      79.606  16.759 106.019  0.00  0.00     0.161 C 
ATOM     80  O3  IDS d 305      82.035  16.349 108.399  0.00  0.00    -0.390 OA
ATOM     81  C6  IDS d 305      82.551  15.105 104.220  0.00  0.00     0.206 C 
ATOM     82  C2  IDS d 305      80.381  17.487 107.149  0.00  0.00     0.134 C 
ATOM     83  C5  IDS d 305      81.773  15.876 105.286  0.00  0.00     0.152 C 
ATOM     84  C3  IDS d 305      81.886  17.253 107.378  0.00  0.00     0.094 C 
ATOM     85  S   IDS d 305      80.042  20.051 106.215  0.00  0.00     0.252 S 
ATOM     86  C4  IDS d 305      82.657  16.785 106.128  0.00  0.00     0.103 C 
ATOM     87  O3S IDS d 305      79.463  21.219 106.770  0.00  0.00    -0.572 OA
ATOM     88  O1S IDS d 305      79.299  19.633 105.080  0.00  0.00    -0.572 OA
ATOM     89  O2  IDS d 305      79.942  18.801 107.466  0.00  0.00    -0.244 OA
ATOM     90  O61 IDS d 305      83.668  14.641 104.506  0.00  0.00    -0.646 OA
ATOM     91  O2S IDS d 305      81.401  20.266 105.873  0.00  0.00    -0.572 OA
ATOM     92  H   IDS d 305      78.982  17.458 105.502  0.00  0.00     0.133 H 
ATOM     93  H   IDS d 305      81.545  16.657 109.178  0.00  0.00     0.210 HD
ATOM     94  H   IDS d 305      80.018  16.833 107.915  0.00  0.00     0.097 H 
ATOM     95  H   IDS d 305      81.467  15.137 105.998  0.00  0.00     0.104 H 
ATOM     96  H   IDS d 305      82.317  18.200 107.629  0.00  0.00     0.091 H 
ATOM     97  H   IDS d 305      83.531  16.263 106.456  0.00  0.00     0.092 H 
ATOM     98  O6  SGN d 304      86.198  17.321 101.477  0.00  0.00    -0.254 OA
ATOM     99  S2  SGN d 304      87.103  16.548 100.197  0.00  0.00     0.251 S 
ATOM    100  O5S SGN d 304      88.436  17.090 100.213  0.00  0.00    -0.572 OA
ATOM    101  N   SGN d 304      84.025  20.308 106.021  0.00  0.00    -0.210 NA
ATOM    102  O3S SGN d 304      85.948  21.003 107.631  0.00  0.00    -0.296 OA
ATOM    103  C6  SGN d 304      84.794  17.085 101.539  0.00  0.00     0.067 C 
ATOM    104  O3  SGN d 304      84.361  21.567 103.543  0.00  0.00    -0.391 OA
ATOM    105  C5  SGN d 304      84.257  17.931 102.666  0.00  0.00     0.091 C 
ATOM    106  O2S SGN d 304      83.783  20.900 108.499  0.00  0.00    -0.296 OA
ATOM    107  O1  SGN d 304      83.029  17.907 105.319  0.00  0.00    -0.348 OA
ATOM    108  O4S SGN d 304      87.137  15.137 100.435  0.00  0.00    -0.572 OA
ATOM    109  C1  SGN d 304      84.424  18.125 105.092  0.00  0.00     0.150 C 
ATOM    110  C3  SGN d 304      84.057  20.190 103.661  0.00  0.00     0.083 C 
ATOM    111  C2  SGN d 304      84.703  19.639 104.937  0.00  0.00     0.081 C 
ATOM    112  S1  SGN d 304      84.723  20.270 107.635  0.00  0.00     0.156 S 
ATOM    113  O6S SGN d 304      86.456  16.847  98.939  0.00  0.00    -0.572 OA
ATOM    114  O1S SGN d 304      84.965  18.919 108.054  0.00  0.00    -0.296 OA
ATOM    115  O5  SGN d 304      84.867  17.457 103.896  0.00  0.00    -0.349 OA
ATOM    116  C4  SGN d 304      84.615  19.419 102.472  0.00  0.00     0.095 C 
ATOM    117  O4  SGN d 304      83.998  19.926 101.279  0.00  0.00    -0.348 OA
ATOM    118  H   SGN d 304      83.096  19.893 106.090  0.00  0.00     0.140 HD
ATOM    119  H   SGN d 304      85.778  21.915 107.347  0.00  0.00     0.231 HD
ATOM    120  H   SGN d 304      84.602  16.050 101.732  0.00  0.00     0.080 H 
ATOM    121  H   SGN d 304      84.322  17.338 100.612  0.00  0.00     0.080 H 
ATOM    122  H   SGN d 304      84.000  22.044 104.307  0.00  0.00     0.210 HD
ATOM    123  H   SGN d 304      83.191  17.848 102.695  0.00  0.00     0.090 H 
ATOM    124  H   SGN d 304      83.631  21.810 108.203  0.00  0.00     0.231 HD
ATOM    125  H   SGN d 304      84.956  17.729 105.933  0.00  0.00     0.131 H 
ATOM    126  H   SGN d 304      82.994  20.077 103.695  0.00  0.00     0.089 H 
ATOM    127  H   SGN d 304      85.761  19.793 104.920  0.00  0.00     0.076 H 
ATOM    128  H   SGN d 304      85.606  18.505 107.455  0.00  0.00     0.231 HD
ATOM    129  H   SGN d 304      85.677  19.527 102.392  0.00  0.00     0.091 H 
ATOM    130  O5S SGN d 302      88.071  29.693  99.700  0.00  0.00    -0.572 OA
ATOM    131  C4  SGN d 302      88.737  24.540  96.701  0.00  0.00     0.095 C 
ATOM    132  O1S SGN d 302      85.549  21.799  93.190  0.00  0.00    -0.296 OA
ATOM    133  O3  SGN d 302      88.499  22.919  94.954  0.00  0.00    -0.391 OA
ATOM    134  O2S SGN d 302      84.723  23.924  93.810  0.00  0.00    -0.296 OA
ATOM    135  C1  SGN d 302      85.957  24.167  97.420  0.00  0.00     0.150 C 
ATOM    136  C5  SGN d 302      88.184  24.962  98.054  0.00  0.00     0.091 C 
ATOM    137  O3S SGN d 302      83.553  21.996  94.457  0.00  0.00    -0.296 OA
ATOM    138  O5  SGN d 302      86.770  25.263  97.916  0.00  0.00    -0.349 OA
ATOM    139  C6  SGN d 302      88.953  26.174  98.561  0.00  0.00     0.067 C 
ATOM    140  S1  SGN d 302      84.858  22.555  94.204  0.00  0.00     0.156 S 
ATOM    141  O4S SGN d 302      87.759  27.907 101.216  0.00  0.00    -0.572 OA
ATOM    142  O6S SGN d 302      89.895  28.340 100.291  0.00  0.00    -0.572 OA
ATOM    143  O4  SGN d 302      90.087  24.214  96.858  0.00  0.00    -0.348 OA
ATOM    144  N   SGN d 302      85.814  22.527  95.692  0.00  0.00    -0.210 NA
ATOM    145  C3  SGN d 302      87.985  23.318  96.212  0.00  0.00     0.083 C 
ATOM    146  C2  SGN d 302      86.527  23.724  96.070  0.00  0.00     0.081 C 
ATOM    147  S2  SGN d 302      88.473  28.359 100.055  0.00  0.00     0.251 S 
ATOM    148  O6  SGN d 302      88.110  27.296  98.705  0.00  0.00    -0.254 OA
ATOM    149  O1  SGN d 302      85.999  23.029  98.280  0.00  0.00    -0.348 OA
ATOM    150  H   SGN d 302      88.626  25.333  95.992  0.00  0.00     0.091 H 
ATOM    151  H   SGN d 302      85.031  21.809  92.370  0.00  0.00     0.231 HD
ATOM    152  H   SGN d 302      89.429  22.661  95.051  0.00  0.00     0.210 HD
ATOM    153  H   SGN d 302      84.201  23.976  92.994  0.00  0.00     0.231 HD
ATOM    154  H   SGN d 302      84.947  24.515  97.354  0.00  0.00     0.131 H 
ATOM    155  H   SGN d 302      88.298  24.171  98.765  0.00  0.00     0.090 H 
ATOM    156  H   SGN d 302      83.031  22.013  93.640  0.00  0.00     0.231 HD
ATOM    157  H   SGN d 302      89.730  26.410  97.864  0.00  0.00     0.080 H 
ATOM    158  H   SGN d 302      89.363  25.935  99.520  0.00  0.00     0.080 H 
ATOM    159  H   SGN d 302      86.505  21.783  95.593  0.00  0.00     0.140 HD
ATOM    160  H   SGN d 302      88.089  22.500  96.894  0.00  0.00     0.089 H 
ATOM    161  H   SGN d 302      86.436  24.523  95.363  0.00  0.00     0.076 H 
ENDROOT
TORSDOF 50
ENDMDL
MODEL 23
REMARK VINA RESULT:     -10.7      7.295     13.095
REMARK  0 active torsions:
REMARK  status: ('A' for Active; 'I' for Inactive)
REMARK       I    between atoms: S_1  and  O2_2 
REMARK       I    between atoms: O2_2  and  C2_99 
REMARK       I    between atoms: C3_3  and  O3_50 
REMARK       I    between atoms: C2_5  and  O2_57 
REMARK       I    between atoms: O1S_6  and  S1_33 
REMARK       I    between atoms: O3_7  and  C3_52 
REMARK       I    between atoms: O6_9  and  C6_34 
REMARK       I    between atoms: O6_9  and  S2_17 
REMARK       I    between atoms: C2_13  and  N_73 
REMARK       I    between atoms: S_16  and  O2_57 
REMARK       I    between atoms: C1_20  and  O4_43 
REMARK       I    between atoms: C6_21  and  C5_67 
REMARK       I    between atoms: C6_21  and  O6_75 
REMARK       I    between atoms: N_22  and  C2_66 
REMARK       I    between atoms: N_22  and  S1_69 
REMARK       I    between atoms: S2_23  and  O6_75 
REMARK       I    between atoms: C1_24  and  O4_78 
REMARK       I    between atoms: C4_25  and  O4_78 
REMARK       I    between atoms: O3_26  and  C3_81 
REMARK       I    between atoms: O1S_27  and  S1_60 
REMARK       I    between atoms: O3S_28  and  S1_69 
REMARK       I    between atoms: O3_29  and  C3_87 
REMARK       I    between atoms: C6_30  and  C5_80 
REMARK       I    between atoms: O2S_32  and  S1_60 
REMARK       I    between atoms: S1_33  and  N_73 
REMARK       I    between atoms: S1_33  and  O2S_94 
REMARK       I    between atoms: S1_33  and  O3S_35 
REMARK       I    between atoms: C6_34  and  C5_38 
REMARK       I    between atoms: C2_36  and  O2_93 
REMARK       I    between atoms: O3_37  and  C3_65 
REMARK       I    between atoms: C1_40  and  O1_105 
REMARK       I    between atoms: O2S_41  and  S1_69 
REMARK       I    between atoms: C5_42  and  C6_54 
REMARK       I    between atoms: O4_43  and  C4_92 
REMARK       I    between atoms: O1_44  and  C1_62 
REMARK       I    between atoms: O1_44  and  C4_83 
REMARK       I    between atoms: C1_45  and  O4_102 
REMARK       I    between atoms: C4_46  and  O1_105 
REMARK       I    between atoms: O3S_47  and  S1_60 
REMARK       I    between atoms: C5_53  and  C6_61 
REMARK       I    between atoms: C6_54  and  O6_98 
REMARK       I    between atoms: O3_56  and  C3_84 
REMARK       I    between atoms: C5_59  and  C6_63 
REMARK       I    between atoms: S1_60  and  N_86 
REMARK       I    between atoms: S1_69  and  O1S_91 
REMARK       I    between atoms: O1_70  and  C1_96 
REMARK       I    between atoms: S_82  and  O2_93 
REMARK       I    between atoms: N_86  and  C2_90 
REMARK       I    between atoms: S2_95  and  O6_98 
REMARK       I    between atoms: C4_100  and  O4_102 
ROOT
ATOM      1  S   IDS d 303      77.170  22.998 105.041  0.00  0.00     0.252 S 
ATOM      2  O2  IDS d 303      76.976  21.288 104.707  0.00  0.00    -0.244 OA
ATOM      3  O61 IDS d 303      76.494  16.517 101.600  0.00  0.00    -0.646 OA
ATOM      4  O3  IDS d 303      74.025  19.317 104.450  0.00  0.00    -0.390 OA
ATOM      5  O3S IDS d 303      76.056  23.388 105.870  0.00  0.00    -0.572 OA
ATOM      6  C1  IDS d 303      75.866  21.048 102.596  0.00  0.00     0.161 C 
ATOM      7  C4  IDS d 303      76.252  18.437 104.085  0.00  0.00     0.103 C 
ATOM      8  O2S IDS d 303      78.429  23.191 105.706  0.00  0.00    -0.572 OA
ATOM      9  C3  IDS d 303      75.365  19.558 104.673  0.00  0.00     0.094 C 
ATOM     10  C5  IDS d 303      76.381  18.660 102.581  0.00  0.00     0.152 C 
ATOM     11  C6  IDS d 303      77.115  17.537 101.905  0.00  0.00     0.206 C 
ATOM     12  O62 IDS d 303      78.267  17.799 101.507  0.00  0.00    -0.646 OA
ATOM     13  O5  IDS d 303      76.620  19.962 102.078  0.00  0.00    -0.340 OA
ATOM     14  C2  IDS d 303      75.758  20.943 104.132  0.00  0.00     0.134 C 
ATOM     15  O1S IDS d 303      77.156  23.685 103.791  0.00  0.00    -0.572 OA
ATOM     16  H   IDS d 303      73.791  18.442 104.796  0.00  0.00     0.210 HD
ATOM     17  H   IDS d 303      76.404  21.929 102.313  0.00  0.00     0.133 H 
ATOM     18  H   IDS d 303      75.810  17.491 104.325  0.00  0.00     0.092 H 
ATOM     19  H   IDS d 303      75.533  19.557 105.731  0.00  0.00     0.091 H 
ATOM     20  H   IDS d 303      75.362  18.616 102.259  0.00  0.00     0.104 H 
ATOM     21  H   IDS d 303      74.965  21.613 104.394  0.00  0.00     0.097 H 
ATOM     22  C3  SGN d 306      67.473  27.640  98.673  0.00  0.00     0.083 C 
ATOM     23  O1S SGN d 306      69.617  30.556  97.989  0.00  0.00    -0.296 OA
ATOM     24  O4S SGN d 306      65.983  25.346 105.440  0.00  0.00    -0.572 OA
ATOM     25  O5S SGN d 306      67.733  24.172 104.369  0.00  0.00    -0.572 OA
ATOM     26  C2  SGN d 306      67.400  28.947  99.448  0.00  0.00     0.081 C 
ATOM     27  O5  SGN d 306      66.352  27.779 101.297  0.00  0.00    -0.350 OA
ATOM     28  C6  SGN d 306      66.481  25.378 101.619  0.00  0.00     0.067 C 
ATOM     29  S2  SGN d 306      66.411  24.712 104.225  0.00  0.00     0.251 S 
ATOM     30  S1  SGN d 306      68.335  31.185  98.185  0.00  0.00     0.156 S 
ATOM     31  O3S SGN d 306      67.974  31.953  97.020  0.00  0.00    -0.296 OA
ATOM     32  O4  SGN d 306      67.717  25.251  98.938  0.00  0.00    -0.348 OA
ATOM     33  O3  SGN d 306      68.569  27.701  97.780  0.00  0.00    -0.391 OA
ATOM     34  O6S SGN d 306      65.495  23.666 103.845  0.00  0.00    -0.572 OA
ATOM     35  C5  SGN d 306      66.411  26.499 100.597  0.00  0.00     0.091 C 
ATOM     36  O1  SGN d 306      65.004  28.989  99.756  0.00  0.00    -0.369 OA
ATOM     37  N   SGN d 306      67.110  29.956  98.468  0.00  0.00    -0.210 NA
ATOM     38  O6  SGN d 306      66.459  25.897 102.930  0.00  0.00    -0.254 OA
ATOM     39  C4  SGN d 306      67.645  26.489  99.669  0.00  0.00     0.095 C 
ATOM     40  O2S SGN d 306      68.358  32.021  99.345  0.00  0.00    -0.296 OA
ATOM     41  C1  SGN d 306      66.241  28.952 100.458  0.00  0.00     0.147 C 
ATOM     42  H   SGN d 306      66.578  27.479  98.109  0.00  0.00     0.089 H 
ATOM     43  H   SGN d 306      69.849  30.042  98.778  0.00  0.00     0.231 HD
ATOM     44  H   SGN d 306      68.312  29.100  99.987  0.00  0.00     0.076 H 
ATOM     45  H   SGN d 306      67.386  24.827 101.475  0.00  0.00     0.080 H 
ATOM     46  H   SGN d 306      65.633  24.739 101.487  0.00  0.00     0.080 H 
ATOM     47  H   SGN d 306      67.962  31.375  96.242  0.00  0.00     0.231 HD
ATOM     48  H   SGN d 306      69.387  27.847  98.281  0.00  0.00     0.210 HD
ATOM     49  H   SGN d 306      65.537  26.356  99.998  0.00  0.00     0.090 H 
ATOM     50  H   SGN d 306      64.967  29.788  99.206  0.00  0.00     0.212 HD
ATOM     51  H   SGN d 306      66.259  30.434  98.764  0.00  0.00     0.140 HD
ATOM     52  H   SGN d 306      68.539  26.595 100.247  0.00  0.00     0.091 H 
ATOM     53  H   SGN d 306      68.602  31.491 100.120  0.00  0.00     0.231 HD
ATOM     54  H   SGN d 306      66.284  29.819 101.085  0.00  0.00     0.131 H 
ATOM     55  C2  UAP d 301      83.228  15.057 103.386  0.00  0.00     0.132 C 
ATOM     56  S   UAP d 301      83.903  12.525 103.475  0.00  0.00     0.252 S 
ATOM     57  O1S UAP d 301      85.148  11.916 103.208  0.00  0.00    -0.572 OA
ATOM     58  C1  UAP d 301      82.731  15.897 104.545  0.00  0.00     0.161 C 
ATOM     59  O61 UAP d 301      85.985  19.308 103.359  0.00  0.00    -0.646 OA
ATOM     60  C5  UAP d 301      84.388  17.584 103.875  0.00  0.00     0.127 C 
ATOM     61  O3  UAP d 301      82.707  15.954 101.268  0.00  0.00    -0.393 OA
ATOM     62  O2  UAP d 301      84.220  14.198 103.837  0.00  0.00    -0.244 OA
ATOM     63  O5  UAP d 301      83.643  16.934 104.890  0.00  0.00    -0.343 OA
ATOM     64  C6  UAP d 301      85.291  18.757 104.237  0.00  0.00     0.203 C 
ATOM     65  O62 UAP d 301      85.306  19.089 105.442  0.00  0.00    -0.646 OA
ATOM     66  O3S UAP d 301      83.295  11.980 104.649  0.00  0.00    -0.572 OA
ATOM     67  O2S UAP d 301      83.046  12.427 102.318  0.00  0.00    -0.572 OA
ATOM     68  C3  UAP d 301      83.776  15.772 102.142  0.00  0.00     0.069 C 
ATOM     69  C4  UAP d 301      84.476  17.133 102.416  0.00  0.00    -0.005 C 
ATOM     70  H   UAP d 301      82.334  14.576 103.051  0.00  0.00     0.097 H 
ATOM     71  H   UAP d 301      82.628  15.311 105.434  0.00  0.00     0.133 H 
ATOM     72  H   UAP d 301      83.328  17.441 103.873  0.00  0.00     0.100 H 
ATOM     73  H   UAP d 301      82.276  15.101 101.102  0.00  0.00     0.210 HD
ATOM     74  H   UAP d 301      84.548  15.154 101.731  0.00  0.00     0.087 H 
ATOM     75  H   UAP d 301      85.509  17.041 102.152  0.00  0.00     0.041 H 
ATOM     76  H   UAP d 301      83.969  17.870 101.829  0.00  0.00     0.041 H 
ATOM     77  O5  IDS d 305      69.989  24.650  99.496  0.00  0.00    -0.340 OA
ATOM     78  O62 IDS d 305      72.604  25.564  99.620  0.00  0.00    -0.646 OA
ATOM     79  C1  IDS d 305      68.628  24.231  99.369  0.00  0.00     0.161 C 
ATOM     80  O3  IDS d 305      69.141  23.067  96.187  0.00  0.00    -0.390 OA
ATOM     81  C6  IDS d 305      72.235  25.163  98.492  0.00  0.00     0.206 C 
ATOM     82  C2  IDS d 305      68.462  22.990  98.452  0.00  0.00     0.134 C 
ATOM     83  C5  IDS d 305      70.882  24.453  98.430  0.00  0.00     0.152 C 
ATOM     84  C3  IDS d 305      69.534  22.599  97.416  0.00  0.00     0.094 C 
ATOM     85  S   IDS d 305      68.450  21.084 100.434  0.00  0.00     0.252 S 
ATOM     86  C4  IDS d 305      70.954  23.093  97.751  0.00  0.00     0.103 C 
ATOM     87  O3S IDS d 305      67.516  20.093 100.824  0.00  0.00    -0.572 OA
ATOM     88  O1S IDS d 305      68.606  22.038 101.473  0.00  0.00    -0.572 OA
ATOM     89  O2  IDS d 305      67.765  21.885  99.011  0.00  0.00    -0.244 OA
ATOM     90  O61 IDS d 305      72.995  25.100  97.511  0.00  0.00    -0.646 OA
ATOM     91  O2S IDS d 305      69.698  20.506 100.093  0.00  0.00    -0.572 OA
ATOM     92  H   IDS d 305      68.367  23.973 100.374  0.00  0.00     0.133 H 
ATOM     93  H   IDS d 305      68.245  22.748  95.991  0.00  0.00     0.210 HD
ATOM     94  H   IDS d 305      67.791  23.487  97.782  0.00  0.00     0.097 H 
ATOM     95  H   IDS d 305      70.300  25.022  97.734  0.00  0.00     0.104 H 
ATOM     96  H   IDS d 305      69.604  21.532  97.423  0.00  0.00     0.091 H 
ATOM     97  H   IDS d 305      71.506  23.157  96.836  0.00  0.00     0.092 H 
ATOM     98  O6  SGN d 304      76.493  22.660  99.646  0.00  0.00    -0.254 OA
ATOM     99  S2  SGN d 304      78.075  23.386  99.803  0.00  0.00     0.251 S 
ATOM    100  O5S SGN d 304      79.047  22.425  99.350  0.00  0.00    -0.572 OA
ATOM    101  N   SGN d 304      71.664  19.495  98.670  0.00  0.00    -0.210 NA
ATOM    102  O3S SGN d 304      72.112  17.742  96.799  0.00  0.00    -0.296 OA
ATOM    103  C6  SGN d 304      75.382  23.351 100.210  0.00  0.00     0.067 C 
ATOM    104  O3  SGN d 304      73.279  18.946 100.890  0.00  0.00    -0.391 OA
ATOM    105  C5  SGN d 304      74.173  22.472 100.012  0.00  0.00     0.091 C 
ATOM    106  O2S SGN d 304      69.897  18.360  97.207  0.00  0.00    -0.296 OA
ATOM    107  O1  SGN d 304      71.601  22.187  98.653  0.00  0.00    -0.348 OA
ATOM    108  O4S SGN d 304      78.130  24.566  98.995  0.00  0.00    -0.572 OA
ATOM    109  C1  SGN d 304      72.808  21.561  98.208  0.00  0.00     0.150 C 
ATOM    110  C3  SGN d 304      73.136  20.249 100.357  0.00  0.00     0.083 C 
ATOM    111  C2  SGN d 304      72.935  20.154  98.841  0.00  0.00     0.081 C 
ATOM    112  S1  SGN d 304      71.236  18.829  97.099  0.00  0.00     0.156 S 
ATOM    113  O6S SGN d 304      78.295  23.701 101.196  0.00  0.00    -0.572 OA
ATOM    114  O1S SGN d 304      71.337  19.831  96.077  0.00  0.00    -0.296 OA
ATOM    115  O5  SGN d 304      73.963  22.334  98.582  0.00  0.00    -0.349 OA
ATOM    116  C4  SGN d 304      74.391  21.072 100.623  0.00  0.00     0.095 C 
ATOM    117  O4  SGN d 304      74.568  21.172 102.044  0.00  0.00    -0.348 OA
ATOM    118  H   SGN d 304      70.943  20.176  98.909  0.00  0.00     0.140 HD
ATOM    119  H   SGN d 304      72.039  17.068  97.493  0.00  0.00     0.231 HD
ATOM    120  H   SGN d 304      75.241  24.289  99.713  0.00  0.00     0.080 H 
ATOM    121  H   SGN d 304      75.543  23.553 101.249  0.00  0.00     0.080 H 
ATOM    122  H   SGN d 304      72.473  18.435 100.713  0.00  0.00     0.210 HD
ATOM    123  H   SGN d 304      73.328  22.916 100.496  0.00  0.00     0.090 H 
ATOM    124  H   SGN d 304      69.847  17.684  97.901  0.00  0.00     0.231 HD
ATOM    125  H   SGN d 304      72.763  21.490  97.141  0.00  0.00     0.131 H 
ATOM    126  H   SGN d 304      72.295  20.718 100.822  0.00  0.00     0.089 H 
ATOM    127  H   SGN d 304      73.758  19.646  98.383  0.00  0.00     0.076 H 
ATOM    128  H   SGN d 304      72.254  20.141  96.016  0.00  0.00     0.231 HD
ATOM    129  H   SGN d 304      75.259  20.621 100.190  0.00  0.00     0.091 H 
ATOM    130  O5S SGN d 302      77.533  11.456 105.402  0.00  0.00    -0.572 OA
ATOM    131  C4  SGN d 302      80.506  16.656 105.052  0.00  0.00     0.095 C 
ATOM    132  O1S SGN d 302      80.469  21.215 108.088  0.00  0.00    -0.296 OA
ATOM    133  O3  SGN d 302      81.577  18.675 105.767  0.00  0.00    -0.391 OA
ATOM    134  O2S SGN d 302      79.184  19.439 108.971  0.00  0.00    -0.296 OA
ATOM    135  C1  SGN d 302      77.932  17.774 105.766  0.00  0.00     0.150 C 
ATOM    136  C5  SGN d 302      79.198  16.096 104.510  0.00  0.00     0.091 C 
ATOM    137  O3S SGN d 302      78.108  21.393 108.244  0.00  0.00    -0.296 OA
ATOM    138  O5  SGN d 302      78.135  16.369 105.462  0.00  0.00    -0.349 OA
ATOM    139  C6  SGN d 302      79.347  14.600 104.271  0.00  0.00     0.067 C 
ATOM    140  S1  SGN d 302      79.218  20.502 108.013  0.00  0.00     0.156 S 
ATOM    141  O4S SGN d 302      76.585  12.736 103.656  0.00  0.00    -0.572 OA
ATOM    142  O6S SGN d 302      78.772  11.850 103.448  0.00  0.00    -0.572 OA
ATOM    143  O4  SGN d 302      81.511  16.423 104.109  0.00  0.00    -0.348 OA
ATOM    144  N   SGN d 302      79.069  19.771 106.410  0.00  0.00    -0.210 NA
ATOM    145  C3  SGN d 302      80.361  18.149 105.265  0.00  0.00     0.083 C 
ATOM    146  C2  SGN d 302      79.253  18.345 106.287  0.00  0.00     0.081 C 
ATOM    147  S2  SGN d 302      77.796  12.404 104.354  0.00  0.00     0.251 S 
ATOM    148  O6  SGN d 302      78.460  13.859 105.079  0.00  0.00    -0.254 OA
ATOM    149  O1  SGN d 302      77.581  18.533 104.609  0.00  0.00    -0.348 OA
ATOM    150  H   SGN d 302      80.752  16.185 105.981  0.00  0.00     0.091 H 
ATOM    151  H   SGN d 302      80.558  21.619 108.965  0.00  0.00     0.231 HD
ATOM    152  H   SGN d 302      82.280  18.548 105.110  0.00  0.00     0.210 HD
ATOM    153  H   SGN d 302      79.264  19.806 109.865  0.00  0.00     0.231 HD
ATOM    154  H   SGN d 302      77.137  17.841 106.478  0.00  0.00     0.131 H 
ATOM    155  H   SGN d 302      78.953  16.562 103.579  0.00  0.00     0.090 H 
ATOM    156  H   SGN d 302      78.192  21.792 109.124  0.00  0.00     0.231 HD
ATOM    157  H   SGN d 302      80.351  14.309 104.498  0.00  0.00     0.080 H 
ATOM    158  H   SGN d 302      79.115  14.400 103.246  0.00  0.00     0.080 H 
ATOM    159  H   SGN d 302      79.762  20.217 105.809  0.00  0.00     0.140 HD
ATOM    160  H   SGN d 302      80.129  18.652 104.350  0.00  0.00     0.089 H 
ATOM    161  H   SGN d 302      79.513  17.862 107.207  0.00  0.00     0.076 H 
ENDROOT
TORSDOF 50
ENDMDL
MODEL 24
REMARK VINA RESULT:     -10.7      3.896      5.214
REMARK  0 active torsions:
REMARK  status: ('A' for Active; 'I' for Inactive)
REMARK       I    between atoms: S_1  and  O2_2 
REMARK       I    between atoms: O2_2  and  C2_99 
REMARK       I    between atoms: C3_3  and  O3_50 
REMARK       I    between atoms: C2_5  and  O2_57 
REMARK       I    between atoms: O1S_6  and  S1_33 
REMARK       I    between atoms: O3_7  and  C3_52 
REMARK       I    between atoms: O6_9  and  C6_34 
REMARK       I    between atoms: O6_9  and  S2_17 
REMARK       I    between atoms: C2_13  and  N_73 
REMARK       I    between atoms: S_16  and  O2_57 
REMARK       I    between atoms: C1_20  and  O4_43 
REMARK       I    between atoms: C6_21  and  C5_67 
REMARK       I    between atoms: C6_21  and  O6_75 
REMARK       I    between atoms: N_22  and  C2_66 
REMARK       I    between atoms: N_22  and  S1_69 
REMARK       I    between atoms: S2_23  and  O6_75 
REMARK       I    between atoms: C1_24  and  O4_78 
REMARK       I    between atoms: C4_25  and  O4_78 
REMARK       I    between atoms: O3_26  and  C3_81 
REMARK       I    between atoms: O1S_27  and  S1_60 
REMARK       I    between atoms: O3S_28  and  S1_69 
REMARK       I    between atoms: O3_29  and  C3_87 
REMARK       I    between atoms: C6_30  and  C5_80 
REMARK       I    between atoms: O2S_32  and  S1_60 
REMARK       I    between atoms: S1_33  and  N_73 
REMARK       I    between atoms: S1_33  and  O2S_94 
REMARK       I    between atoms: S1_33  and  O3S_35 
REMARK       I    between atoms: C6_34  and  C5_38 
REMARK       I    between atoms: C2_36  and  O2_93 
REMARK       I    between atoms: O3_37  and  C3_65 
REMARK       I    between atoms: C1_40  and  O1_105 
REMARK       I    between atoms: O2S_41  and  S1_69 
REMARK       I    between atoms: C5_42  and  C6_54 
REMARK       I    between atoms: O4_43  and  C4_92 
REMARK       I    between atoms: O1_44  and  C1_62 
REMARK       I    between atoms: O1_44  and  C4_83 
REMARK       I    between atoms: C1_45  and  O4_102 
REMARK       I    between atoms: C4_46  and  O1_105 
REMARK       I    between atoms: O3S_47  and  S1_60 
REMARK       I    between atoms: C5_53  and  C6_61 
REMARK       I    between atoms: C6_54  and  O6_98 
REMARK       I    between atoms: O3_56  and  C3_84 
REMARK       I    between atoms: C5_59  and  C6_63 
REMARK       I    between atoms: S1_60  and  N_86 
REMARK       I    between atoms: S1_69  and  O1S_91 
REMARK       I    between atoms: O1_70  and  C1_96 
REMARK       I    between atoms: S_82  and  O2_93 
REMARK       I    between atoms: N_86  and  C2_90 
REMARK       I    between atoms: S2_95  and  O6_98 
REMARK       I    between atoms: C4_100  and  O4_102 
ROOT
ATOM      1  S   IDS d 303      75.282  21.893 102.758  0.00  0.00     0.252 S 
ATOM      2  O2  IDS d 303      76.182  21.212 101.417  0.00  0.00    -0.244 OA
ATOM      3  O61 IDS d 303      80.148  18.091  98.737  0.00  0.00    -0.646 OA
ATOM      4  O3  IDS d 303      78.916  22.546  99.571  0.00  0.00    -0.390 OA
ATOM      5  O3S IDS d 303      75.318  23.325 102.597  0.00  0.00    -0.572 OA
ATOM      6  C1  IDS d 303      78.433  20.813 102.138  0.00  0.00     0.161 C 
ATOM      7  C4  IDS d 303      77.990  20.342  99.177  0.00  0.00     0.103 C 
ATOM      8  O2S IDS d 303      73.940  21.379 102.711  0.00  0.00    -0.572 OA
ATOM      9  C3  IDS d 303      77.810  21.750  99.788  0.00  0.00     0.094 C 
ATOM     10  C5  IDS d 303      78.867  19.515 100.114  0.00  0.00     0.152 C 
ATOM     11  C6  IDS d 303      79.207  18.174  99.530  0.00  0.00     0.206 C 
ATOM     12  O62 IDS d 303      78.644  17.192 100.051  0.00  0.00    -0.646 OA
ATOM     13  O5  IDS d 303      78.641  19.555 101.511  0.00  0.00    -0.340 OA
ATOM     14  C2  IDS d 303      77.484  21.685 101.290  0.00  0.00     0.134 C 
ATOM     15  O1S IDS d 303      75.930  21.486 103.962  0.00  0.00    -0.572 OA
ATOM     16  H   IDS d 303      79.110  22.578  98.622  0.00  0.00     0.210 HD
ATOM     17  H   IDS d 303      77.995  20.588 103.088  0.00  0.00     0.133 H 
ATOM     18  H   IDS d 303      78.415  20.447  98.200  0.00  0.00     0.092 H 
ATOM     19  H   IDS d 303      76.975  22.196  99.288  0.00  0.00     0.091 H 
ATOM     20  H   IDS d 303      79.768  20.091 100.143  0.00  0.00     0.104 H 
ATOM     21  H   IDS d 303      77.608  22.676 101.676  0.00  0.00     0.097 H 
ATOM     22  C3  SGN d 306      84.517  27.485 109.048  0.00  0.00     0.083 C 
ATOM     23  O1S SGN d 306      82.656  26.606 112.102  0.00  0.00    -0.296 OA
ATOM     24  O4S SGN d 306      81.579  31.400 103.634  0.00  0.00    -0.572 OA
ATOM     25  O5S SGN d 306      81.542  29.062 103.285  0.00  0.00    -0.572 OA
ATOM     26  C2  SGN d 306      83.617  28.453 109.801  0.00  0.00     0.081 C 
ATOM     27  O5  SGN d 306      83.406  29.800 107.796  0.00  0.00    -0.350 OA
ATOM     28  C6  SGN d 306      83.865  28.970 105.562  0.00  0.00     0.067 C 
ATOM     29  S2  SGN d 306      82.334  30.182 103.710  0.00  0.00     0.251 S 
ATOM     30  S1  SGN d 306      83.160  27.913 112.442  0.00  0.00     0.156 S 
ATOM     31  O3S SGN d 306      83.951  27.843 113.645  0.00  0.00    -0.296 OA
ATOM     32  O4  SGN d 306      84.936  26.543 106.862  0.00  0.00    -0.348 OA
ATOM     33  O3  SGN d 306      84.393  26.201 109.631  0.00  0.00    -0.391 OA
ATOM     34  O6S SGN d 306      83.527  30.270 102.906  0.00  0.00    -0.572 OA
ATOM     35  C5  SGN d 306      84.254  28.893 107.028  0.00  0.00     0.091 C 
ATOM     36  O1  SGN d 306      84.960  30.436 109.480  0.00  0.00    -0.369 OA
ATOM     37  N   SGN d 306      84.158  28.522 111.129  0.00  0.00    -0.210 NA
ATOM     38  O6  SGN d 306      82.814  29.893 105.374  0.00  0.00    -0.254 OA
ATOM     39  C4  SGN d 306      84.087  27.460 107.578  0.00  0.00     0.095 C 
ATOM     40  O2S SGN d 306      82.082  28.839 112.607  0.00  0.00    -0.296 OA
ATOM     41  C1  SGN d 306      83.680  29.872 109.214  0.00  0.00     0.147 C 
ATOM     42  H   SGN d 306      85.541  27.791 109.104  0.00  0.00     0.089 H 
ATOM     43  H   SGN d 306      82.126  26.664 111.292  0.00  0.00     0.231 HD
ATOM     44  H   SGN d 306      82.602  28.117 109.752  0.00  0.00     0.076 H 
ATOM     45  H   SGN d 306      83.547  28.004 105.232  0.00  0.00     0.080 H 
ATOM     46  H   SGN d 306      84.713  29.295 104.998  0.00  0.00     0.080 H 
ATOM     47  H   SGN d 306      84.676  27.213 113.520  0.00  0.00     0.231 HD
ATOM     48  H   SGN d 306      83.468  25.913 109.584  0.00  0.00     0.210 HD
ATOM     49  H   SGN d 306      85.283  29.172 107.119  0.00  0.00     0.090 H 
ATOM     50  H   SGN d 306      85.106  30.468 110.438  0.00  0.00     0.212 HD
ATOM     51  H   SGN d 306      84.359  29.502 111.327  0.00  0.00     0.140 HD
ATOM     52  H   SGN d 306      83.072  27.141 107.466  0.00  0.00     0.091 H 
ATOM     53  H   SGN d 306      81.559  28.875 111.791  0.00  0.00     0.231 HD
ATOM     54  H   SGN d 306      82.946  30.507 109.666  0.00  0.00     0.131 H 
ATOM     55  C2  UAP d 301      74.981  13.446  97.184  0.00  0.00     0.132 C 
ATOM     56  S   UAP d 301      75.286  12.031  94.998  0.00  0.00     0.252 S 
ATOM     57  O1S UAP d 301      74.848  10.721  94.707  0.00  0.00    -0.572 OA
ATOM     58  C1  UAP d 301      74.244  14.764  97.308  0.00  0.00     0.161 C 
ATOM     59  O61 UAP d 301      71.844  12.966 101.134  0.00  0.00    -0.646 OA
ATOM     60  C5  UAP d 301      73.083  13.793  99.244  0.00  0.00     0.127 C 
ATOM     61  O3  UAP d 301      76.490  13.030  98.949  0.00  0.00    -0.393 OA
ATOM     62  O2  UAP d 301      74.297  12.620  96.305  0.00  0.00    -0.244 OA
ATOM     63  O5  UAP d 301      73.081  14.657  98.122  0.00  0.00    -0.343 OA
ATOM     64  C6  UAP d 301      71.871  13.754 100.167  0.00  0.00     0.203 C 
ATOM     65  O62 UAP d 301      70.928  14.520  99.871  0.00  0.00    -0.646 OA
ATOM     66  O3S UAP d 301      75.051  12.917  93.901  0.00  0.00    -0.572 OA
ATOM     67  O2S UAP d 301      76.671  12.012  95.401  0.00  0.00    -0.572 OA
ATOM     68  C3  UAP d 301      75.249  12.631  98.459  0.00  0.00     0.069 C 
ATOM     69  C4  UAP d 301      74.171  12.767  99.569  0.00  0.00    -0.005 C 
ATOM     70  H   UAP d 301      75.950  13.755  96.851  0.00  0.00     0.097 H 
ATOM     71  H   UAP d 301      73.888  15.101  96.357  0.00  0.00     0.133 H 
ATOM     72  H   UAP d 301      73.823  14.535  99.030  0.00  0.00     0.100 H 
ATOM     73  H   UAP d 301      77.157  12.942  98.251  0.00  0.00     0.210 HD
ATOM     74  H   UAP d 301      75.223  11.595  98.188  0.00  0.00     0.087 H 
ATOM     75  H   UAP d 301      73.705  11.813  99.708  0.00  0.00     0.041 H 
ATOM     76  H   UAP d 301      74.670  13.109 100.452  0.00  0.00     0.041 H 
ATOM     77  O5  IDS d 305      83.258  24.911 106.267  0.00  0.00    -0.340 OA
ATOM     78  O62 IDS d 305      81.172  23.358 107.228  0.00  0.00    -0.646 OA
ATOM     79  C1  IDS d 305      84.369  25.706 105.845  0.00  0.00     0.161 C 
ATOM     80  O3  IDS d 305      86.587  23.160 106.425  0.00  0.00    -0.390 OA
ATOM     81  C6  IDS d 305      82.314  22.874 107.396  0.00  0.00     0.206 C 
ATOM     82  C2  IDS d 305      85.502  24.866 105.198  0.00  0.00     0.134 C 
ATOM     83  C5  IDS d 305      83.468  23.588 106.692  0.00  0.00     0.152 C 
ATOM     84  C3  IDS d 305      85.636  23.353 105.455  0.00  0.00     0.094 C 
ATOM     85  S   IDS d 305      84.756  25.228 102.576  0.00  0.00     0.252 S 
ATOM     86  C4  IDS d 305      84.320  22.653 105.845  0.00  0.00     0.103 C 
ATOM     87  O3S IDS d 305      85.416  25.767 101.443  0.00  0.00    -0.572 OA
ATOM     88  O1S IDS d 305      83.637  26.033 102.914  0.00  0.00    -0.572 OA
ATOM     89  O2  IDS d 305      85.926  25.275 103.905  0.00  0.00    -0.244 OA
ATOM     90  O61 IDS d 305      82.510  21.748 107.884  0.00  0.00    -0.646 OA
ATOM     91  O2S IDS d 305      84.358  23.887 102.348  0.00  0.00    -0.572 OA
ATOM     92  H   IDS d 305      83.933  26.349 105.110  0.00  0.00     0.133 H 
ATOM     93  H   IDS d 305      87.409  23.606 106.166  0.00  0.00     0.210 HD
ATOM     94  H   IDS d 305      86.242  25.195 105.898  0.00  0.00     0.097 H 
ATOM     95  H   IDS d 305      84.145  23.864 107.474  0.00  0.00     0.104 H 
ATOM     96  H   IDS d 305      85.925  22.901 104.529  0.00  0.00     0.091 H 
ATOM     97  H   IDS d 305      84.566  21.768 106.394  0.00  0.00     0.092 H 
ATOM     98  O6  SGN d 304      79.534  19.354 105.028  0.00  0.00    -0.254 OA
ATOM     99  S2  SGN d 304      78.160  18.524 105.721  0.00  0.00     0.251 S 
ATOM    100  O5S SGN d 304      78.141  17.186 105.189  0.00  0.00    -0.572 OA
ATOM    101  N   SGN d 304      84.370  21.258 102.332  0.00  0.00    -0.210 NA
ATOM    102  O3S SGN d 304      85.918  19.248 101.756  0.00  0.00    -0.296 OA
ATOM    103  C6  SGN d 304      79.653  20.755 105.259  0.00  0.00     0.067 C 
ATOM    104  O3  SGN d 304      81.965  21.039 100.915  0.00  0.00    -0.391 OA
ATOM    105  C5  SGN d 304      80.860  21.224 104.486  0.00  0.00     0.091 C 
ATOM    106  O2S SGN d 304      86.891  21.365 101.902  0.00  0.00    -0.296 OA
ATOM    107  O1  SGN d 304      83.566  22.313 104.675  0.00  0.00    -0.348 OA
ATOM    108  O4S SGN d 304      78.303  18.491 107.144  0.00  0.00    -0.572 OA
ATOM    109  C1  SGN d 304      83.281  20.929 104.452  0.00  0.00     0.150 C 
ATOM    110  C3  SGN d 304      82.010  21.350 102.295  0.00  0.00     0.083 C 
ATOM    111  C2  SGN d 304      83.211  20.645 102.932  0.00  0.00     0.081 C 
ATOM    112  S1  SGN d 304      85.940  20.478 102.479  0.00  0.00     0.156 S 
ATOM    113  O6S SGN d 304      76.960  19.232 105.336  0.00  0.00    -0.572 OA
ATOM    114  O1S SGN d 304      86.256  20.228 103.856  0.00  0.00    -0.296 OA
ATOM    115  O5  SGN d 304      82.023  20.555 105.042  0.00  0.00    -0.349 OA
ATOM    116  C4  SGN d 304      80.744  20.862 102.990  0.00  0.00     0.095 C 
ATOM    117  O4  SGN d 304      79.622  21.535 102.402  0.00  0.00    -0.348 OA
ATOM    118  H   SGN d 304      84.461  22.187 102.744  0.00  0.00     0.140 HD
ATOM    119  H   SGN d 304      85.705  19.423 100.826  0.00  0.00     0.231 HD
ATOM    120  H   SGN d 304      79.789  20.946 106.303  0.00  0.00     0.080 H 
ATOM    121  H   SGN d 304      78.771  21.272 104.943  0.00  0.00     0.080 H 
ATOM    122  H   SGN d 304      82.776  21.356 100.487  0.00  0.00     0.210 HD
ATOM    123  H   SGN d 304      80.940  22.288 104.563  0.00  0.00     0.090 H 
ATOM    124  H   SGN d 304      86.663  21.524 100.973  0.00  0.00     0.231 HD
ATOM    125  H   SGN d 304      84.065  20.359 104.905  0.00  0.00     0.131 H 
ATOM    126  H   SGN d 304      82.092  22.411 102.404  0.00  0.00     0.089 H 
ATOM    127  H   SGN d 304      83.148  19.587 102.784  0.00  0.00     0.076 H 
ATOM    128  H   SGN d 304      85.599  19.623 104.234  0.00  0.00     0.231 HD
ATOM    129  H   SGN d 304      80.617  19.805 102.884  0.00  0.00     0.091 H 
ATOM    130  O5S SGN d 302      78.470  17.456  92.578  0.00  0.00    -0.572 OA
ATOM    131  C4  SGN d 302      75.111  16.997  97.528  0.00  0.00     0.095 C 
ATOM    132  O1S SGN d 302      71.601  20.390 100.013  0.00  0.00    -0.296 OA
ATOM    133  O3  SGN d 302      73.277  17.341  99.029  0.00  0.00    -0.391 OA
ATOM    134  O2S SGN d 302      72.401  21.162  97.928  0.00  0.00    -0.296 OA
ATOM    135  C1  SGN d 302      75.949  19.739  97.930  0.00  0.00     0.150 C 
ATOM    136  C5  SGN d 302      76.516  17.475  97.191  0.00  0.00     0.091 C 
ATOM    137  O3S SGN d 302      72.981  22.314  99.886  0.00  0.00    -0.296 OA
ATOM    138  O5  SGN d 302      76.472  18.891  96.873  0.00  0.00    -0.349 OA
ATOM    139  C6  SGN d 302      77.059  16.668  96.020  0.00  0.00     0.067 C 
ATOM    140  S1  SGN d 302      72.697  21.019  99.320  0.00  0.00     0.156 S 
ATOM    141  O4S SGN d 302      79.881  17.706  94.457  0.00  0.00    -0.572 OA
ATOM    142  O6S SGN d 302      78.875  15.616  93.978  0.00  0.00    -0.572 OA
ATOM    143  O4  SGN d 302      75.175  15.643  97.871  0.00  0.00    -0.348 OA
ATOM    144  N   SGN d 302      74.127  19.987  99.452  0.00  0.00    -0.210 NA
ATOM    145  C3  SGN d 302      74.584  17.784  98.711  0.00  0.00     0.083 C 
ATOM    146  C2  SGN d 302      74.545  19.244  98.287  0.00  0.00     0.081 C 
ATOM    147  S2  SGN d 302      78.716  17.049  93.935  0.00  0.00     0.251 S 
ATOM    148  O6  SGN d 302      77.321  17.491  94.905  0.00  0.00    -0.254 OA
ATOM    149  O1  SGN d 302      76.730  19.663  99.122  0.00  0.00    -0.348 OA
ATOM    150  H   SGN d 302      74.462  17.137  96.689  0.00  0.00     0.091 H 
ATOM    151  H   SGN d 302      70.812  20.949  99.946  0.00  0.00     0.231 HD
ATOM    152  H   SGN d 302      73.308  16.410  99.299  0.00  0.00     0.210 HD
ATOM    153  H   SGN d 302      71.618  21.724  97.819  0.00  0.00     0.231 HD
ATOM    154  H   SGN d 302      75.959  20.747  97.572  0.00  0.00     0.131 H 
ATOM    155  H   SGN d 302      77.167  17.331  98.028  0.00  0.00     0.090 H 
ATOM    156  H   SGN d 302      72.196  22.878  99.813  0.00  0.00     0.231 HD
ATOM    157  H   SGN d 302      76.339  15.927  95.744  0.00  0.00     0.080 H 
ATOM    158  H   SGN d 302      77.978  16.212  96.324  0.00  0.00     0.080 H 
ATOM    159  H   SGN d 302      73.944  19.310 100.192  0.00  0.00     0.140 HD
ATOM    160  H   SGN d 302      75.204  17.653  99.572  0.00  0.00     0.089 H 
ATOM    161  H   SGN d 302      73.897  19.364  97.443  0.00  0.00     0.076 H 
ENDROOT
TORSDOF 50
ENDMDL
MODEL 25
REMARK VINA RESULT:     -10.7      4.268     15.175
REMARK  0 active torsions:
REMARK  status: ('A' for Active; 'I' for Inactive)
REMARK       I    between atoms: S_1  and  O2_2 
REMARK       I    between atoms: O2_2  and  C2_99 
REMARK       I    between atoms: C3_3  and  O3_50 
REMARK       I    between atoms: C2_5  and  O2_57 
REMARK       I    between atoms: O1S_6  and  S1_33 
REMARK       I    between atoms: O3_7  and  C3_52 
REMARK       I    between atoms: O6_9  and  C6_34 
REMARK       I    between atoms: O6_9  and  S2_17 
REMARK       I    between atoms: C2_13  and  N_73 
REMARK       I    between atoms: S_16  and  O2_57 
REMARK       I    between atoms: C1_20  and  O4_43 
REMARK       I    between atoms: C6_21  and  C5_67 
REMARK       I    between atoms: C6_21  and  O6_75 
REMARK       I    between atoms: N_22  and  C2_66 
REMARK       I    between atoms: N_22  and  S1_69 
REMARK       I    between atoms: S2_23  and  O6_75 
REMARK       I    between atoms: C1_24  and  O4_78 
REMARK       I    between atoms: C4_25  and  O4_78 
REMARK       I    between atoms: O3_26  and  C3_81 
REMARK       I    between atoms: O1S_27  and  S1_60 
REMARK       I    between atoms: O3S_28  and  S1_69 
REMARK       I    between atoms: O3_29  and  C3_87 
REMARK       I    between atoms: C6_30  and  C5_80 
REMARK       I    between atoms: O2S_32  and  S1_60 
REMARK       I    between atoms: S1_33  and  N_73 
REMARK       I    between atoms: S1_33  and  O2S_94 
REMARK       I    between atoms: S1_33  and  O3S_35 
REMARK       I    between atoms: C6_34  and  C5_38 
REMARK       I    between atoms: C2_36  and  O2_93 
REMARK       I    between atoms: O3_37  and  C3_65 
REMARK       I    between atoms: C1_40  and  O1_105 
REMARK       I    between atoms: O2S_41  and  S1_69 
REMARK       I    between atoms: C5_42  and  C6_54 
REMARK       I    between atoms: O4_43  and  C4_92 
REMARK       I    between atoms: O1_44  and  C1_62 
REMARK       I    between atoms: O1_44  and  C4_83 
REMARK       I    between atoms: C1_45  and  O4_102 
REMARK       I    between atoms: C4_46  and  O1_105 
REMARK       I    between atoms: O3S_47  and  S1_60 
REMARK       I    between atoms: C5_53  and  C6_61 
REMARK       I    between atoms: C6_54  and  O6_98 
REMARK       I    between atoms: O3_56  and  C3_84 
REMARK       I    between atoms: C5_59  and  C6_63 
REMARK       I    between atoms: S1_60  and  N_86 
REMARK       I    between atoms: S1_69  and  O1S_91 
REMARK       I    between atoms: O1_70  and  C1_96 
REMARK       I    between atoms: S_82  and  O2_93 
REMARK       I    between atoms: N_86  and  C2_90 
REMARK       I    between atoms: S2_95  and  O6_98 
REMARK       I    between atoms: C4_100  and  O4_102 
ROOT
ATOM      1  S   IDS d 303      88.068  26.705 102.190  0.00  0.00     0.252 S 
ATOM      2  O2  IDS d 303      86.804  27.028 103.360  0.00  0.00    -0.244 OA
ATOM      3  O61 IDS d 303      83.137  25.999 107.620  0.00  0.00    -0.646 OA
ATOM      4  O3  IDS d 303      83.264  26.908 103.014  0.00  0.00    -0.390 OA
ATOM      5  O3S IDS d 303      87.531  27.046 100.895  0.00  0.00    -0.572 OA
ATOM      6  C1  IDS d 303      85.619  24.987 103.782  0.00  0.00     0.161 C 
ATOM      7  C4  IDS d 303      84.383  27.420 105.101  0.00  0.00     0.103 C 
ATOM      8  O2S IDS d 303      89.213  27.505 102.525  0.00  0.00    -0.572 OA
ATOM      9  C3  IDS d 303      84.465  27.312 103.561  0.00  0.00     0.094 C 
ATOM     10  C5  IDS d 303      84.496  26.017 105.692  0.00  0.00     0.152 C 
ATOM     11  C6  IDS d 303      84.288  26.013 107.180  0.00  0.00     0.206 C 
ATOM     12  O62 IDS d 303      85.304  25.812 107.873  0.00  0.00    -0.646 OA
ATOM     13  O5  IDS d 303      85.464  25.114 105.189  0.00  0.00    -0.340 OA
ATOM     14  C2  IDS d 303      85.600  26.376 103.112  0.00  0.00     0.134 C 
ATOM     15  O1S IDS d 303      88.387  25.317 102.273  0.00  0.00    -0.572 OA
ATOM     16  H   IDS d 303      82.558  27.506 103.305  0.00  0.00     0.210 HD
ATOM     17  H   IDS d 303      86.567  24.511 103.643  0.00  0.00     0.133 H 
ATOM     18  H   IDS d 303      83.464  27.904 105.361  0.00  0.00     0.092 H 
ATOM     19  H   IDS d 303      84.683  28.295 103.198  0.00  0.00     0.091 H 
ATOM     20  H   IDS d 303      83.658  25.520 105.250  0.00  0.00     0.104 H 
ATOM     21  H   IDS d 303      85.440  26.174 102.073  0.00  0.00     0.097 H 
ATOM     22  C3  SGN d 306      83.032  17.047  96.066  0.00  0.00     0.083 C 
ATOM     23  O1S SGN d 306      86.471  15.778  95.711  0.00  0.00    -0.296 OA
ATOM     24  O4S SGN d 306      81.008  23.656  93.722  0.00  0.00    -0.572 OA
ATOM     25  O5S SGN d 306      81.514  23.546  96.030  0.00  0.00    -0.572 OA
ATOM     26  C2  SGN d 306      83.872  17.215  94.809  0.00  0.00     0.081 C 
ATOM     27  O5  SGN d 306      82.484  19.088  94.145  0.00  0.00    -0.350 OA
ATOM     28  C6  SGN d 306      81.084  20.339  95.682  0.00  0.00     0.067 C 
ATOM     29  S2  SGN d 306      80.830  22.912  94.937  0.00  0.00     0.251 S 
ATOM     30  S1  SGN d 306      85.904  15.424  94.434  0.00  0.00     0.156 S 
ATOM     31  O3S SGN d 306      86.016  14.003  94.217  0.00  0.00    -0.296 OA
ATOM     32  O4  SGN d 306      81.723  18.268  97.689  0.00  0.00    -0.348 OA
ATOM     33  O3  SGN d 306      83.836  16.469  97.077  0.00  0.00    -0.391 OA
ATOM     34  O6S SGN d 306      79.430  22.776  95.252  0.00  0.00    -0.572 OA
ATOM     35  C5  SGN d 306      81.656  18.974  95.342  0.00  0.00     0.091 C 
ATOM     36  O1  SGN d 306      82.086  16.940  93.205  0.00  0.00    -0.369 OA
ATOM     37  N   SGN d 306      84.207  15.882  94.393  0.00  0.00    -0.210 NA
ATOM     38  O6  SGN d 306      81.509  21.305  94.745  0.00  0.00    -0.254 OA
ATOM     39  C4  SGN d 306      82.518  18.424  96.499  0.00  0.00     0.095 C 
ATOM     40  O2S SGN d 306      86.552  16.140  93.380  0.00  0.00    -0.296 OA
ATOM     41  C1  SGN d 306      83.072  17.858  93.665  0.00  0.00     0.147 C 
ATOM     42  H   SGN d 306      82.194  16.406  95.884  0.00  0.00     0.089 H 
ATOM     43  H   SGN d 306      86.391  16.736  95.846  0.00  0.00     0.231 HD
ATOM     44  H   SGN d 306      84.715  17.840  95.018  0.00  0.00     0.076 H 
ATOM     45  H   SGN d 306      81.417  20.626  96.657  0.00  0.00     0.080 H 
ATOM     46  H   SGN d 306      80.016  20.280  95.657  0.00  0.00     0.080 H 
ATOM     47  H   SGN d 306      85.573  13.530  94.938  0.00  0.00     0.231 HD
ATOM     48  H   SGN d 306      84.599  17.042  97.251  0.00  0.00     0.210 HD
ATOM     49  H   SGN d 306      80.843  18.299  95.175  0.00  0.00     0.090 H 
ATOM     50  H   SGN d 306      82.519  16.130  92.892  0.00  0.00     0.212 HD
ATOM     51  H   SGN d 306      83.883  15.771  93.432  0.00  0.00     0.140 HD
ATOM     52  H   SGN d 306      83.320  19.098  96.712  0.00  0.00     0.091 H 
ATOM     53  H   SGN d 306      86.469  17.094  93.539  0.00  0.00     0.231 HD
ATOM     54  H   SGN d 306      83.709  18.091  92.837  0.00  0.00     0.131 H 
ATOM     55  C2  UAP d 301      87.530  29.663 111.857  0.00  0.00     0.132 C 
ATOM     56  S   UAP d 301      86.447  30.877 113.913  0.00  0.00     0.252 S 
ATOM     57  O1S UAP d 301      86.992  31.153 115.185  0.00  0.00    -0.572 OA
ATOM     58  C1  UAP d 301      87.781  30.261 110.488  0.00  0.00     0.161 C 
ATOM     59  O61 UAP d 301      92.345  28.599 110.691  0.00  0.00    -0.646 OA
ATOM     60  C5  UAP d 301      90.067  29.375 110.654  0.00  0.00     0.127 C 
ATOM     61  O3  UAP d 301      87.519  27.305 111.877  0.00  0.00    -0.393 OA
ATOM     62  O2  UAP d 301      87.784  30.620 112.828  0.00  0.00    -0.244 OA
ATOM     63  O5  UAP d 301      89.170  30.369 110.193  0.00  0.00    -0.343 OA
ATOM     64  C6  UAP d 301      91.537  29.444 110.255  0.00  0.00     0.203 C 
ATOM     65  O62 UAP d 301      91.862  30.395 109.512  0.00  0.00    -0.646 OA
ATOM     66  O3S UAP d 301      85.734  32.003 113.394  0.00  0.00    -0.572 OA
ATOM     67  O2S UAP d 301      85.628  29.691 113.972  0.00  0.00    -0.572 OA
ATOM     68  C3  UAP d 301      88.299  28.395 112.257  0.00  0.00     0.069 C 
ATOM     69  C4  UAP d 301      89.724  28.266 111.650  0.00  0.00    -0.005 C 
ATOM     70  H   UAP d 301      86.509  29.351 111.788  0.00  0.00     0.097 H 
ATOM     71  H   UAP d 301      87.406  31.262 110.426  0.00  0.00     0.133 H 
ATOM     72  H   UAP d 301      89.163  29.193 110.113  0.00  0.00     0.100 H 
ATOM     73  H   UAP d 301      86.633  27.392 112.260  0.00  0.00     0.210 HD
ATOM     74  H   UAP d 301      88.463  28.440 113.314  0.00  0.00     0.087 H 
ATOM     75  H   UAP d 301      90.436  28.296 112.448  0.00  0.00     0.041 H 
ATOM     76  H   UAP d 301      89.753  27.342 111.111  0.00  0.00     0.041 H 
ATOM     77  O5  IDS d 305      83.133  19.506  99.210  0.00  0.00    -0.340 OA
ATOM     78  O62 IDS d 305      85.731  19.843 100.119  0.00  0.00    -0.646 OA
ATOM     79  C1  IDS d 305      81.811  19.252  98.729  0.00  0.00     0.161 C 
ATOM     80  O3  IDS d 305      81.194  16.975 101.213  0.00  0.00    -0.390 OA
ATOM     81  C6  IDS d 305      85.097  18.909 100.660  0.00  0.00     0.206 C 
ATOM     82  C2  IDS d 305      80.817  18.878  99.860  0.00  0.00     0.134 C 
ATOM     83  C5  IDS d 305      83.603  18.828 100.348  0.00  0.00     0.152 C 
ATOM     84  C3  IDS d 305      81.303  18.343 101.220  0.00  0.00     0.094 C 
ATOM     85  S   IDS d 305      79.766  21.389 100.251  0.00  0.00     0.252 S 
ATOM     86  C4  IDS d 305      82.736  18.766 101.598  0.00  0.00     0.103 C 
ATOM     87  O3S IDS d 305      78.452  21.915 100.180  0.00  0.00    -0.572 OA
ATOM     88  O1S IDS d 305      80.581  21.981  99.252  0.00  0.00    -0.572 OA
ATOM     89  O2  IDS d 305      79.627  19.652  99.932  0.00  0.00    -0.244 OA
ATOM     90  O61 IDS d 305      85.557  18.226 101.591  0.00  0.00    -0.646 OA
ATOM     91  O2S IDS d 305      80.327  21.587 101.538  0.00  0.00    -0.572 OA
ATOM     92  H   IDS d 305      81.533  20.192  98.301  0.00  0.00     0.133 H 
ATOM     93  H   IDS d 305      80.288  16.724 100.973  0.00  0.00     0.210 HD
ATOM     94  H   IDS d 305      80.561  17.936  99.420  0.00  0.00     0.097 H 
ATOM     95  H   IDS d 305      83.458  17.856  99.925  0.00  0.00     0.104 H 
ATOM     96  H   IDS d 305      80.679  18.780 101.971  0.00  0.00     0.091 H 
ATOM     97  H   IDS d 305      83.122  18.046 102.289  0.00  0.00     0.092 H 
ATOM     98  O6  SGN d 304      86.873  21.863 104.383  0.00  0.00    -0.254 OA
ATOM     99  S2  SGN d 304      88.562  22.073 104.780  0.00  0.00     0.251 S 
ATOM    100  O5S SGN d 304      88.658  22.258 106.205  0.00  0.00    -0.572 OA
ATOM    101  N   SGN d 304      81.073  21.145 104.020  0.00  0.00    -0.210 NA
ATOM    102  O3S SGN d 304      80.143  20.255 106.282  0.00  0.00    -0.296 OA
ATOM    103  C6  SGN d 304      86.508  21.850 103.005  0.00  0.00     0.067 C 
ATOM    104  O3  SGN d 304      82.153  23.703 104.380  0.00  0.00    -0.391 OA
ATOM    105  C5  SGN d 304      85.004  21.746 102.952  0.00  0.00     0.091 C 
ATOM    106  O2S SGN d 304      78.870  19.886 104.359  0.00  0.00    -0.296 OA
ATOM    107  O1  SGN d 304      82.733  20.069 102.194  0.00  0.00    -0.348 OA
ATOM    108  O4S SGN d 304      89.285  20.903 104.382  0.00  0.00    -0.572 OA
ATOM    109  C1  SGN d 304      83.224  20.184 103.533  0.00  0.00     0.150 C 
ATOM    110  C3  SGN d 304      82.825  22.688 103.660  0.00  0.00     0.083 C 
ATOM    111  C2  SGN d 304      82.482  21.325 104.269  0.00  0.00     0.081 C 
ATOM    112  S1  SGN d 304      80.187  19.905 104.898  0.00  0.00     0.156 S 
ATOM    113  O6S SGN d 304      89.049  23.245 104.089  0.00  0.00    -0.572 OA
ATOM    114  O1S SGN d 304      80.814  18.624 104.740  0.00  0.00    -0.296 OA
ATOM    115  O5  SGN d 304      84.633  20.474 103.547  0.00  0.00    -0.349 OA
ATOM    116  C4  SGN d 304      84.334  22.885 103.748  0.00  0.00     0.095 C 
ATOM    117  O4  SGN d 304      84.655  24.156 103.163  0.00  0.00    -0.348 OA
ATOM    118  H   SGN d 304      80.972  20.934 103.027  0.00  0.00     0.140 HD
ATOM    119  H   SGN d 304      79.718  21.121 106.382  0.00  0.00     0.231 HD
ATOM    120  H   SGN d 304      86.953  21.010 102.514  0.00  0.00     0.080 H 
ATOM    121  H   SGN d 304      86.848  22.736 102.511  0.00  0.00     0.080 H 
ATOM    122  H   SGN d 304      81.194  23.564 104.314  0.00  0.00     0.210 HD
ATOM    123  H   SGN d 304      84.679  21.818 101.935  0.00  0.00     0.090 H 
ATOM    124  H   SGN d 304      78.462  20.758 104.474  0.00  0.00     0.231 HD
ATOM    125  H   SGN d 304      83.053  19.247 104.023  0.00  0.00     0.131 H 
ATOM    126  H   SGN d 304      82.517  22.734 102.636  0.00  0.00     0.089 H 
ATOM    127  H   SGN d 304      82.752  21.297 105.304  0.00  0.00     0.076 H 
ATOM    128  H   SGN d 304      81.710  18.654 105.112  0.00  0.00     0.231 HD
ATOM    129  H   SGN d 304      84.677  22.867 104.761  0.00  0.00     0.091 H 
ATOM    130  O5S SGN d 302      81.043  31.598 109.948  0.00  0.00    -0.572 OA
ATOM    131  C4  SGN d 302      86.599  29.924 108.421  0.00  0.00     0.095 C 
ATOM    132  O1S SGN d 302      89.726  30.856 104.021  0.00  0.00    -0.296 OA
ATOM    133  O3  SGN d 302      88.765  30.016 107.404  0.00  0.00    -0.391 OA
ATOM    134  O2S SGN d 302      87.687  32.050 104.045  0.00  0.00    -0.296 OA
ATOM    135  C1  SGN d 302      85.395  29.554 105.814  0.00  0.00     0.150 C 
ATOM    136  C5  SGN d 302      85.193  29.366 108.247  0.00  0.00     0.091 C 
ATOM    137  O3S SGN d 302      88.041  30.401 102.415  0.00  0.00    -0.296 OA
ATOM    138  O5  SGN d 302      84.632  29.874 107.007  0.00  0.00    -0.349 OA
ATOM    139  C6  SGN d 302      84.336  29.767 109.439  0.00  0.00     0.067 C 
ATOM    140  S1  SGN d 302      88.307  30.788 103.779  0.00  0.00     0.156 S 
ATOM    141  O4S SGN d 302      80.980  29.328 109.293  0.00  0.00    -0.572 OA
ATOM    142  O6S SGN d 302      82.078  29.974 111.290  0.00  0.00    -0.572 OA
ATOM    143  O4  SGN d 302      87.141  29.395 109.596  0.00  0.00    -0.348 OA
ATOM    144  N   SGN d 302      87.591  29.606 104.882  0.00  0.00    -0.210 NA
ATOM    145  C3  SGN d 302      87.455  29.501 107.244  0.00  0.00     0.083 C 
ATOM    146  C2  SGN d 302      86.816  30.093 105.998  0.00  0.00     0.081 C 
ATOM    147  S2  SGN d 302      81.757  30.350 109.935  0.00  0.00     0.251 S 
ATOM    148  O6  SGN d 302      83.254  30.581 109.045  0.00  0.00    -0.254 OA
ATOM    149  O1  SGN d 302      85.509  28.146 105.605  0.00  0.00    -0.348 OA
ATOM    150  H   SGN d 302      86.568  30.992 108.474  0.00  0.00     0.091 H 
ATOM    151  H   SGN d 302      90.127  31.503 103.420  0.00  0.00     0.231 HD
ATOM    152  H   SGN d 302      89.168  29.635 108.200  0.00  0.00     0.210 HD
ATOM    153  H   SGN d 302      88.058  32.724 103.455  0.00  0.00     0.231 HD
ATOM    154  H   SGN d 302      84.888  29.988 104.978  0.00  0.00     0.131 H 
ATOM    155  H   SGN d 302      85.222  28.298 108.198  0.00  0.00     0.090 H 
ATOM    156  H   SGN d 302      88.434  31.051 101.812  0.00  0.00     0.231 HD
ATOM    157  H   SGN d 302      84.942  30.307 110.137  0.00  0.00     0.080 H 
ATOM    158  H   SGN d 302      83.944  28.877 109.885  0.00  0.00     0.080 H 
ATOM    159  H   SGN d 302      88.356  29.050 105.265  0.00  0.00     0.140 HD
ATOM    160  H   SGN d 302      87.518  28.436 107.172  0.00  0.00     0.089 H 
ATOM    161  H   SGN d 302      86.788  31.160 106.071  0.00  0.00     0.076 H 
ENDROOT
TORSDOF 50
ENDMDL
MODEL 26
REMARK VINA RESULT:     -10.7      2.840      5.180
REMARK  0 active torsions:
REMARK  status: ('A' for Active; 'I' for Inactive)
REMARK       I    between atoms: S_1  and  O2_2 
REMARK       I    between atoms: O2_2  and  C2_99 
REMARK       I    between atoms: C3_3  and  O3_50 
REMARK       I    between atoms: C2_5  and  O2_57 
REMARK       I    between atoms: O1S_6  and  S1_33 
REMARK       I    between atoms: O3_7  and  C3_52 
REMARK       I    between atoms: O6_9  and  C6_34 
REMARK       I    between atoms: O6_9  and  S2_17 
REMARK       I    between atoms: C2_13  and  N_73 
REMARK       I    between atoms: S_16  and  O2_57 
REMARK       I    between atoms: C1_20  and  O4_43 
REMARK       I    between atoms: C6_21  and  C5_67 
REMARK       I    between atoms: C6_21  and  O6_75 
REMARK       I    between atoms: N_22  and  C2_66 
REMARK       I    between atoms: N_22  and  S1_69 
REMARK       I    between atoms: S2_23  and  O6_75 
REMARK       I    between atoms: C1_24  and  O4_78 
REMARK       I    between atoms: C4_25  and  O4_78 
REMARK       I    between atoms: O3_26  and  C3_81 
REMARK       I    between atoms: O1S_27  and  S1_60 
REMARK       I    between atoms: O3S_28  and  S1_69 
REMARK       I    between atoms: O3_29  and  C3_87 
REMARK       I    between atoms: C6_30  and  C5_80 
REMARK       I    between atoms: O2S_32  and  S1_60 
REMARK       I    between atoms: S1_33  and  N_73 
REMARK       I    between atoms: S1_33  and  O2S_94 
REMARK       I    between atoms: S1_33  and  O3S_35 
REMARK       I    between atoms: C6_34  and  C5_38 
REMARK       I    between atoms: C2_36  and  O2_93 
REMARK       I    between atoms: O3_37  and  C3_65 
REMARK       I    between atoms: C1_40  and  O1_105 
REMARK       I    between atoms: O2S_41  and  S1_69 
REMARK       I    between atoms: C5_42  and  C6_54 
REMARK       I    between atoms: O4_43  and  C4_92 
REMARK       I    between atoms: O1_44  and  C1_62 
REMARK       I    between atoms: O1_44  and  C4_83 
REMARK       I    between atoms: C1_45  and  O4_102 
REMARK       I    between atoms: C4_46  and  O1_105 
REMARK       I    between atoms: O3S_47  and  S1_60 
REMARK       I    between atoms: C5_53  and  C6_61 
REMARK       I    between atoms: C6_54  and  O6_98 
REMARK       I    between atoms: O3_56  and  C3_84 
REMARK       I    between atoms: C5_59  and  C6_63 
REMARK       I    between atoms: S1_60  and  N_86 
REMARK       I    between atoms: S1_69  and  O1S_91 
REMARK       I    between atoms: O1_70  and  C1_96 
REMARK       I    between atoms: S_82  and  O2_93 
REMARK       I    between atoms: N_86  and  C2_90 
REMARK       I    between atoms: S2_95  and  O6_98 
REMARK       I    between atoms: C4_100  and  O4_102 
ROOT
ATOM      1  S   IDS d 303      81.322  19.469 106.918  0.00  0.00     0.252 S 
ATOM      2  O2  IDS d 303      80.849  19.615 105.236  0.00  0.00    -0.244 OA
ATOM      3  O61 IDS d 303      81.477  20.175  99.584  0.00  0.00    -0.646 OA
ATOM      4  O3  IDS d 303      79.899  22.484 103.357  0.00  0.00    -0.390 OA
ATOM      5  O3S IDS d 303      80.635  20.515 107.634  0.00  0.00    -0.572 OA
ATOM      6  C1  IDS d 303      82.510  20.911 104.090  0.00  0.00     0.161 C 
ATOM      7  C4  IDS d 303      80.076  20.264 102.403  0.00  0.00     0.103 C 
ATOM      8  O2S IDS d 303      80.947  18.162 107.382  0.00  0.00    -0.572 OA
ATOM      9  C3  IDS d 303      79.949  21.141 103.670  0.00  0.00     0.094 C 
ATOM     10  C5  IDS d 303      81.530  20.291 101.940  0.00  0.00     0.152 C 
ATOM     11  C6  IDS d 303      81.719  19.574 100.633  0.00  0.00     0.206 C 
ATOM     12  O62 IDS d 303      82.311  18.479 100.691  0.00  0.00    -0.646 OA
ATOM     13  O5  IDS d 303      82.575  20.161 102.886  0.00  0.00    -0.340 OA
ATOM     14  C2  IDS d 303      81.082  20.866 104.673  0.00  0.00     0.134 C 
ATOM     15  O1S IDS d 303      82.737  19.634 106.982  0.00  0.00    -0.572 OA
ATOM     16  H   IDS d 303      79.182  22.643 102.725  0.00  0.00     0.210 HD
ATOM     17  H   IDS d 303      83.206  20.443 104.755  0.00  0.00     0.133 H 
ATOM     18  H   IDS d 303      79.400  20.637 101.662  0.00  0.00     0.092 H 
ATOM     19  H   IDS d 303      79.023  20.872 104.135  0.00  0.00     0.091 H 
ATOM     20  H   IDS d 303      81.689  21.333 101.760  0.00  0.00     0.104 H 
ATOM     21  H   IDS d 303      81.057  21.659 105.392  0.00  0.00     0.097 H 
ATOM     22  C3  SGN d 306      88.009  29.935 108.286  0.00  0.00     0.083 C 
ATOM     23  O1S SGN d 306      90.127  28.003 110.598  0.00  0.00    -0.296 OA
ATOM     24  O4S SGN d 306      80.806  30.661 109.215  0.00  0.00    -0.572 OA
ATOM     25  O5S SGN d 306      81.432  28.970 107.686  0.00  0.00    -0.572 OA
ATOM     26  C2  SGN d 306      87.883  29.994 109.801  0.00  0.00     0.081 C 
ATOM     27  O5  SGN d 306      85.609  30.804 109.570  0.00  0.00    -0.350 OA
ATOM     28  C6  SGN d 306      84.282  30.535 107.557  0.00  0.00     0.067 C 
ATOM     29  S2  SGN d 306      81.657  30.323 108.109  0.00  0.00     0.251 S 
ATOM     30  S1  SGN d 306      90.091  29.288 111.251  0.00  0.00     0.156 S 
ATOM     31  O3S SGN d 306      91.430  29.794 111.427  0.00  0.00    -0.296 OA
ATOM     32  O4  SGN d 306      86.749  29.558 106.258  0.00  0.00    -0.348 OA
ATOM     33  O3  SGN d 306      88.949  28.934 107.946  0.00  0.00    -0.391 OA
ATOM     34  O6S SGN d 306      81.439  31.223 107.004  0.00  0.00    -0.572 OA
ATOM     35  C5  SGN d 306      85.678  30.754 108.113  0.00  0.00     0.091 C 
ATOM     36  O1  SGN d 306      87.372  32.348 109.977  0.00  0.00    -0.369 OA
ATOM     37  N   SGN d 306      89.169  30.422 110.274  0.00  0.00    -0.210 NA
ATOM     38  O6  SGN d 306      83.337  30.455 108.602  0.00  0.00    -0.254 OA
ATOM     39  C4  SGN d 306      86.633  29.615 107.692  0.00  0.00     0.095 C 
ATOM     40  O2S SGN d 306      89.426  29.191 112.513  0.00  0.00    -0.296 OA
ATOM     41  C1  SGN d 306      86.860  31.048 110.253  0.00  0.00     0.147 C 
ATOM     42  H   SGN d 306      88.346  30.872 107.893  0.00  0.00     0.089 H 
ATOM     43  H   SGN d 306      89.222  27.672 110.485  0.00  0.00     0.231 HD
ATOM     44  H   SGN d 306      87.567  29.042 110.175  0.00  0.00     0.076 H 
ATOM     45  H   SGN d 306      84.266  29.623 106.998  0.00  0.00     0.080 H 
ATOM     46  H   SGN d 306      84.030  31.361 106.926  0.00  0.00     0.080 H 
ATOM     47  H   SGN d 306      91.869  29.854 110.565  0.00  0.00     0.231 HD
ATOM     48  H   SGN d 306      88.653  28.079 108.296  0.00  0.00     0.210 HD
ATOM     49  H   SGN d 306      86.057  31.674 107.721  0.00  0.00     0.090 H 
ATOM     50  H   SGN d 306      88.208  32.474 110.452  0.00  0.00     0.212 HD
ATOM     51  H   SGN d 306      89.024  31.262 110.835  0.00  0.00     0.140 HD
ATOM     52  H   SGN d 306      86.259  28.676 108.041  0.00  0.00     0.091 H 
ATOM     53  H   SGN d 306      88.528  28.850 112.379  0.00  0.00     0.231 HD
ATOM     54  H   SGN d 306      86.686  30.985 111.307  0.00  0.00     0.131 H 
ATOM     55  C2  UAP d 301      79.959  13.240  99.054  0.00  0.00     0.132 C 
ATOM     56  S   UAP d 301      78.842  12.444  96.819  0.00  0.00     0.252 S 
ATOM     57  O1S UAP d 301      78.945  11.204  96.153  0.00  0.00    -0.572 OA
ATOM     58  C1  UAP d 301      79.242  13.661 100.319  0.00  0.00     0.161 C 
ATOM     59  O61 UAP d 301      82.143  10.696 102.853  0.00  0.00    -0.646 OA
ATOM     60  C5  UAP d 301      80.756  12.155 101.535  0.00  0.00     0.127 C 
ATOM     61  O3  UAP d 301      82.187  14.003  98.925  0.00  0.00    -0.393 OA
ATOM     62  O2  UAP d 301      79.286  12.171  98.480  0.00  0.00    -0.244 OA
ATOM     63  O5  UAP d 301      79.486  12.769 101.401  0.00  0.00    -0.343 OA
ATOM     64  C6  UAP d 301      81.043  11.277 102.747  0.00  0.00     0.203 C 
ATOM     65  O62 UAP d 301      80.116  11.161 103.576  0.00  0.00    -0.646 OA
ATOM     66  O3S UAP d 301      77.490  12.911  96.849  0.00  0.00    -0.572 OA
ATOM     67  O2S UAP d 301      79.739  13.403  96.222  0.00  0.00    -0.572 OA
ATOM     68  C3  UAP d 301      81.442  12.847  99.145  0.00  0.00     0.069 C 
ATOM     69  C4  UAP d 301      81.869  12.188 100.486  0.00  0.00    -0.005 C 
ATOM     70  H   UAP d 301      79.952  14.139  98.475  0.00  0.00     0.097 H 
ATOM     71  H   UAP d 301      78.179  13.651 100.185  0.00  0.00     0.133 H 
ATOM     72  H   UAP d 301      80.582  13.203 101.408  0.00  0.00     0.100 H 
ATOM     73  H   UAP d 301      81.916  14.408  98.086  0.00  0.00     0.210 HD
ATOM     74  H   UAP d 301      81.619  12.091  98.408  0.00  0.00     0.087 H 
ATOM     75  H   UAP d 301      82.174  11.181 100.286  0.00  0.00     0.041 H 
ATOM     76  H   UAP d 301      82.662  12.782 100.889  0.00  0.00     0.041 H 
ATOM     77  O5  IDS d 305      86.230  27.218 105.963  0.00  0.00    -0.340 OA
ATOM     78  O62 IDS d 305      86.799  24.647 106.834  0.00  0.00    -0.646 OA
ATOM     79  C1  IDS d 305      86.015  28.563 105.532  0.00  0.00     0.161 C 
ATOM     80  O3  IDS d 305      88.397  28.306 103.083  0.00  0.00    -0.390 OA
ATOM     81  C6  IDS d 305      87.591  25.104 105.978  0.00  0.00     0.206 C 
ATOM     82  C2  IDS d 305      86.271  28.760 104.014  0.00  0.00     0.134 C 
ATOM     83  C5  IDS d 305      87.191  26.422 105.314  0.00  0.00     0.152 C 
ATOM     84  C3  IDS d 305      87.138  27.776 103.205  0.00  0.00     0.094 C 
ATOM     85  S   IDS d 305      83.664  28.494 103.178  0.00  0.00     0.252 S 
ATOM     86  C4  IDS d 305      87.207  26.354 103.794  0.00  0.00     0.103 C 
ATOM     87  O3S IDS d 305      82.782  29.340 102.462  0.00  0.00    -0.572 OA
ATOM     88  O1S IDS d 305      83.173  28.282 104.493  0.00  0.00    -0.572 OA
ATOM     89  O2  IDS d 305      85.213  29.349 103.270  0.00  0.00    -0.244 OA
ATOM     90  O61 IDS d 305      88.519  24.440 105.487  0.00  0.00    -0.646 OA
ATOM     91  O2S IDS d 305      83.848  27.259 102.507  0.00  0.00    -0.572 OA
ATOM     92  H   IDS d 305      84.977  28.715 105.744  0.00  0.00     0.133 H 
ATOM     93  H   IDS d 305      88.338  29.201 102.712  0.00  0.00     0.210 HD
ATOM     94  H   IDS d 305      87.016  29.514 104.165  0.00  0.00     0.097 H 
ATOM     95  H   IDS d 305      87.999  27.094 105.519  0.00  0.00     0.104 H 
ATOM     96  H   IDS d 305      86.670  27.657 102.250  0.00  0.00     0.091 H 
ATOM     97  H   IDS d 305      88.110  25.896 103.447  0.00  0.00     0.092 H 
ATOM     98  O6  SGN d 304      85.916  20.644 104.234  0.00  0.00    -0.254 OA
ATOM     99  S2  SGN d 304      86.263  19.090 104.953  0.00  0.00     0.251 S 
ATOM    100  O5S SGN d 304      86.348  18.123 103.890  0.00  0.00    -0.572 OA
ATOM    101  N   SGN d 304      84.884  25.395 100.970  0.00  0.00    -0.210 NA
ATOM    102  O3S SGN d 304      85.832  25.049  98.571  0.00  0.00    -0.296 OA
ATOM    103  C6  SGN d 304      85.597  21.727 105.106  0.00  0.00     0.067 C 
ATOM    104  O3  SGN d 304      82.834  23.551 101.455  0.00  0.00    -0.391 OA
ATOM    105  C5  SGN d 304      85.260  22.908 104.230  0.00  0.00     0.091 C 
ATOM    106  O2S SGN d 304      85.503  27.240  99.308  0.00  0.00    -0.296 OA
ATOM    107  O1  SGN d 304      86.073  25.583 103.378  0.00  0.00    -0.348 OA
ATOM    108  O4S SGN d 304      87.507  19.167 105.655  0.00  0.00    -0.572 OA
ATOM    109  C1  SGN d 304      86.324  24.397 102.619  0.00  0.00     0.150 C 
ATOM    110  C3  SGN d 304      83.866  23.804 102.389  0.00  0.00     0.083 C 
ATOM    111  C2  SGN d 304      85.156  24.145 101.635  0.00  0.00     0.081 C 
ATOM    112  S1  SGN d 304      85.948  25.941  99.680  0.00  0.00     0.156 S 
ATOM    113  O6S SGN d 304      85.181  18.752 105.851  0.00  0.00    -0.572 OA
ATOM    114  O1S SGN d 304      87.310  25.985 100.128  0.00  0.00    -0.296 OA
ATOM    115  O5  SGN d 304      86.453  23.247 103.476  0.00  0.00    -0.349 OA
ATOM    116  C4  SGN d 304      84.124  22.569 103.243  0.00  0.00     0.095 C 
ATOM    117  O4  SGN d 304      82.919  22.260 103.959  0.00  0.00    -0.348 OA
ATOM    118  H   SGN d 304      84.892  26.120 101.687  0.00  0.00     0.140 HD
ATOM    119  H   SGN d 304      84.909  25.024  98.272  0.00  0.00     0.231 HD
ATOM    120  H   SGN d 304      86.437  21.958 105.727  0.00  0.00     0.080 H 
ATOM    121  H   SGN d 304      84.777  21.476 105.744  0.00  0.00     0.080 H 
ATOM    122  H   SGN d 304      82.682  24.345 100.919  0.00  0.00     0.210 HD
ATOM    123  H   SGN d 304      84.933  23.722 104.843  0.00  0.00     0.090 H 
ATOM    124  H   SGN d 304      84.582  27.193  99.008  0.00  0.00     0.231 HD
ATOM    125  H   SGN d 304      87.240  24.541 102.084  0.00  0.00     0.131 H 
ATOM    126  H   SGN d 304      83.568  24.617 103.016  0.00  0.00     0.089 H 
ATOM    127  H   SGN d 304      85.429  23.347 100.977  0.00  0.00     0.076 H 
ATOM    128  H   SGN d 304      87.598  25.092 100.378  0.00  0.00     0.231 HD
ATOM    129  H   SGN d 304      84.404  21.726 102.646  0.00  0.00     0.091 H 
ATOM    130  O5S SGN d 302      75.974  18.544  96.719  0.00  0.00    -0.572 OA
ATOM    131  C4  SGN d 302      78.885  15.860 101.226  0.00  0.00     0.095 C 
ATOM    132  O1S SGN d 302      78.173  15.814 106.657  0.00  0.00    -0.296 OA
ATOM    133  O3  SGN d 302      79.247  14.819 103.352  0.00  0.00    -0.391 OA
ATOM    134  O2S SGN d 302      76.469  16.926 105.454  0.00  0.00    -0.296 OA
ATOM    135  C1  SGN d 302      78.465  18.402 102.548  0.00  0.00     0.150 C 
ATOM    136  C5  SGN d 302      78.984  17.187 100.487  0.00  0.00     0.091 C 
ATOM    137  O3S SGN d 302      77.860  18.154 106.888  0.00  0.00    -0.296 OA
ATOM    138  O5  SGN d 302      78.141  18.164 101.152  0.00  0.00    -0.349 OA
ATOM    139  C6  SGN d 302      78.557  16.993  99.038  0.00  0.00     0.067 C 
ATOM    140  S1  SGN d 302      77.793  17.032 105.986  0.00  0.00     0.156 S 
ATOM    141  O4S SGN d 302      77.993  19.713  97.097  0.00  0.00    -0.572 OA
ATOM    142  O6S SGN d 302      78.022  17.518  96.208  0.00  0.00    -0.572 OA
ATOM    143  O4  SGN d 302      79.731  14.941 100.600  0.00  0.00    -0.348 OA
ATOM    144  N   SGN d 302      78.887  17.301 104.622  0.00  0.00    -0.210 NA
ATOM    145  C3  SGN d 302      79.335  16.051 102.661  0.00  0.00     0.083 C 
ATOM    146  C2  SGN d 302      78.390  17.064 103.289  0.00  0.00     0.081 C 
ATOM    147  S2  SGN d 302      77.353  18.427  97.106  0.00  0.00     0.251 S 
ATOM    148  O6  SGN d 302      77.416  17.763  98.730  0.00  0.00    -0.254 OA
ATOM    149  O1  SGN d 302      79.793  18.897 102.720  0.00  0.00    -0.348 OA
ATOM    150  H   SGN d 302      77.876  15.504 101.213  0.00  0.00     0.091 H 
ATOM    151  H   SGN d 302      77.577  15.659 107.407  0.00  0.00     0.231 HD
ATOM    152  H   SGN d 302      79.852  14.177 102.948  0.00  0.00     0.210 HD
ATOM    153  H   SGN d 302      75.840  16.777 106.179  0.00  0.00     0.231 HD
ATOM    154  H   SGN d 302      77.773  19.127 102.923  0.00  0.00     0.131 H 
ATOM    155  H   SGN d 302      79.993  17.541 100.495  0.00  0.00     0.090 H 
ATOM    156  H   SGN d 302      77.259  18.005 107.635  0.00  0.00     0.231 HD
ATOM    157  H   SGN d 302      78.333  15.960  98.876  0.00  0.00     0.080 H 
ATOM    158  H   SGN d 302      79.359  17.313  98.407  0.00  0.00     0.080 H 
ATOM    159  H   SGN d 302      79.693  16.690 104.757  0.00  0.00     0.140 HD
ATOM    160  H   SGN d 302      80.347  16.394 102.708  0.00  0.00     0.089 H 
ATOM    161  H   SGN d 302      77.386  16.695 103.261  0.00  0.00     0.076 H 
ENDROOT
TORSDOF 50
ENDMDL
MODEL 27
REMARK VINA RESULT:     -10.7      2.815     15.207
REMARK  0 active torsions:
REMARK  status: ('A' for Active; 'I' for Inactive)
REMARK       I    between atoms: S_1  and  O2_2 
REMARK       I    between atoms: O2_2  and  C2_99 
REMARK       I    between atoms: C3_3  and  O3_50 
REMARK       I    between atoms: C2_5  and  O2_57 
REMARK       I    between atoms: O1S_6  and  S1_33 
REMARK       I    between atoms: O3_7  and  C3_52 
REMARK       I    between atoms: O6_9  and  C6_34 
REMARK       I    between atoms: O6_9  and  S2_17 
REMARK       I    between atoms: C2_13  and  N_73 
REMARK       I    between atoms: S_16  and  O2_57 
REMARK       I    between atoms: C1_20  and  O4_43 
REMARK       I    between atoms: C6_21  and  C5_67 
REMARK       I    between atoms: C6_21  and  O6_75 
REMARK       I    between atoms: N_22  and  C2_66 
REMARK       I    between atoms: N_22  and  S1_69 
REMARK       I    between atoms: S2_23  and  O6_75 
REMARK       I    between atoms: C1_24  and  O4_78 
REMARK       I    between atoms: C4_25  and  O4_78 
REMARK       I    between atoms: O3_26  and  C3_81 
REMARK       I    between atoms: O1S_27  and  S1_60 
REMARK       I    between atoms: O3S_28  and  S1_69 
REMARK       I    between atoms: O3_29  and  C3_87 
REMARK       I    between atoms: C6_30  and  C5_80 
REMARK       I    between atoms: O2S_32  and  S1_60 
REMARK       I    between atoms: S1_33  and  N_73 
REMARK       I    between atoms: S1_33  and  O2S_94 
REMARK       I    between atoms: S1_33  and  O3S_35 
REMARK       I    between atoms: C6_34  and  C5_38 
REMARK       I    between atoms: C2_36  and  O2_93 
REMARK       I    between atoms: O3_37  and  C3_65 
REMARK       I    between atoms: C1_40  and  O1_105 
REMARK       I    between atoms: O2S_41  and  S1_69 
REMARK       I    between atoms: C5_42  and  C6_54 
REMARK       I    between atoms: O4_43  and  C4_92 
REMARK       I    between atoms: O1_44  and  C1_62 
REMARK       I    between atoms: O1_44  and  C4_83 
REMARK       I    between atoms: C1_45  and  O4_102 
REMARK       I    between atoms: C4_46  and  O1_105 
REMARK       I    between atoms: O3S_47  and  S1_60 
REMARK       I    between atoms: C5_53  and  C6_61 
REMARK       I    between atoms: C6_54  and  O6_98 
REMARK       I    between atoms: O3_56  and  C3_84 
REMARK       I    between atoms: C5_59  and  C6_63 
REMARK       I    between atoms: S1_60  and  N_86 
REMARK       I    between atoms: S1_69  and  O1S_91 
REMARK       I    between atoms: O1_70  and  C1_96 
REMARK       I    between atoms: S_82  and  O2_93 
REMARK       I    between atoms: N_86  and  C2_90 
REMARK       I    between atoms: S2_95  and  O6_98 
REMARK       I    between atoms: C4_100  and  O4_102 
ROOT
ATOM      1  S   IDS d 303      85.684  21.028 106.408  0.00  0.00     0.252 S 
ATOM      2  O2  IDS d 303      85.504  21.518 104.735  0.00  0.00    -0.244 OA
ATOM      3  O61 IDS d 303      82.836  23.083  99.930  0.00  0.00    -0.646 OA
ATOM      4  O3  IDS d 303      85.332  19.557 101.771  0.00  0.00    -0.390 OA
ATOM      5  O3S IDS d 303      86.436  19.798 106.401  0.00  0.00    -0.572 OA
ATOM      6  C1  IDS d 303      83.388  20.723 103.935  0.00  0.00     0.161 C 
ATOM      7  C4  IDS d 303      85.124  21.970 101.786  0.00  0.00     0.103 C 
ATOM      8  O2S IDS d 303      86.370  22.074 107.116  0.00  0.00    -0.572 OA
ATOM      9  C3  IDS d 303      85.576  20.688 102.522  0.00  0.00     0.094 C 
ATOM     10  C5  IDS d 303      83.610  22.103 101.932  0.00  0.00     0.152 C 
ATOM     11  C6  IDS d 303      83.065  23.251 101.130  0.00  0.00     0.206 C 
ATOM     12  O62 IDS d 303      82.683  24.242 101.782  0.00  0.00    -0.646 OA
ATOM     13  O5  IDS d 303      82.997  21.865 103.186  0.00  0.00    -0.340 OA
ATOM     14  C2  IDS d 303      84.922  20.562 103.909  0.00  0.00     0.134 C 
ATOM     15  O1S IDS d 303      84.376  20.838 106.944  0.00  0.00    -0.572 OA
ATOM     16  H   IDS d 303      85.750  19.649 100.900  0.00  0.00     0.210 HD
ATOM     17  H   IDS d 303      83.042  20.905 104.932  0.00  0.00     0.133 H 
ATOM     18  H   IDS d 303      85.436  21.905 100.764  0.00  0.00     0.092 H 
ATOM     19  H   IDS d 303      86.634  20.774 102.662  0.00  0.00     0.091 H 
ATOM     20  H   IDS d 303      83.261  21.200 101.477  0.00  0.00     0.104 H 
ATOM     21  H   IDS d 303      85.096  19.560 104.241  0.00  0.00     0.097 H 
ATOM     22  C3  SGN d 306      78.599  10.737 106.508  0.00  0.00     0.083 C 
ATOM     23  O1S SGN d 306      77.719  11.657 109.964  0.00  0.00    -0.296 OA
ATOM     24  O4S SGN d 306      85.495   9.785 104.318  0.00  0.00    -0.572 OA
ATOM     25  O5S SGN d 306      84.596  11.916 103.828  0.00  0.00    -0.572 OA
ATOM     26  C2  SGN d 306      79.247  10.123 107.740  0.00  0.00     0.081 C 
ATOM     27  O5  SGN d 306      81.160   9.477 106.398  0.00  0.00    -0.350 OA
ATOM     28  C6  SGN d 306      81.706  10.484 104.259  0.00  0.00     0.067 C 
ATOM     29  S2  SGN d 306      84.359  10.500 103.809  0.00  0.00     0.251 S 
ATOM     30  S1  SGN d 306      77.814  10.223 110.067  0.00  0.00     0.156 S 
ATOM     31  O3S SGN d 306      76.572   9.675 110.552  0.00  0.00    -0.296 OA
ATOM     32  O4  SGN d 306      79.091  11.849 104.420  0.00  0.00    -0.348 OA
ATOM     33  O3  SGN d 306      77.740  11.784 106.919  0.00  0.00    -0.391 OA
ATOM     34  O6S SGN d 306      84.048  10.075 102.468  0.00  0.00    -0.572 OA
ATOM     35  C5  SGN d 306      80.584  10.062 105.191  0.00  0.00     0.091 C 
ATOM     36  O1  SGN d 306      79.470   7.875 106.884  0.00  0.00    -0.369 OA
ATOM     37  N   SGN d 306      78.169   9.538 108.487  0.00  0.00    -0.210 NA
ATOM     38  O6  SGN d 306      82.963  10.180 104.824  0.00  0.00    -0.254 OA
ATOM     39  C4  SGN d 306      79.702  11.266 105.586  0.00  0.00     0.095 C 
ATOM     40  O2S SGN d 306      78.892   9.852 110.931  0.00  0.00    -0.296 OA
ATOM     41  C1  SGN d 306      80.213   8.986 107.375  0.00  0.00     0.147 C 
ATOM     42  H   SGN d 306      78.022  10.009 105.976  0.00  0.00     0.089 H 
ATOM     43  H   SGN d 306      78.560  12.015 109.638  0.00  0.00     0.231 HD
ATOM     44  H   SGN d 306      79.799  10.872 108.270  0.00  0.00     0.076 H 
ATOM     45  H   SGN d 306      81.643  11.538 104.088  0.00  0.00     0.080 H 
ATOM     46  H   SGN d 306      81.606   9.951 103.337  0.00  0.00     0.080 H 
ATOM     47  H   SGN d 306      75.851   9.934 109.958  0.00  0.00     0.231 HD
ATOM     48  H   SGN d 306      78.253  12.451 107.403  0.00  0.00     0.210 HD
ATOM     49  H   SGN d 306      79.972   9.348 104.681  0.00  0.00     0.090 H 
ATOM     50  H   SGN d 306      78.848   7.575 107.566  0.00  0.00     0.212 HD
ATOM     51  H   SGN d 306      78.391   8.552 108.623  0.00  0.00     0.140 HD
ATOM     52  H   SGN d 306      80.297  12.013 106.068  0.00  0.00     0.091 H 
ATOM     53  H   SGN d 306      79.720  10.226 110.593  0.00  0.00     0.231 HD
ATOM     54  H   SGN d 306      80.759   8.656 108.235  0.00  0.00     0.131 H 
ATOM     55  C2  UAP d 301      84.970  29.736 101.293  0.00  0.00     0.132 C 
ATOM     56  S   UAP d 301      85.314  31.312  99.226  0.00  0.00     0.252 S 
ATOM     57  O1S UAP d 301      85.146  32.709  99.122  0.00  0.00    -0.572 OA
ATOM     58  C1  UAP d 301      86.029  28.883 101.961  0.00  0.00     0.161 C 
ATOM     59  O61 UAP d 301      84.641  30.674 106.262  0.00  0.00    -0.646 OA
ATOM     60  C5  UAP d 301      85.262  29.819 104.100  0.00  0.00     0.127 C 
ATOM     61  O3  UAP d 301      82.762  29.054 101.766  0.00  0.00    -0.393 OA
ATOM     62  O2  UAP d 301      85.530  30.947 100.915  0.00  0.00    -0.244 OA
ATOM     63  O5  UAP d 301      86.307  29.310 103.290  0.00  0.00    -0.343 OA
ATOM     64  C6  UAP d 301      85.544  30.184 105.552  0.00  0.00     0.203 C 
ATOM     65  O62 UAP d 301      86.713  29.993 105.952  0.00  0.00    -0.646 OA
ATOM     66  O3S UAP d 301      86.513  30.879  98.577  0.00  0.00    -0.572 OA
ATOM     67  O2S UAP d 301      84.144  30.633  98.724  0.00  0.00    -0.572 OA
ATOM     68  C3  UAP d 301      83.684  30.053 102.071  0.00  0.00     0.069 C 
ATOM     69  C4  UAP d 301      83.854  30.166 103.612  0.00  0.00    -0.005 C 
ATOM     70  H   UAP d 301      84.651  29.115 100.483  0.00  0.00     0.097 H 
ATOM     71  H   UAP d 301      86.965  28.952 101.446  0.00  0.00     0.133 H 
ATOM     72  H   UAP d 301      85.237  28.894 103.563  0.00  0.00     0.100 H 
ATOM     73  H   UAP d 301      82.661  28.991 100.803  0.00  0.00     0.210 HD
ATOM     74  H   UAP d 301      83.358  31.027 101.767  0.00  0.00     0.087 H 
ATOM     75  H   UAP d 301      83.634  31.172 103.904  0.00  0.00     0.041 H 
ATOM     76  H   UAP d 301      83.185  29.458 104.054  0.00  0.00     0.041 H 
ATOM     77  O5  IDS d 305      79.776  14.137 104.777  0.00  0.00    -0.340 OA
ATOM     78  O62 IDS d 305      79.902  16.197 106.629  0.00  0.00    -0.646 OA
ATOM     79  C1  IDS d 305      79.644  13.048 103.861  0.00  0.00     0.161 C 
ATOM     80  O3  IDS d 305      76.602  14.171 102.754  0.00  0.00    -0.390 OA
ATOM     81  C6  IDS d 305      78.804  16.083 106.037  0.00  0.00     0.206 C 
ATOM     82  C2  IDS d 305      78.840  13.425 102.588  0.00  0.00     0.134 C 
ATOM     83  C5  IDS d 305      78.763  15.107 104.861  0.00  0.00     0.152 C 
ATOM     84  C3  IDS d 305      77.881  14.630 102.563  0.00  0.00     0.094 C 
ATOM     85  S   IDS d 305      80.989  14.005 100.972  0.00  0.00     0.252 S 
ATOM     86  C4  IDS d 305      78.215  15.733 103.586  0.00  0.00     0.103 C 
ATOM     87  O3S IDS d 305      81.437  13.492  99.730  0.00  0.00    -0.572 OA
ATOM     88  O1S IDS d 305      81.940  13.720 101.987  0.00  0.00    -0.572 OA
ATOM     89  O2  IDS d 305      79.476  13.162 101.344  0.00  0.00    -0.244 OA
ATOM     90  O61 IDS d 305      77.859  16.873 106.198  0.00  0.00    -0.646 OA
ATOM     91  O2S IDS d 305      80.743  15.398 100.893  0.00  0.00    -0.572 OA
ATOM     92  H   IDS d 305      80.659  12.838 103.597  0.00  0.00     0.133 H 
ATOM     93  H   IDS d 305      76.407  13.478 102.104  0.00  0.00     0.210 HD
ATOM     94  H   IDS d 305      78.105  12.661 102.740  0.00  0.00     0.097 H 
ATOM     95  H   IDS d 305      77.999  14.400 105.111  0.00  0.00     0.104 H 
ATOM     96  H   IDS d 305      77.989  15.098 101.607  0.00  0.00     0.091 H 
ATOM     97  H   IDS d 305      77.317  16.278 103.790  0.00  0.00     0.092 H 
ATOM     98  O6  SGN d 304      80.324  20.886 105.445  0.00  0.00    -0.254 OA
ATOM     99  S2  SGN d 304      80.465  22.061 106.731  0.00  0.00     0.251 S 
ATOM    100  O5S SGN d 304      80.136  23.352 106.184  0.00  0.00    -0.572 OA
ATOM    101  N   SGN d 304      79.485  17.689 100.611  0.00  0.00    -0.210 NA
ATOM    102  O3S SGN d 304      77.800  18.889  99.032  0.00  0.00    -0.296 OA
ATOM    103  C6  SGN d 304      80.785  19.561 105.698  0.00  0.00     0.067 C 
ATOM    104  O3  SGN d 304      81.799  19.242 100.885  0.00  0.00    -0.391 OA
ATOM    105  C5  SGN d 304      80.629  18.791 104.411  0.00  0.00     0.091 C 
ATOM    106  O2S SGN d 304      78.076  16.584  98.782  0.00  0.00    -0.296 OA
ATOM    107  O1  SGN d 304      79.218  16.613 103.064  0.00  0.00    -0.348 OA
ATOM    108  O4S SGN d 304      79.554  21.718 107.780  0.00  0.00    -0.572 OA
ATOM    109  C1  SGN d 304      78.873  17.994 102.918  0.00  0.00     0.150 C 
ATOM    110  C3  SGN d 304      81.143  18.652 101.991  0.00  0.00     0.083 C 
ATOM    111  C2  SGN d 304      79.636  18.603 101.717  0.00  0.00     0.081 C 
ATOM    112  S1  SGN d 304      77.969  17.650  99.720  0.00  0.00     0.156 S 
ATOM    113  O6S SGN d 304      81.830  22.053 107.206  0.00  0.00    -0.572 OA
ATOM    114  O1S SGN d 304      76.863  17.431 100.607  0.00  0.00    -0.296 OA
ATOM    115  O5  SGN d 304      79.211  18.743 104.099  0.00  0.00    -0.349 OA
ATOM    116  C4  SGN d 304      81.373  19.481 103.249  0.00  0.00     0.095 C 
ATOM    117  O4  SGN d 304      82.784  19.514 103.512  0.00  0.00    -0.348 OA
ATOM    118  H   SGN d 304      79.637  16.750 100.979  0.00  0.00     0.140 HD
ATOM    119  H   SGN d 304      78.550  19.032  98.434  0.00  0.00     0.231 HD
ATOM    120  H   SGN d 304      80.199  19.109 106.471  0.00  0.00     0.080 H 
ATOM    121  H   SGN d 304      81.805  19.566 106.021  0.00  0.00     0.080 H 
ATOM    122  H   SGN d 304      81.643  18.704 100.093  0.00  0.00     0.210 HD
ATOM    123  H   SGN d 304      81.042  17.811 104.531  0.00  0.00     0.090 H 
ATOM    124  H   SGN d 304      78.827  16.748  98.191  0.00  0.00     0.231 HD
ATOM    125  H   SGN d 304      77.816  18.050 102.757  0.00  0.00     0.131 H 
ATOM    126  H   SGN d 304      81.535  17.667 102.135  0.00  0.00     0.089 H 
ATOM    127  H   SGN d 304      79.255  19.584 101.531  0.00  0.00     0.076 H 
ATOM    128  H   SGN d 304      76.805  18.165 101.238  0.00  0.00     0.231 HD
ATOM    129  H   SGN d 304      81.013  20.483 103.135  0.00  0.00     0.091 H 
ATOM    130  O5S SGN d 302      87.121  25.709  95.944  0.00  0.00    -0.572 OA
ATOM    131  C4  SGN d 302      86.390  26.508 101.845  0.00  0.00     0.095 C 
ATOM    132  O1S SGN d 302      88.990  24.548 106.250  0.00  0.00    -0.296 OA
ATOM    133  O3  SGN d 302      86.951  26.686 104.166  0.00  0.00    -0.391 OA
ATOM    134  O2S SGN d 302      89.990  23.976 104.187  0.00  0.00    -0.296 OA
ATOM    135  C1  SGN d 302      86.913  23.662 101.941  0.00  0.00     0.150 C 
ATOM    136  C5  SGN d 302      85.860  25.548 100.790  0.00  0.00     0.091 C 
ATOM    137  O3S SGN d 302      89.051  22.292 105.522  0.00  0.00    -0.296 OA
ATOM    138  O5  SGN d 302      86.746  24.401 100.703  0.00  0.00    -0.349 OA
ATOM    139  C6  SGN d 302      85.764  26.267  99.451  0.00  0.00     0.067 C 
ATOM    140  S1  SGN d 302      88.940  23.669 105.109  0.00  0.00     0.156 S 
ATOM    141  O4S SGN d 302      85.234  24.464  96.632  0.00  0.00    -0.572 OA
ATOM    142  O6S SGN d 302      85.181  26.832  96.638  0.00  0.00    -0.572 OA
ATOM    143  O4  SGN d 302      85.506  27.586 101.946  0.00  0.00    -0.348 OA
ATOM    144  N   SGN d 302      87.407  23.913 104.262  0.00  0.00    -0.210 NA
ATOM    145  C3  SGN d 302      86.460  25.795 103.181  0.00  0.00     0.083 C 
ATOM    146  C2  SGN d 302      87.423  24.631 103.011  0.00  0.00     0.081 C 
ATOM    147  S2  SGN d 302      85.999  25.661  96.840  0.00  0.00     0.251 S 
ATOM    148  O6  SGN d 302      86.608  25.677  98.488  0.00  0.00    -0.254 OA
ATOM    149  O1  SGN d 302      85.680  23.126 102.422  0.00  0.00    -0.348 OA
ATOM    150  H   SGN d 302      87.366  26.852 101.573  0.00  0.00     0.091 H 
ATOM    151  H   SGN d 302      89.828  24.421 106.721  0.00  0.00     0.231 HD
ATOM    152  H   SGN d 302      86.332  27.426 104.271  0.00  0.00     0.210 HD
ATOM    153  H   SGN d 302      90.849  23.852 104.621  0.00  0.00     0.231 HD
ATOM    154  H   SGN d 302      87.589  22.855 101.750  0.00  0.00     0.131 H 
ATOM    155  H   SGN d 302      84.882  25.207 101.057  0.00  0.00     0.090 H 
ATOM    156  H   SGN d 302      89.892  22.160 105.985  0.00  0.00     0.231 HD
ATOM    157  H   SGN d 302      86.050  27.290  99.584  0.00  0.00     0.080 H 
ATOM    158  H   SGN d 302      84.755  26.197  99.103  0.00  0.00     0.080 H 
ATOM    159  H   SGN d 302      86.790  24.424 104.895  0.00  0.00     0.140 HD
ATOM    160  H   SGN d 302      85.495  25.451 103.487  0.00  0.00     0.089 H 
ATOM    161  H   SGN d 302      88.391  24.993 102.733  0.00  0.00     0.076 H 
ENDROOT
TORSDOF 50
ENDMDL
MODEL 28
REMARK VINA RESULT:     -10.6      4.086      5.503
REMARK  0 active torsions:
REMARK  status: ('A' for Active; 'I' for Inactive)
REMARK       I    between atoms: S_1  and  O2_2 
REMARK       I    between atoms: O2_2  and  C2_99 
REMARK       I    between atoms: C3_3  and  O3_50 
REMARK       I    between atoms: C2_5  and  O2_57 
REMARK       I    between atoms: O1S_6  and  S1_33 
REMARK       I    between atoms: O3_7  and  C3_52 
REMARK       I    between atoms: O6_9  and  C6_34 
REMARK       I    between atoms: O6_9  and  S2_17 
REMARK       I    between atoms: C2_13  and  N_73 
REMARK       I    between atoms: S_16  and  O2_57 
REMARK       I    between atoms: C1_20  and  O4_43 
REMARK       I    between atoms: C6_21  and  C5_67 
REMARK       I    between atoms: C6_21  and  O6_75 
REMARK       I    between atoms: N_22  and  C2_66 
REMARK       I    between atoms: N_22  and  S1_69 
REMARK       I    between atoms: S2_23  and  O6_75 
REMARK       I    between atoms: C1_24  and  O4_78 
REMARK       I    between atoms: C4_25  and  O4_78 
REMARK       I    between atoms: O3_26  and  C3_81 
REMARK       I    between atoms: O1S_27  and  S1_60 
REMARK       I    between atoms: O3S_28  and  S1_69 
REMARK       I    between atoms: O3_29  and  C3_87 
REMARK       I    between atoms: C6_30  and  C5_80 
REMARK       I    between atoms: O2S_32  and  S1_60 
REMARK       I    between atoms: S1_33  and  N_73 
REMARK       I    between atoms: S1_33  and  O2S_94 
REMARK       I    between atoms: S1_33  and  O3S_35 
REMARK       I    between atoms: C6_34  and  C5_38 
REMARK       I    between atoms: C2_36  and  O2_93 
REMARK       I    between atoms: O3_37  and  C3_65 
REMARK       I    between atoms: C1_40  and  O1_105 
REMARK       I    between atoms: O2S_41  and  S1_69 
REMARK       I    between atoms: C5_42  and  C6_54 
REMARK       I    between atoms: O4_43  and  C4_92 
REMARK       I    between atoms: O1_44  and  C1_62 
REMARK       I    between atoms: O1_44  and  C4_83 
REMARK       I    between atoms: C1_45  and  O4_102 
REMARK       I    between atoms: C4_46  and  O1_105 
REMARK       I    between atoms: O3S_47  and  S1_60 
REMARK       I    between atoms: C5_53  and  C6_61 
REMARK       I    between atoms: C6_54  and  O6_98 
REMARK       I    between atoms: O3_56  and  C3_84 
REMARK       I    between atoms: C5_59  and  C6_63 
REMARK       I    between atoms: S1_60  and  N_86 
REMARK       I    between atoms: S1_69  and  O1S_91 
REMARK       I    between atoms: O1_70  and  C1_96 
REMARK       I    between atoms: S_82  and  O2_93 
REMARK       I    between atoms: N_86  and  C2_90 
REMARK       I    between atoms: S2_95  and  O6_98 
REMARK       I    between atoms: C4_100  and  O4_102 
ROOT
ATOM      1  S   IDS d 303      75.674  22.838 102.777  0.00  0.00     0.252 S 
ATOM      2  O2  IDS d 303      76.583  22.267 101.391  0.00  0.00    -0.244 OA
ATOM      3  O61 IDS d 303      80.579  19.385  98.496  0.00  0.00    -0.646 OA
ATOM      4  O3  IDS d 303      79.313  23.755  99.661  0.00  0.00    -0.390 OA
ATOM      5  O3S IDS d 303      75.701  24.279 102.725  0.00  0.00    -0.572 OA
ATOM      6  C1  IDS d 303      78.835  21.829 102.088  0.00  0.00     0.161 C 
ATOM      7  C4  IDS d 303      78.404  21.582  99.098  0.00  0.00     0.103 C 
ATOM      8  O2S IDS d 303      74.337  22.320 102.688  0.00  0.00    -0.572 OA
ATOM      9  C3  IDS d 303      78.212  22.938  99.814  0.00  0.00     0.094 C 
ATOM     10  C5  IDS d 303      79.283  20.692  99.973  0.00  0.00     0.152 C 
ATOM     11  C6  IDS d 303      79.635  19.401  99.290  0.00  0.00     0.206 C 
ATOM     12  O62 IDS d 303      79.077  18.379  99.733  0.00  0.00    -0.646 OA
ATOM     13  O5  IDS d 303      79.053  20.625 101.368  0.00  0.00    -0.340 OA
ATOM     14  C2  IDS d 303      77.882  22.757 101.306  0.00  0.00     0.134 C 
ATOM     15  O1S IDS d 303      76.322  22.345 103.949  0.00  0.00    -0.572 OA
ATOM     16  H   IDS d 303      79.510  23.861  98.718  0.00  0.00     0.210 HD
ATOM     17  H   IDS d 303      78.396  21.530 103.017  0.00  0.00     0.133 H 
ATOM     18  H   IDS d 303      78.830  21.763  98.133  0.00  0.00     0.092 H 
ATOM     19  H   IDS d 303      77.375  23.415  99.346  0.00  0.00     0.091 H 
ATOM     20  H   IDS d 303      80.181  21.270 100.048  0.00  0.00     0.104 H 
ATOM     21  H   IDS d 303      77.998  23.716 101.766  0.00  0.00     0.097 H 
ATOM     22  C3  SGN d 306      84.852  28.000 109.503  0.00  0.00     0.083 C 
ATOM     23  O1S SGN d 306      82.989  26.879 112.476  0.00  0.00    -0.296 OA
ATOM     24  O4S SGN d 306      81.902  32.295 104.392  0.00  0.00    -0.572 OA
ATOM     25  O5S SGN d 306      81.883  29.989 103.867  0.00  0.00    -0.572 OA
ATOM     26  C2  SGN d 306      83.944  28.902 110.325  0.00  0.00     0.081 C 
ATOM     27  O5  SGN d 306      83.728  30.395 108.427  0.00  0.00    -0.350 OA
ATOM     28  C6  SGN d 306      84.199  29.741 106.139  0.00  0.00     0.067 C 
ATOM     29  S2  SGN d 306      82.665  31.079 104.379  0.00  0.00     0.251 S 
ATOM     30  S1  SGN d 306      83.483  28.160 112.916  0.00  0.00     0.156 S 
ATOM     31  O3S SGN d 306      84.271  28.005 114.113  0.00  0.00    -0.296 OA
ATOM     32  O4  SGN d 306      85.284  27.230 107.254  0.00  0.00    -0.348 OA
ATOM     33  O3  SGN d 306      84.736  26.675 109.987  0.00  0.00    -0.391 OA
ATOM     34  O6S SGN d 306      83.860  31.236 103.587  0.00  0.00    -0.572 OA
ATOM     35  C5  SGN d 306      84.585  29.556 107.596  0.00  0.00     0.091 C 
ATOM     36  O1  SGN d 306      85.274  30.913 110.159  0.00  0.00    -0.369 OA
ATOM     37  N   SGN d 306      84.481  28.874 111.657  0.00  0.00    -0.210 NA
ATOM     38  O6  SGN d 306      83.143  30.668 106.017  0.00  0.00    -0.254 OA
ATOM     39  C4  SGN d 306      84.427  28.084 108.034  0.00  0.00     0.095 C 
ATOM     40  O2S SGN d 306      82.398  29.063 113.147  0.00  0.00    -0.296 OA
ATOM     41  C1  SGN d 306      83.998  30.362 109.847  0.00  0.00     0.147 C 
ATOM     42  H   SGN d 306      85.874  28.308 109.586  0.00  0.00     0.089 H 
ATOM     43  H   SGN d 306      82.461  26.995 111.671  0.00  0.00     0.231 HD
ATOM     44  H   SGN d 306      82.931  28.564 110.247  0.00  0.00     0.076 H 
ATOM     45  H   SGN d 306      83.889  28.800 105.735  0.00  0.00     0.080 H 
ATOM     46  H   SGN d 306      85.047  30.113 105.603  0.00  0.00     0.080 H 
ATOM     47  H   SGN d 306      85.001  27.391 113.942  0.00  0.00     0.231 HD
ATOM     48  H   SGN d 306      83.813  26.385 109.916  0.00  0.00     0.210 HD
ATOM     49  H   SGN d 306      85.612  29.834 107.711  0.00  0.00     0.090 H 
ATOM     50  H   SGN d 306      85.417  30.873 111.118  0.00  0.00     0.212 HD
ATOM     51  H   SGN d 306      84.674  29.837 111.929  0.00  0.00     0.140 HD
ATOM     52  H   SGN d 306      83.414  27.767 107.896  0.00  0.00     0.091 H 
ATOM     53  H   SGN d 306      81.878  29.157 112.335  0.00  0.00     0.231 HD
ATOM     54  H   SGN d 306      83.259  30.955 110.344  0.00  0.00     0.131 H 
ATOM     55  C2  UAP d 301      75.449  14.836  96.579  0.00  0.00     0.132 C 
ATOM     56  S   UAP d 301      75.769  13.593  94.293  0.00  0.00     0.252 S 
ATOM     57  O1S UAP d 301      75.342  12.306  93.901  0.00  0.00    -0.572 OA
ATOM     58  C1  UAP d 301      74.703  16.135  96.800  0.00  0.00     0.161 C 
ATOM     59  O61 UAP d 301      72.304  14.036 100.470  0.00  0.00    -0.646 OA
ATOM     60  C5  UAP d 301      73.543  15.013  98.653  0.00  0.00     0.127 C 
ATOM     61  O3  UAP d 301      76.956  14.298  98.312  0.00  0.00    -0.393 OA
ATOM     62  O2  UAP d 301      74.773  14.075  95.637  0.00  0.00    -0.244 OA
ATOM     63  O5  UAP d 301      73.538  15.959  97.599  0.00  0.00    -0.343 OA
ATOM     64  C6  UAP d 301      72.328  14.896  99.566  0.00  0.00     0.203 C 
ATOM     65  O62 UAP d 301      71.381  15.676  99.326  0.00  0.00    -0.646 OA
ATOM     66  O3S UAP d 301      75.532  14.558  93.265  0.00  0.00    -0.572 OA
ATOM     67  O2S UAP d 301      77.154  13.553  94.697  0.00  0.00    -0.572 OA
ATOM     68  C3  UAP d 301      75.719  13.928  97.788  0.00  0.00     0.069 C 
ATOM     69  C4  UAP d 301      74.637  13.973  98.903  0.00  0.00    -0.005 C 
ATOM     70  H   UAP d 301      76.416  15.176  96.273  0.00  0.00     0.097 H 
ATOM     71  H   UAP d 301      74.346  16.541  95.876  0.00  0.00     0.133 H 
ATOM     72  H   UAP d 301      74.279  15.774  98.497  0.00  0.00     0.100 H 
ATOM     73  H   UAP d 301      77.626  14.268  97.611  0.00  0.00     0.210 HD
ATOM     74  H   UAP d 301      75.701  12.916  97.440  0.00  0.00     0.087 H 
ATOM     75  H   UAP d 301      74.177  13.008  98.967  0.00  0.00     0.041 H 
ATOM     76  H   UAP d 301      75.131  14.250  99.810  0.00  0.00     0.041 H 
ATOM     77  O5  IDS d 305      83.620  25.636 106.531  0.00  0.00    -0.340 OA
ATOM     78  O62 IDS d 305      81.542  24.001 107.365  0.00  0.00    -0.646 OA
ATOM     79  C1  IDS d 305      84.726  26.468 106.175  0.00  0.00     0.161 C 
ATOM     80  O3  IDS d 305      86.960  23.901 106.567  0.00  0.00    -0.390 OA
ATOM     81  C6  IDS d 305      82.687  23.513 107.500  0.00  0.00     0.206 C 
ATOM     82  C2  IDS d 305      85.866  25.687 105.469  0.00  0.00     0.134 C 
ATOM     83  C5  IDS d 305      83.838  24.286 106.855  0.00  0.00     0.152 C 
ATOM     84  C3  IDS d 305      86.010  24.160 105.612  0.00  0.00     0.094 C 
ATOM     85  S   IDS d 305      85.125  26.242 102.880  0.00  0.00     0.252 S 
ATOM     86  C4  IDS d 305      84.698  23.424 105.943  0.00  0.00     0.103 C 
ATOM     87  O3S IDS d 305      85.784  26.869 101.793  0.00  0.00    -0.572 OA
ATOM     88  O1S IDS d 305      84.000  27.012 103.274  0.00  0.00    -0.572 OA
ATOM     89  O2  IDS d 305      86.292  26.196 104.212  0.00  0.00    -0.244 OA
ATOM     90  O61 IDS d 305      82.889  22.355 107.902  0.00  0.00    -0.646 OA
ATOM     91  O2S IDS d 305      84.737  24.920 102.549  0.00  0.00    -0.572 OA
ATOM     92  H   IDS d 305      84.287  27.162 105.489  0.00  0.00     0.133 H 
ATOM     93  H   IDS d 305      87.780  24.371 106.345  0.00  0.00     0.210 HD
ATOM     94  H   IDS d 305      86.603  25.968 106.195  0.00  0.00     0.097 H 
ATOM     95  H   IDS d 305      84.510  24.507 107.658  0.00  0.00     0.104 H 
ATOM     96  H   IDS d 305      86.305  23.782 104.655  0.00  0.00     0.091 H 
ATOM     97  H   IDS d 305      84.949  22.501 106.424  0.00  0.00     0.092 H 
ATOM     98  O6  SGN d 304      79.938  20.163 104.863  0.00  0.00    -0.254 OA
ATOM     99  S2  SGN d 304      78.568  19.274 105.486  0.00  0.00     0.251 S 
ATOM    100  O5S SGN d 304      78.560  17.980 104.855  0.00  0.00    -0.572 OA
ATOM    101  N   SGN d 304      84.768  22.300 102.334  0.00  0.00    -0.210 NA
ATOM    102  O3S SGN d 304      86.332  20.349 101.613  0.00  0.00    -0.296 OA
ATOM    103  C6  SGN d 304      80.047  21.544 105.199  0.00  0.00     0.067 C 
ATOM    104  O3  SGN d 304      82.369  22.172 100.897  0.00  0.00    -0.391 OA
ATOM    105  C5  SGN d 304      81.253  22.078 104.468  0.00  0.00     0.091 C 
ATOM    106  O2S SGN d 304      87.289  22.456 101.922  0.00  0.00    -0.296 OA
ATOM    107  O1  SGN d 304      83.951  23.168 104.748  0.00  0.00    -0.348 OA
ATOM    108  O4S SGN d 304      78.708  19.134 106.903  0.00  0.00    -0.572 OA
ATOM    109  C1  SGN d 304      83.676  21.804 104.420  0.00  0.00     0.150 C 
ATOM    110  C3  SGN d 304      82.407  22.378 102.297  0.00  0.00     0.083 C 
ATOM    111  C2  SGN d 304      83.612  21.634 102.882  0.00  0.00     0.081 C 
ATOM    112  S1  SGN d 304      86.343  21.521 102.427  0.00  0.00     0.156 S 
ATOM    113  O6S SGN d 304      77.365  20.001 105.152  0.00  0.00    -0.572 OA
ATOM    114  O1S SGN d 304      86.657  21.170 103.783  0.00  0.00    -0.296 OA
ATOM    115  O5  SGN d 304      82.419  21.377 104.976  0.00  0.00    -0.349 OA
ATOM    116  C4  SGN d 304      81.144  21.830 102.949  0.00  0.00     0.095 C 
ATOM    117  O4  SGN d 304      80.018  22.538 102.409  0.00  0.00    -0.348 OA
ATOM    118  H   SGN d 304      84.852  23.195 102.816  0.00  0.00     0.140 HD
ATOM    119  H   SGN d 304      86.120  20.593 100.698  0.00  0.00     0.231 HD
ATOM    120  H   SGN d 304      80.178  21.656 106.256  0.00  0.00     0.080 H 
ATOM    121  H   SGN d 304      79.162  22.077 104.921  0.00  0.00     0.080 H 
ATOM    122  H   SGN d 304      83.179  22.526 100.497  0.00  0.00     0.210 HD
ATOM    123  H   SGN d 304      81.325  23.134 104.626  0.00  0.00     0.090 H 
ATOM    124  H   SGN d 304      87.063  22.683 101.007  0.00  0.00     0.231 HD
ATOM    125  H   SGN d 304      84.463  21.205 104.831  0.00  0.00     0.131 H 
ATOM    126  H   SGN d 304      82.481  23.428 102.486  0.00  0.00     0.089 H 
ATOM    127  H   SGN d 304      83.557  20.591 102.655  0.00  0.00     0.076 H 
ATOM    128  H   SGN d 304      86.003  20.533 104.111  0.00  0.00     0.231 HD
ATOM    129  H   SGN d 304      81.024  20.783 102.762  0.00  0.00     0.091 H 
ATOM    130  O5S SGN d 302      78.922  19.208  92.301  0.00  0.00    -0.572 OA
ATOM    131  C4  SGN d 302      75.552  18.351  97.191  0.00  0.00     0.095 C 
ATOM    132  O1S SGN d 302      72.012  21.522  99.914  0.00  0.00    -0.296 OA
ATOM    133  O3  SGN d 302      73.712  18.568  98.708  0.00  0.00    -0.391 OA
ATOM    134  O2S SGN d 302      72.813  22.455  97.896  0.00  0.00    -0.296 OA
ATOM    135  C1  SGN d 302      76.370  21.061  97.802  0.00  0.00     0.150 C 
ATOM    136  C5  SGN d 302      76.955  18.863  96.896  0.00  0.00     0.091 C 
ATOM    137  O3S SGN d 302      73.379  23.460  99.939  0.00  0.00    -0.296 OA
ATOM    138  O5  SGN d 302      76.902  20.299  96.686  0.00  0.00    -0.349 OA
ATOM    139  C6  SGN d 302      77.508  18.152  95.669  0.00  0.00     0.067 C 
ATOM    140  S1  SGN d 302      73.106  22.210  99.275  0.00  0.00     0.156 S 
ATOM    141  O4S SGN d 302      80.326  19.325  94.199  0.00  0.00    -0.572 OA
ATOM    142  O6S SGN d 302      79.336  17.270  93.559  0.00  0.00    -0.572 OA
ATOM    143  O4  SGN d 302      75.625  16.976  97.431  0.00  0.00    -0.348 OA
ATOM    144  N   SGN d 302      74.543  21.180  99.332  0.00  0.00    -0.210 NA
ATOM    145  C3  SGN d 302      75.017  19.043  98.428  0.00  0.00     0.083 C 
ATOM    146  C2  SGN d 302      74.969  20.531  98.116  0.00  0.00     0.081 C 
ATOM    147  S2  SGN d 302      79.167  18.701  93.624  0.00  0.00     0.251 S 
ATOM    148  O6  SGN d 302      77.766  19.059  94.620  0.00  0.00    -0.254 OA
ATOM    149  O1  SGN d 302      77.149  20.901  98.988  0.00  0.00    -0.348 OA
ATOM    150  H   SGN d 302      74.905  18.550  96.363  0.00  0.00     0.091 H 
ATOM    151  H   SGN d 302      71.219  22.080  99.887  0.00  0.00     0.231 HD
ATOM    152  H   SGN d 302      73.749  17.620  98.906  0.00  0.00     0.210 HD
ATOM    153  H   SGN d 302      72.026  23.019  97.828  0.00  0.00     0.231 HD
ATOM    154  H   SGN d 302      76.374  22.093  97.522  0.00  0.00     0.131 H 
ATOM    155  H   SGN d 302      77.605  18.661  97.721  0.00  0.00     0.090 H 
ATOM    156  H   SGN d 302      72.590  24.023  99.906  0.00  0.00     0.231 HD
ATOM    157  H   SGN d 302      76.793  17.428  95.335  0.00  0.00     0.080 H 
ATOM    158  H   SGN d 302      78.428  17.680  95.940  0.00  0.00     0.080 H 
ATOM    159  H   SGN d 302      74.362  20.448 100.019  0.00  0.00     0.140 HD
ATOM    160  H   SGN d 302      75.635  18.852  99.279  0.00  0.00     0.089 H 
ATOM    161  H   SGN d 302      74.323  20.710  97.282  0.00  0.00     0.076 H 
ENDROOT
TORSDOF 50
ENDMDL
MODEL 29
REMARK VINA RESULT:     -10.6      2.745      4.303
REMARK  0 active torsions:
REMARK  status: ('A' for Active; 'I' for Inactive)
REMARK       I    between atoms: S_1  and  O2_2 
REMARK       I    between atoms: O2_2  and  C2_99 
REMARK       I    between atoms: C3_3  and  O3_50 
REMARK       I    between atoms: C2_5  and  O2_57 
REMARK       I    between atoms: O1S_6  and  S1_33 
REMARK       I    between atoms: O3_7  and  C3_52 
REMARK       I    between atoms: O6_9  and  C6_34 
REMARK       I    between atoms: O6_9  and  S2_17 
REMARK       I    between atoms: C2_13  and  N_73 
REMARK       I    between atoms: S_16  and  O2_57 
REMARK       I    between atoms: C1_20  and  O4_43 
REMARK       I    between atoms: C6_21  and  C5_67 
REMARK       I    between atoms: C6_21  and  O6_75 
REMARK       I    between atoms: N_22  and  C2_66 
REMARK       I    between atoms: N_22  and  S1_69 
REMARK       I    between atoms: S2_23  and  O6_75 
REMARK       I    between atoms: C1_24  and  O4_78 
REMARK       I    between atoms: C4_25  and  O4_78 
REMARK       I    between atoms: O3_26  and  C3_81 
REMARK       I    between atoms: O1S_27  and  S1_60 
REMARK       I    between atoms: O3S_28  and  S1_69 
REMARK       I    between atoms: O3_29  and  C3_87 
REMARK       I    between atoms: C6_30  and  C5_80 
REMARK       I    between atoms: O2S_32  and  S1_60 
REMARK       I    between atoms: S1_33  and  N_73 
REMARK       I    between atoms: S1_33  and  O2S_94 
REMARK       I    between atoms: S1_33  and  O3S_35 
REMARK       I    between atoms: C6_34  and  C5_38 
REMARK       I    between atoms: C2_36  and  O2_93 
REMARK       I    between atoms: O3_37  and  C3_65 
REMARK       I    between atoms: C1_40  and  O1_105 
REMARK       I    between atoms: O2S_41  and  S1_69 
REMARK       I    between atoms: C5_42  and  C6_54 
REMARK       I    between atoms: O4_43  and  C4_92 
REMARK       I    between atoms: O1_44  and  C1_62 
REMARK       I    between atoms: O1_44  and  C4_83 
REMARK       I    between atoms: C1_45  and  O4_102 
REMARK       I    between atoms: C4_46  and  O1_105 
REMARK       I    between atoms: O3S_47  and  S1_60 
REMARK       I    between atoms: C5_53  and  C6_61 
REMARK       I    between atoms: C6_54  and  O6_98 
REMARK       I    between atoms: O3_56  and  C3_84 
REMARK       I    between atoms: C5_59  and  C6_63 
REMARK       I    between atoms: S1_60  and  N_86 
REMARK       I    between atoms: S1_69  and  O1S_91 
REMARK       I    between atoms: O1_70  and  C1_96 
REMARK       I    between atoms: S_82  and  O2_93 
REMARK       I    between atoms: N_86  and  C2_90 
REMARK       I    between atoms: S2_95  and  O6_98 
REMARK       I    between atoms: C4_100  and  O4_102 
ROOT
ATOM      1  S   IDS d 303      79.208  20.649 106.037  0.00  0.00     0.252 S 
ATOM      2  O2  IDS d 303      79.254  20.544 104.288  0.00  0.00    -0.244 OA
ATOM      3  O61 IDS d 303      81.519  20.022  99.068  0.00  0.00    -0.646 OA
ATOM      4  O3  IDS d 303      79.320  23.117 101.832  0.00  0.00    -0.390 OA
ATOM      5  O3S IDS d 303      78.517  21.872 106.361  0.00  0.00    -0.572 OA
ATOM      6  C1  IDS d 303      81.347  21.433 103.529  0.00  0.00     0.161 C 
ATOM      7  C4  IDS d 303      79.415  20.757 101.293  0.00  0.00     0.103 C 
ATOM      8  O2S IDS d 303      78.523  19.492 106.544  0.00  0.00    -0.572 OA
ATOM      9  C3  IDS d 303      79.073  21.854 102.328  0.00  0.00     0.094 C 
ATOM     10  C5  IDS d 303      80.927  20.548 101.291  0.00  0.00     0.152 C 
ATOM     11  C6  IDS d 303      81.362  19.594 100.214  0.00  0.00     0.206 C 
ATOM     12  O62 IDS d 303      81.739  18.471 100.598  0.00  0.00    -0.646 OA
ATOM     13  O5  IDS d 303      81.632  20.478 102.516  0.00  0.00    -0.340 OA
ATOM     14  C2  IDS d 303      79.824  21.643 103.654  0.00  0.00     0.134 C 
ATOM     15  O1S IDS d 303      80.557  20.672 106.502  0.00  0.00    -0.572 OA
ATOM     16  H   IDS d 303      78.841  23.237 100.997  0.00  0.00     0.210 HD
ATOM     17  H   IDS d 303      81.749  21.020 104.430  0.00  0.00     0.133 H 
ATOM     18  H   IDS d 303      79.039  21.062 100.338  0.00  0.00     0.092 H 
ATOM     19  H   IDS d 303      78.024  21.771 102.525  0.00  0.00     0.091 H 
ATOM     20  H   IDS d 303      81.287  21.519 101.024  0.00  0.00     0.104 H 
ATOM     21  H   IDS d 303      79.720  22.549 104.214  0.00  0.00     0.097 H 
ATOM     22  C3  SGN d 306      86.764  30.426 107.894  0.00  0.00     0.083 C 
ATOM     23  O1S SGN d 306      87.827  28.722 110.981  0.00  0.00    -0.296 OA
ATOM     24  O4S SGN d 306      79.789  32.062 106.498  0.00  0.00    -0.572 OA
ATOM     25  O5S SGN d 306      80.552  30.070 105.479  0.00  0.00    -0.572 OA
ATOM     26  C2  SGN d 306      86.229  30.765 109.276  0.00  0.00     0.081 C 
ATOM     27  O5  SGN d 306      84.263  31.757 108.261  0.00  0.00    -0.350 OA
ATOM     28  C6  SGN d 306      83.529  31.277 105.999  0.00  0.00     0.067 C 
ATOM     29  S2  SGN d 306      80.854  31.445 105.759  0.00  0.00     0.251 S 
ATOM     30  S1  SGN d 306      87.807  30.099 111.408  0.00  0.00     0.156 S 
ATOM     31  O3S SGN d 306      89.103  30.484 111.908  0.00  0.00    -0.296 OA
ATOM     32  O4  SGN d 306      86.081  29.830 105.654  0.00  0.00    -0.348 OA
ATOM     33  O3  SGN d 306      87.597  29.287 107.995  0.00  0.00    -0.391 OA
ATOM     34  O6S SGN d 306      81.095  32.152 104.526  0.00  0.00    -0.572 OA
ATOM     35  C5  SGN d 306      84.729  31.442 106.914  0.00  0.00     0.091 C 
ATOM     36  O1  SGN d 306      86.056  33.155 108.963  0.00  0.00    -0.369 OA
ATOM     37  N   SGN d 306      87.381  31.133 110.052  0.00  0.00    -0.210 NA
ATOM     38  O6  SGN d 306      82.328  31.484 106.711  0.00  0.00    -0.254 OA
ATOM     39  C4  SGN d 306      85.578  30.153 106.963  0.00  0.00     0.095 C 
ATOM     40  O2S SGN d 306      86.808  30.299 112.412  0.00  0.00    -0.296 OA
ATOM     41  C1  SGN d 306      85.295  31.986 109.249  0.00  0.00     0.147 C 
ATOM     42  H   SGN d 306      87.337  31.237 107.495  0.00  0.00     0.089 H 
ATOM     43  H   SGN d 306      86.950  28.474 110.647  0.00  0.00     0.231 HD
ATOM     44  H   SGN d 306      85.679  29.934 109.666  0.00  0.00     0.076 H 
ATOM     45  H   SGN d 306      83.530  30.288 105.593  0.00  0.00     0.080 H 
ATOM     46  H   SGN d 306      83.593  32.001 105.214  0.00  0.00     0.080 H 
ATOM     47  H   SGN d 306      89.770  30.343 111.218  0.00  0.00     0.231 HD
ATOM     48  H   SGN d 306      87.087  28.544 108.355  0.00  0.00     0.210 HD
ATOM     49  H   SGN d 306      85.339  32.234 106.531  0.00  0.00     0.090 H 
ATOM     50  H   SGN d 306      86.735  33.274 109.646  0.00  0.00     0.212 HD
ATOM     51  H   SGN d 306      87.214  32.069 110.421  0.00  0.00     0.140 HD
ATOM     52  H   SGN d 306      84.981  29.335 107.310  0.00  0.00     0.091 H 
ATOM     53  H   SGN d 306      85.942  30.036 112.062  0.00  0.00     0.231 HD
ATOM     54  H   SGN d 306      84.824  32.130 110.199  0.00  0.00     0.131 H 
ATOM     55  C2  UAP d 301      79.168  13.303  99.071  0.00  0.00     0.132 C 
ATOM     56  S   UAP d 301      78.613  12.246  96.736  0.00  0.00     0.252 S 
ATOM     57  O1S UAP d 301      78.707  10.903  96.311  0.00  0.00    -0.572 OA
ATOM     58  C1  UAP d 301      78.197  14.015  99.990  0.00  0.00     0.161 C 
ATOM     59  O61 UAP d 301      79.782  11.257 103.666  0.00  0.00    -0.646 OA
ATOM     60  C5  UAP d 301      79.061  12.597 101.802  0.00  0.00     0.127 C 
ATOM     61  O3  UAP d 301      81.432  13.791  99.515  0.00  0.00    -0.393 OA
ATOM     62  O2  UAP d 301      78.527  12.226  98.475  0.00  0.00    -0.244 OA
ATOM     63  O5  UAP d 301      77.989  13.308 101.208  0.00  0.00    -0.343 OA
ATOM     64  C6  UAP d 301      78.859  11.923 103.154  0.00  0.00     0.203 C 
ATOM     65  O62 UAP d 301      77.730  12.055 103.673  0.00  0.00    -0.646 OA
ATOM     66  O3S UAP d 301      77.395  12.851  96.292  0.00  0.00    -0.572 OA
ATOM     67  O2S UAP d 301      79.777  12.983  96.311  0.00  0.00    -0.572 OA
ATOM     68  C3  UAP d 301      80.487  12.778  99.659  0.00  0.00     0.069 C 
ATOM     69  C4  UAP d 301      80.414  12.326 101.144  0.00  0.00    -0.005 C 
ATOM     70  H   UAP d 301      79.461  14.080  98.398  0.00  0.00     0.097 H 
ATOM     71  H   UAP d 301      77.227  14.094  99.545  0.00  0.00     0.133 H 
ATOM     72  H   UAP d 301      79.092  13.618 101.485  0.00  0.00     0.100 H 
ATOM     73  H   UAP d 301      81.471  14.067  98.587  0.00  0.00     0.210 HD
ATOM     74  H   UAP d 301      80.746  11.889  99.122  0.00  0.00     0.087 H 
ATOM     75  H   UAP d 301      80.606  11.273 101.187  0.00  0.00     0.041 H 
ATOM     76  H   UAP d 301      81.144  12.895 101.681  0.00  0.00     0.041 H 
ATOM     77  O5  IDS d 305      85.314  27.543 105.543  0.00  0.00    -0.340 OA
ATOM     78  O62 IDS d 305      85.215  25.122 106.892  0.00  0.00    -0.646 OA
ATOM     79  C1  IDS d 305      85.436  28.806 104.885  0.00  0.00     0.161 C 
ATOM     80  O3  IDS d 305      88.341  27.868 103.329  0.00  0.00    -0.390 OA
ATOM     81  C6  IDS d 305      86.275  25.334 106.259  0.00  0.00     0.206 C 
ATOM     82  C2  IDS d 305      86.135  28.702 103.503  0.00  0.00     0.134 C 
ATOM     83  C5  IDS d 305      86.284  26.548 105.331  0.00  0.00     0.152 C 
ATOM     84  C3  IDS d 305      87.032  27.504 103.137  0.00  0.00     0.094 C 
ATOM     85  S   IDS d 305      83.858  28.568 101.965  0.00  0.00     0.252 S 
ATOM     86  C4  IDS d 305      86.715  26.210 103.911  0.00  0.00     0.103 C 
ATOM     87  O3S IDS d 305      83.353  29.362 100.906  0.00  0.00    -0.572 OA
ATOM     88  O1S IDS d 305      82.991  28.646 103.087  0.00  0.00    -0.572 OA
ATOM     89  O2  IDS d 305      85.431  29.258 102.400  0.00  0.00    -0.244 OA
ATOM     90  O61 IDS d 305      87.190  24.499 106.169  0.00  0.00    -0.646 OA
ATOM     91  O2S IDS d 305      84.032  27.222 101.559  0.00  0.00    -0.572 OA
ATOM     92  H   IDS d 305      84.417  29.102 104.751  0.00  0.00     0.133 H 
ATOM     93  H   IDS d 305      88.525  28.684 102.836  0.00  0.00     0.210 HD
ATOM     94  H   IDS d 305      86.913  29.388 103.765  0.00  0.00     0.097 H 
ATOM     95  H   IDS d 305      87.095  27.156 105.674  0.00  0.00     0.104 H 
ATOM     96  H   IDS d 305      86.838  27.267 102.112  0.00  0.00     0.091 H 
ATOM     97  H   IDS d 305      87.598  25.605 103.919  0.00  0.00     0.092 H 
ATOM     98  O6  SGN d 304      84.493  20.838 104.728  0.00  0.00    -0.254 OA
ATOM     99  S2  SGN d 304      84.383  19.407 105.726  0.00  0.00     0.251 S 
ATOM    100  O5S SGN d 304      84.614  18.264 104.883  0.00  0.00    -0.572 OA
ATOM    101  N   SGN d 304      85.159  25.016 100.679  0.00  0.00    -0.210 NA
ATOM    102  O3S SGN d 304      86.676  24.151  98.750  0.00  0.00    -0.296 OA
ATOM    103  C6  SGN d 304      84.113  22.085 105.304  0.00  0.00     0.067 C 
ATOM    104  O3  SGN d 304      82.798  23.514 100.774  0.00  0.00    -0.391 OA
ATOM    105  C5  SGN d 304      84.220  23.121 104.213  0.00  0.00     0.091 C 
ATOM    106  O2S SGN d 304      86.493  26.461  99.042  0.00  0.00    -0.296 OA
ATOM    107  O1  SGN d 304      85.639  25.501 103.283  0.00  0.00    -0.348 OA
ATOM    108  O4S SGN d 304      85.377  19.476 106.753  0.00  0.00    -0.572 OA
ATOM    109  C1  SGN d 304      85.908  24.179 102.807  0.00  0.00     0.150 C 
ATOM    110  C3  SGN d 304      83.553  23.818 101.931  0.00  0.00     0.083 C 
ATOM    111  C2  SGN d 304      85.038  23.881 101.562  0.00  0.00     0.081 C 
ATOM    112  S1  SGN d 304      86.612  25.208  99.707  0.00  0.00     0.156 S 
ATOM    113  O6S SGN d 304      83.054  19.351 106.293  0.00  0.00    -0.572 OA
ATOM    114  O1S SGN d 304      87.784  25.187 100.535  0.00  0.00    -0.296 OA
ATOM    115  O5  SGN d 304      85.614  23.193 103.813  0.00  0.00    -0.349 OA
ATOM    116  C4  SGN d 304      83.368  22.734 102.986  0.00  0.00     0.095 C 
ATOM    117  O4  SGN d 304      81.978  22.686 103.341  0.00  0.00    -0.348 OA
ATOM    118  H   SGN d 304      85.076  25.852 101.258  0.00  0.00     0.140 HD
ATOM    119  H   SGN d 304      85.882  24.171  98.193  0.00  0.00     0.231 HD
ATOM    120  H   SGN d 304      84.770  22.333 106.112  0.00  0.00     0.080 H 
ATOM    121  H   SGN d 304      83.118  22.039 105.694  0.00  0.00     0.080 H 
ATOM    122  H   SGN d 304      82.925  24.212 100.113  0.00  0.00     0.210 HD
ATOM    123  H   SGN d 304      83.863  24.061 104.580  0.00  0.00     0.090 H 
ATOM    124  H   SGN d 304      85.698  26.458  98.488  0.00  0.00     0.231 HD
ATOM    125  H   SGN d 304      86.948  24.128 102.559  0.00  0.00     0.131 H 
ATOM    126  H   SGN d 304      83.218  24.757 102.320  0.00  0.00     0.089 H 
ATOM    127  H   SGN d 304      85.359  22.956 101.134  0.00  0.00     0.076 H 
ATOM    128  H   SGN d 304      87.850  24.328 100.980  0.00  0.00     0.231 HD
ATOM    129  H   SGN d 304      83.672  21.773 102.625  0.00  0.00     0.091 H 
ATOM    130  O5S SGN d 302      76.858  18.499  94.932  0.00  0.00    -0.572 OA
ATOM    131  C4  SGN d 302      77.942  16.365 100.434  0.00  0.00     0.095 C 
ATOM    132  O1S SGN d 302      75.737  17.359 105.349  0.00  0.00    -0.296 OA
ATOM    133  O3  SGN d 302      77.529  15.685 102.693  0.00  0.00    -0.391 OA
ATOM    134  O2S SGN d 302      74.630  18.413 103.546  0.00  0.00    -0.296 OA
ATOM    135  C1  SGN d 302      77.562  19.131 101.202  0.00  0.00     0.150 C 
ATOM    136  C5  SGN d 302      78.446  17.521  99.582  0.00  0.00     0.091 C 
ATOM    137  O3S SGN d 302      75.734  19.723 105.148  0.00  0.00    -0.296 OA
ATOM    138  O5  SGN d 302      77.610  18.685  99.820  0.00  0.00    -0.349 OA
ATOM    139  C6  SGN d 302      78.418  17.121  98.114  0.00  0.00     0.067 C 
ATOM    140  S1  SGN d 302      75.752  18.472 104.432  0.00  0.00     0.156 S 
ATOM    141  O4S SGN d 302      78.844  19.496  95.736  0.00  0.00    -0.572 OA
ATOM    142  O6S SGN d 302      78.785  17.188  95.210  0.00  0.00    -0.572 OA
ATOM    143  O4  SGN d 302      78.779  15.265 100.225  0.00  0.00    -0.348 OA
ATOM    144  N   SGN d 302      77.213  18.377 103.439  0.00  0.00    -0.210 NA
ATOM    145  C3  SGN d 302      77.995  16.760 101.896  0.00  0.00     0.083 C 
ATOM    146  C2  SGN d 302      77.079  17.961 102.063  0.00  0.00     0.081 C 
ATOM    147  S2  SGN d 302      78.039  18.307  95.729  0.00  0.00     0.251 S 
ATOM    148  O6  SGN d 302      77.541  17.939  97.373  0.00  0.00    -0.254 OA
ATOM    149  O1  SGN d 302      78.848  19.505 101.695  0.00  0.00    -0.348 OA
ATOM    150  H   SGN d 302      76.935  16.122 100.167  0.00  0.00     0.091 H 
ATOM    151  H   SGN d 302      74.939  17.404 105.898  0.00  0.00     0.231 HD
ATOM    152  H   SGN d 302      78.118  14.922 102.582  0.00  0.00     0.210 HD
ATOM    153  H   SGN d 302      73.809  18.463 104.061  0.00  0.00     0.231 HD
ATOM    154  H   SGN d 302      76.913  19.980 101.247  0.00  0.00     0.131 H 
ATOM    155  H   SGN d 302      79.454  17.763  99.845  0.00  0.00     0.090 H 
ATOM    156  H   SGN d 302      74.933  19.773 105.692  0.00  0.00     0.231 HD
ATOM    157  H   SGN d 302      78.093  16.104  98.037  0.00  0.00     0.080 H 
ATOM    158  H   SGN d 302      79.403  17.236  97.715  0.00  0.00     0.080 H 
ATOM    159  H   SGN d 302      77.845  17.718 103.893  0.00  0.00     0.140 HD
ATOM    160  H   SGN d 302      78.994  16.996 102.198  0.00  0.00     0.089 H 
ATOM    161  H   SGN d 302      76.078  17.702 101.786  0.00  0.00     0.076 H 
ENDROOT
TORSDOF 50
ENDMDL
MODEL 30
REMARK VINA RESULT:     -10.6      4.753     14.637
REMARK  0 active torsions:
REMARK  status: ('A' for Active; 'I' for Inactive)
REMARK       I    between atoms: S_1  and  O2_2 
REMARK       I    between atoms: O2_2  and  C2_99 
REMARK       I    between atoms: C3_3  and  O3_50 
REMARK       I    between atoms: C2_5  and  O2_57 
REMARK       I    between atoms: O1S_6  and  S1_33 
REMARK       I    between atoms: O3_7  and  C3_52 
REMARK       I    between atoms: O6_9  and  C6_34 
REMARK       I    between atoms: O6_9  and  S2_17 
REMARK       I    between atoms: C2_13  and  N_73 
REMARK       I    between atoms: S_16  and  O2_57 
REMARK       I    between atoms: C1_20  and  O4_43 
REMARK       I    between atoms: C6_21  and  C5_67 
REMARK       I    between atoms: C6_21  and  O6_75 
REMARK       I    between atoms: N_22  and  C2_66 
REMARK       I    between atoms: N_22  and  S1_69 
REMARK       I    between atoms: S2_23  and  O6_75 
REMARK       I    between atoms: C1_24  and  O4_78 
REMARK       I    between atoms: C4_25  and  O4_78 
REMARK       I    between atoms: O3_26  and  C3_81 
REMARK       I    between atoms: O1S_27  and  S1_60 
REMARK       I    between atoms: O3S_28  and  S1_69 
REMARK       I    between atoms: O3_29  and  C3_87 
REMARK       I    between atoms: C6_30  and  C5_80 
REMARK       I    between atoms: O2S_32  and  S1_60 
REMARK       I    between atoms: S1_33  and  N_73 
REMARK       I    between atoms: S1_33  and  O2S_94 
REMARK       I    between atoms: S1_33  and  O3S_35 
REMARK       I    between atoms: C6_34  and  C5_38 
REMARK       I    between atoms: C2_36  and  O2_93 
REMARK       I    between atoms: O3_37  and  C3_65 
REMARK       I    between atoms: C1_40  and  O1_105 
REMARK       I    between atoms: O2S_41  and  S1_69 
REMARK       I    between atoms: C5_42  and  C6_54 
REMARK       I    between atoms: O4_43  and  C4_92 
REMARK       I    between atoms: O1_44  and  C1_62 
REMARK       I    between atoms: O1_44  and  C4_83 
REMARK       I    between atoms: C1_45  and  O4_102 
REMARK       I    between atoms: C4_46  and  O1_105 
REMARK       I    between atoms: O3S_47  and  S1_60 
REMARK       I    between atoms: C5_53  and  C6_61 
REMARK       I    between atoms: C6_54  and  O6_98 
REMARK       I    between atoms: O3_56  and  C3_84 
REMARK       I    between atoms: C5_59  and  C6_63 
REMARK       I    between atoms: S1_60  and  N_86 
REMARK       I    between atoms: S1_69  and  O1S_91 
REMARK       I    between atoms: O1_70  and  C1_96 
REMARK       I    between atoms: S_82  and  O2_93 
REMARK       I    between atoms: N_86  and  C2_90 
REMARK       I    between atoms: S2_95  and  O6_98 
REMARK       I    between atoms: C4_100  and  O4_102 
ROOT
ATOM      1  S   IDS d 303      77.829  22.362 105.244  0.00  0.00     0.252 S 
ATOM      2  O2  IDS d 303      79.362  21.726 104.682  0.00  0.00    -0.244 OA
ATOM      3  O61 IDS d 303      83.732  20.813 101.115  0.00  0.00    -0.646 OA
ATOM      4  O3  IDS d 303      80.139  18.598 103.175  0.00  0.00    -0.390 OA
ATOM      5  O3S IDS d 303      77.036  21.230 105.655  0.00  0.00    -0.572 OA
ATOM      6  C1  IDS d 303      79.251  21.474 102.300  0.00  0.00     0.161 C 
ATOM      7  C4  IDS d 303      81.777  20.345 103.539  0.00  0.00     0.103 C 
ATOM      8  O2S IDS d 303      78.084  23.265 106.333  0.00  0.00    -0.572 OA
ATOM      9  C3  IDS d 303      80.393  19.752 103.887  0.00  0.00     0.094 C 
ATOM     10  C5  IDS d 303      81.663  21.094 102.214  0.00  0.00     0.152 C 
ATOM     11  C6  IDS d 303      82.997  21.588 101.730  0.00  0.00     0.206 C 
ATOM     12  O62 IDS d 303      83.183  22.818 101.802  0.00  0.00    -0.646 OA
ATOM     13  O5  IDS d 303      80.553  21.939 101.973  0.00  0.00    -0.340 OA
ATOM     14  C2  IDS d 303      79.261  20.772 103.674  0.00  0.00     0.134 C 
ATOM     15  O1S IDS d 303      77.224  23.054 104.153  0.00  0.00    -0.572 OA
ATOM     16  H   IDS d 303      80.858  17.964 103.318  0.00  0.00     0.210 HD
ATOM     17  H   IDS d 303      78.635  22.348 102.324  0.00  0.00     0.133 H 
ATOM     18  H   IDS d 303      82.490  19.547 103.503  0.00  0.00     0.092 H 
ATOM     19  H   IDS d 303      80.420  19.502 104.928  0.00  0.00     0.091 H 
ATOM     20  H   IDS d 303      81.346  20.321 101.546  0.00  0.00     0.104 H 
ATOM     21  H   IDS d 303      78.342  20.225 103.706  0.00  0.00     0.097 H 
ATOM     22  C3  SGN d 306      70.198  18.001  96.362  0.00  0.00     0.083 C 
ATOM     23  O1S SGN d 306      68.280  21.113  96.809  0.00  0.00    -0.296 OA
ATOM     24  O4S SGN d 306      71.579  13.401 101.858  0.00  0.00    -0.572 OA
ATOM     25  O5S SGN d 306      73.342  14.899 101.366  0.00  0.00    -0.572 OA
ATOM     26  C2  SGN d 306      68.930  18.102  97.195  0.00  0.00     0.081 C 
ATOM     27  O5  SGN d 306      69.579  16.107  98.409  0.00  0.00    -0.350 OA
ATOM     28  C6  SGN d 306      71.852  15.264  98.496  0.00  0.00     0.067 C 
ATOM     29  S2  SGN d 306      72.364  14.002 100.817  0.00  0.00     0.251 S 
ATOM     30  S1  SGN d 306      67.223  20.155  96.599  0.00  0.00     0.156 S 
ATOM     31  O3S SGN d 306      66.414  20.545  95.471  0.00  0.00    -0.296 OA
ATOM     32  O4  SGN d 306      72.504  17.282  96.440  0.00  0.00    -0.348 OA
ATOM     33  O3  SGN d 306      70.567  19.298  95.933  0.00  0.00    -0.391 OA
ATOM     34  O6S SGN d 306      73.019  12.992 100.025  0.00  0.00    -0.572 OA
ATOM     35  C5  SGN d 306      70.815  15.974  97.644  0.00  0.00     0.091 C 
ATOM     36  O1  SGN d 306      68.013  15.940  96.627  0.00  0.00    -0.369 OA
ATOM     37  N   SGN d 306      67.916  18.569  96.291  0.00  0.00    -0.210 NA
ATOM     38  O6  SGN d 306      71.318  14.937  99.761  0.00  0.00    -0.254 OA
ATOM     39  C4  SGN d 306      71.301  17.378  97.225  0.00  0.00     0.095 C 
ATOM     40  O2S SGN d 306      66.415  20.033  97.773  0.00  0.00    -0.296 OA
ATOM     41  C1  SGN d 306      68.473  16.731  97.718  0.00  0.00     0.147 C 
ATOM     42  H   SGN d 306      70.043  17.385  95.501  0.00  0.00     0.089 H 
ATOM     43  H   SGN d 306      68.817  20.841  97.569  0.00  0.00     0.231 HD
ATOM     44  H   SGN d 306      69.099  18.740  98.038  0.00  0.00     0.076 H 
ATOM     45  H   SGN d 306      72.698  15.906  98.628  0.00  0.00     0.080 H 
ATOM     46  H   SGN d 306      72.145  14.362  98.001  0.00  0.00     0.080 H 
ATOM     47  H   SGN d 306      66.973  20.624  94.684  0.00  0.00     0.231 HD
ATOM     48  H   SGN d 306      70.711  19.866  96.707  0.00  0.00     0.210 HD
ATOM     49  H   SGN d 306      70.651  15.395  96.760  0.00  0.00     0.090 H 
ATOM     50  H   SGN d 306      67.273  16.391  96.190  0.00  0.00     0.212 HD
ATOM     51  H   SGN d 306      67.153  17.892  96.312  0.00  0.00     0.140 HD
ATOM     52  H   SGN d 306      71.508  17.969  98.092  0.00  0.00     0.091 H 
ATOM     53  H   SGN d 306      66.972  19.771  98.522  0.00  0.00     0.231 HD
ATOM     54  H   SGN d 306      67.661  16.835  98.407  0.00  0.00     0.131 H 
ATOM     55  C2  UAP d 301      87.472  25.436 105.028  0.00  0.00     0.132 C 
ATOM     56  S   UAP d 301      90.073  25.105 105.079  0.00  0.00     0.252 S 
ATOM     57  O1S UAP d 301      91.099  26.064 105.213  0.00  0.00    -0.572 OA
ATOM     58  C1  UAP d 301      86.473  24.868 106.014  0.00  0.00     0.161 C 
ATOM     59  O61 UAP d 301      84.511  29.294 106.446  0.00  0.00    -0.646 OA
ATOM     60  C5  UAP d 301      85.523  27.129 106.167  0.00  0.00     0.127 C 
ATOM     61  O3  UAP d 301      86.516  26.088 102.972  0.00  0.00    -0.393 OA
ATOM     62  O2  UAP d 301      88.617  25.824 105.708  0.00  0.00    -0.244 OA
ATOM     63  O5  UAP d 301      85.826  25.885 106.772  0.00  0.00    -0.343 OA
ATOM     64  C6  UAP d 301      84.745  28.179 106.953  0.00  0.00     0.203 C 
ATOM     65  O62 UAP d 301      84.402  27.858 108.111  0.00  0.00    -0.646 OA
ATOM     66  O3S UAP d 301      90.323  23.955 105.892  0.00  0.00    -0.572 OA
ATOM     67  O2S UAP d 301      89.891  24.764 103.690  0.00  0.00    -0.572 OA
ATOM     68  C3  UAP d 301      87.045  26.620 104.146  0.00  0.00     0.069 C 
ATOM     69  C4  UAP d 301      86.022  27.592 104.797  0.00  0.00    -0.005 C 
ATOM     70  H   UAP d 301      87.608  24.624 104.344  0.00  0.00     0.097 H 
ATOM     71  H   UAP d 301      86.953  24.245 106.739  0.00  0.00     0.133 H 
ATOM     72  H   UAP d 301      85.272  26.169 105.770  0.00  0.00     0.100 H 
ATOM     73  H   UAP d 301      87.160  25.483 102.573  0.00  0.00     0.210 HD
ATOM     74  H   UAP d 301      87.913  27.222 103.975  0.00  0.00     0.087 H 
ATOM     75  H   UAP d 301      86.489  28.548 104.913  0.00  0.00     0.041 H 
ATOM     76  H   UAP d 301      85.170  27.630 104.150  0.00  0.00     0.041 H 
ATOM     77  O5  IDS d 305      73.868  18.821  97.706  0.00  0.00    -0.340 OA
ATOM     78  O62 IDS d 305      73.959  21.343  98.856  0.00  0.00    -0.646 OA
ATOM     79  C1  IDS d 305      73.771  17.552  97.056  0.00  0.00     0.161 C 
ATOM     80  O3  IDS d 305      75.142  18.775  94.164  0.00  0.00    -0.390 OA
ATOM     81  C6  IDS d 305      74.235  21.307  97.635  0.00  0.00     0.206 C 
ATOM     82  C2  IDS d 305      74.896  17.320  96.012  0.00  0.00     0.134 C 
ATOM     83  C5  IDS d 305      74.409  19.920  97.016  0.00  0.00     0.152 C 
ATOM     84  C3  IDS d 305      75.681  18.493  95.394  0.00  0.00     0.094 C 
ATOM     85  S   IDS d 305      76.603  15.909  97.642  0.00  0.00     0.252 S 
ATOM     86  C4  IDS d 305      75.724  19.762  96.266  0.00  0.00     0.103 C 
ATOM     87  O3S IDS d 305      77.176  14.616  97.563  0.00  0.00    -0.572 OA
ATOM     88  O1S IDS d 305      75.738  15.988  98.765  0.00  0.00    -0.572 OA
ATOM     89  O2  IDS d 305      75.655  16.128  96.163  0.00  0.00    -0.244 OA
ATOM     90  O61 IDS d 305      74.600  22.305  96.990  0.00  0.00    -0.646 OA
ATOM     91  O2S IDS d 305      77.605  16.910  97.711  0.00  0.00    -0.572 OA
ATOM     92  H   IDS d 305      73.884  16.863  97.866  0.00  0.00     0.133 H 
ATOM     93  H   IDS d 305      75.121  17.967  93.627  0.00  0.00     0.210 HD
ATOM     94  H   IDS d 305      74.211  17.165  95.204  0.00  0.00     0.097 H 
ATOM     95  H   IDS d 305      73.691  19.875  96.223  0.00  0.00     0.104 H 
ATOM     96  H   IDS d 305      76.700  18.179  95.311  0.00  0.00     0.091 H 
ATOM     97  H   IDS d 305      75.893  20.600  95.622  0.00  0.00     0.092 H 
ATOM     98  O6  SGN d 304      78.072  23.673  99.962  0.00  0.00    -0.254 OA
ATOM     99  S2  SGN d 304      77.963  25.228 100.752  0.00  0.00     0.251 S 
ATOM    100  O5S SGN d 304      79.224  25.899 100.577  0.00  0.00    -0.572 OA
ATOM    101  N   SGN d 304      79.303  18.782  96.987  0.00  0.00    -0.210 NA
ATOM    102  O3S SGN d 304      81.158  19.255  95.224  0.00  0.00    -0.296 OA
ATOM    103  C6  SGN d 304      77.007  22.746 100.161  0.00  0.00     0.067 C 
ATOM    104  O3  SGN d 304      80.328  19.154  99.565  0.00  0.00    -0.391 OA
ATOM    105  C5  SGN d 304      77.395  21.474  99.449  0.00  0.00     0.091 C 
ATOM    106  O2S SGN d 304      79.769  17.412  94.875  0.00  0.00    -0.296 OA
ATOM    107  O1  SGN d 304      76.774  19.668  97.237  0.00  0.00    -0.348 OA
ATOM    108  O4S SGN d 304      76.909  25.985 100.148  0.00  0.00    -0.572 OA
ATOM    109  C1  SGN d 304      77.808  20.655  97.190  0.00  0.00     0.150 C 
ATOM    110  C3  SGN d 304      79.080  19.682  99.159  0.00  0.00     0.083 C 
ATOM    111  C2  SGN d 304      79.144  20.041  97.671  0.00  0.00     0.081 C 
ATOM    112  S1  SGN d 304      79.819  18.768  95.305  0.00  0.00     0.156 S 
ATOM    113  O6S SGN d 304      77.704  25.007 102.157  0.00  0.00    -0.572 OA
ATOM    114  O1S SGN d 304      78.955  19.583  94.501  0.00  0.00    -0.296 OA
ATOM    115  O5  SGN d 304      77.494  21.778  98.033  0.00  0.00    -0.349 OA
ATOM    116  C4  SGN d 304      78.758  20.948  99.944  0.00  0.00     0.095 C 
ATOM    117  O4  SGN d 304      78.684  20.606 101.336  0.00  0.00    -0.348 OA
ATOM    118  H   SGN d 304      78.401  18.308  97.023  0.00  0.00     0.140 HD
ATOM    119  H   SGN d 304      81.738  18.700  95.769  0.00  0.00     0.231 HD
ATOM    120  H   SGN d 304      76.099  23.135  99.750  0.00  0.00     0.080 H 
ATOM    121  H   SGN d 304      76.844  22.568 101.203  0.00  0.00     0.080 H 
ATOM    122  H   SGN d 304      80.518  18.349  99.058  0.00  0.00     0.210 HD
ATOM    123  H   SGN d 304      76.660  20.721  99.643  0.00  0.00     0.090 H 
ATOM    124  H   SGN d 304      80.358  16.875  95.428  0.00  0.00     0.231 HD
ATOM    125  H   SGN d 304      77.892  20.989  96.176  0.00  0.00     0.131 H 
ATOM    126  H   SGN d 304      78.323  18.947  99.340  0.00  0.00     0.089 H 
ATOM    127  H   SGN d 304      79.930  20.743  97.487  0.00  0.00     0.076 H 
ATOM    128  H   SGN d 304      79.001  20.502  94.807  0.00  0.00     0.231 HD
ATOM    129  H   SGN d 304      79.507  21.700  99.805  0.00  0.00     0.091 H 
ATOM    130  O5S SGN d 302      88.701  18.533 104.471  0.00  0.00    -0.572 OA
ATOM    131  C4  SGN d 302      84.944  23.028 105.769  0.00  0.00     0.095 C 
ATOM    132  O1S SGN d 302      80.586  23.447 109.060  0.00  0.00    -0.296 OA
ATOM    133  O3  SGN d 302      83.428  24.384 107.032  0.00  0.00    -0.391 OA
ATOM    134  O2S SGN d 302      81.748  21.396 109.228  0.00  0.00    -0.296 OA
ATOM    135  C1  SGN d 302      82.948  20.935 105.629  0.00  0.00     0.150 C 
ATOM    136  C5  SGN d 302      85.010  21.910 104.738  0.00  0.00     0.091 C 
ATOM    137  O3S SGN d 302      79.561  21.419 108.378  0.00  0.00    -0.296 OA
ATOM    138  O5  SGN d 302      84.341  20.735 105.269  0.00  0.00    -0.349 OA
ATOM    139  C6  SGN d 302      86.465  21.607 104.408  0.00  0.00     0.067 C 
ATOM    140  S1  SGN d 302      80.801  22.151 108.466  0.00  0.00     0.156 S 
ATOM    141  O4S SGN d 302      87.222  18.813 102.649  0.00  0.00    -0.572 OA
ATOM    142  O6S SGN d 302      88.846  20.464 103.145  0.00  0.00    -0.572 OA
ATOM    143  O4  SGN d 302      85.555  24.163 105.229  0.00  0.00    -0.348 OA
ATOM    144  N   SGN d 302      81.479  22.367 106.847  0.00  0.00    -0.210 NA
ATOM    145  C3  SGN d 302      83.494  23.342 106.075  0.00  0.00     0.083 C 
ATOM    146  C2  SGN d 302      82.878  22.076 106.647  0.00  0.00     0.081 C 
ATOM    147  S2  SGN d 302      87.947  19.479 103.694  0.00  0.00     0.251 S 
ATOM    148  O6  SGN d 302      86.809  20.286 104.761  0.00  0.00    -0.254 OA
ATOM    149  O1  SGN d 302      82.151  21.327 104.512  0.00  0.00    -0.348 OA
ATOM    150  H   SGN d 302      85.442  22.730 106.668  0.00  0.00     0.091 H 
ATOM    151  H   SGN d 302      80.214  23.338 109.949  0.00  0.00     0.231 HD
ATOM    152  H   SGN d 302      83.822  25.189 106.661  0.00  0.00     0.210 HD
ATOM    153  H   SGN d 302      81.406  21.259 110.126  0.00  0.00     0.231 HD
ATOM    154  H   SGN d 302      82.576  20.008 106.012  0.00  0.00     0.131 H 
ATOM    155  H   SGN d 302      84.517  22.208 103.837  0.00  0.00     0.090 H 
ATOM    156  H   SGN d 302      79.191  21.302 109.267  0.00  0.00     0.231 HD
ATOM    157  H   SGN d 302      87.092  22.286 104.947  0.00  0.00     0.080 H 
ATOM    158  H   SGN d 302      86.601  21.721 103.353  0.00  0.00     0.080 H 
ATOM    159  H   SGN d 302      81.333  23.342 106.586  0.00  0.00     0.140 HD
ATOM    160  H   SGN d 302      82.971  23.658 105.196  0.00  0.00     0.089 H 
ATOM    161  H   SGN d 302      83.392  21.789 107.541  0.00  0.00     0.076 H 
ENDROOT
TORSDOF 50
ENDMDL
MODEL 31
REMARK VINA RESULT:     -10.6      2.744      3.864
REMARK  0 active torsions:
REMARK  status: ('A' for Active; 'I' for Inactive)
REMARK       I    between atoms: S_1  and  O2_2 
REMARK       I    between atoms: O2_2  and  C2_99 
REMARK       I    between atoms: C3_3  and  O3_50 
REMARK       I    between atoms: C2_5  and  O2_57 
REMARK       I    between atoms: O1S_6  and  S1_33 
REMARK       I    between atoms: O3_7  and  C3_52 
REMARK       I    between atoms: O6_9  and  C6_34 
REMARK       I    between atoms: O6_9  and  S2_17 
REMARK       I    between atoms: C2_13  and  N_73 
REMARK       I    between atoms: S_16  and  O2_57 
REMARK       I    between atoms: C1_20  and  O4_43 
REMARK       I    between atoms: C6_21  and  C5_67 
REMARK       I    between atoms: C6_21  and  O6_75 
REMARK       I    between atoms: N_22  and  C2_66 
REMARK       I    between atoms: N_22  and  S1_69 
REMARK       I    between atoms: S2_23  and  O6_75 
REMARK       I    between atoms: C1_24  and  O4_78 
REMARK       I    between atoms: C4_25  and  O4_78 
REMARK       I    between atoms: O3_26  and  C3_81 
REMARK       I    between atoms: O1S_27  and  S1_60 
REMARK       I    between atoms: O3S_28  and  S1_69 
REMARK       I    between atoms: O3_29  and  C3_87 
REMARK       I    between atoms: C6_30  and  C5_80 
REMARK       I    between atoms: O2S_32  and  S1_60 
REMARK       I    between atoms: S1_33  and  N_73 
REMARK       I    between atoms: S1_33  and  O2S_94 
REMARK       I    between atoms: S1_33  and  O3S_35 
REMARK       I    between atoms: C6_34  and  C5_38 
REMARK       I    between atoms: C2_36  and  O2_93 
REMARK       I    between atoms: O3_37  and  C3_65 
REMARK       I    between atoms: C1_40  and  O1_105 
REMARK       I    between atoms: O2S_41  and  S1_69 
REMARK       I    between atoms: C5_42  and  C6_54 
REMARK       I    between atoms: O4_43  and  C4_92 
REMARK       I    between atoms: O1_44  and  C1_62 
REMARK       I    between atoms: O1_44  and  C4_83 
REMARK       I    between atoms: C1_45  and  O4_102 
REMARK       I    between atoms: C4_46  and  O1_105 
REMARK       I    between atoms: O3S_47  and  S1_60 
REMARK       I    between atoms: C5_53  and  C6_61 
REMARK       I    between atoms: C6_54  and  O6_98 
REMARK       I    between atoms: O3_56  and  C3_84 
REMARK       I    between atoms: C5_59  and  C6_63 
REMARK       I    between atoms: S1_60  and  N_86 
REMARK       I    between atoms: S1_69  and  O1S_91 
REMARK       I    between atoms: O1_70  and  C1_96 
REMARK       I    between atoms: S_82  and  O2_93 
REMARK       I    between atoms: N_86  and  C2_90 
REMARK       I    between atoms: S2_95  and  O6_98 
REMARK       I    between atoms: C4_100  and  O4_102 
ROOT
ATOM      1  S   IDS d 303      78.275  19.936 103.481  0.00  0.00     0.252 S 
ATOM      2  O2  IDS d 303      79.319  19.599 102.113  0.00  0.00    -0.244 OA
ATOM      3  O61 IDS d 303      84.092  18.171  99.315  0.00  0.00    -0.646 OA
ATOM      4  O3  IDS d 303      81.218  21.808 100.071  0.00  0.00    -0.390 OA
ATOM      5  O3S IDS d 303      77.730  21.255 103.271  0.00  0.00    -0.572 OA
ATOM      6  C1  IDS d 303      81.569  20.165 102.717  0.00  0.00     0.161 C 
ATOM      7  C4  IDS d 303      81.234  19.401  99.803  0.00  0.00     0.103 C 
ATOM      8  O2S IDS d 303      77.250  18.931 103.528  0.00  0.00    -0.572 OA
ATOM      9  C3  IDS d 303      80.531  20.652 100.377  0.00  0.00     0.094 C 
ATOM     10  C5  IDS d 303      82.404  19.041 100.715  0.00  0.00     0.152 C 
ATOM     11  C6  IDS d 303      83.228  17.916 100.157  0.00  0.00     0.206 C 
ATOM     12  O62 IDS d 303      83.125  16.820 100.741  0.00  0.00    -0.646 OA
ATOM     13  O5  IDS d 303      82.236  19.062 102.121  0.00  0.00    -0.340 OA
ATOM     14  C2  IDS d 303      80.318  20.542 101.897  0.00  0.00     0.134 C 
ATOM     15  O1S IDS d 303      79.079  19.885 104.658  0.00  0.00    -0.572 OA
ATOM     16  H   IDS d 303      81.346  21.865  99.111  0.00  0.00     0.210 HD
ATOM     17  H   IDS d 303      81.295  19.835 103.698  0.00  0.00     0.133 H 
ATOM     18  H   IDS d 303      81.543  19.613  98.800  0.00  0.00     0.092 H 
ATOM     19  H   IDS d 303      79.569  20.702  99.911  0.00  0.00     0.091 H 
ATOM     20  H   IDS d 303      83.001  19.927 100.673  0.00  0.00     0.104 H 
ATOM     21  H   IDS d 303      80.052  21.520 102.242  0.00  0.00     0.097 H 
ATOM     22  C3  SGN d 306      84.751  29.061 109.042  0.00  0.00     0.083 C 
ATOM     23  O1S SGN d 306      83.518  27.679 112.225  0.00  0.00    -0.296 OA
ATOM     24  O4S SGN d 306      80.284  31.195 103.680  0.00  0.00    -0.572 OA
ATOM     25  O5S SGN d 306      81.170  29.019 103.411  0.00  0.00    -0.572 OA
ATOM     26  C2  SGN d 306      83.571  29.631 109.813  0.00  0.00     0.081 C 
ATOM     27  O5  SGN d 306      82.760  30.674 107.780  0.00  0.00    -0.350 OA
ATOM     28  C6  SGN d 306      83.423  29.978 105.553  0.00  0.00     0.067 C 
ATOM     29  S2  SGN d 306      81.465  30.382 103.753  0.00  0.00     0.251 S 
ATOM     30  S1  SGN d 306      83.472  29.094 112.493  0.00  0.00     0.156 S 
ATOM     31  O3S SGN d 306      84.271  29.409 113.650  0.00  0.00    -0.296 OA
ATOM     32  O4  SGN d 306      85.425  28.248 106.868  0.00  0.00    -0.348 OA
ATOM     33  O3  SGN d 306      85.173  27.867 109.673  0.00  0.00    -0.391 OA
ATOM     34  O6S SGN d 306      82.490  30.893 102.879  0.00  0.00    -0.572 OA
ATOM     35  C5  SGN d 306      83.869  30.140 106.996  0.00  0.00     0.091 C 
ATOM     36  O1  SGN d 306      83.997  31.964 109.350  0.00  0.00    -0.369 OA
ATOM     37  N   SGN d 306      84.091  29.979 111.106  0.00  0.00    -0.210 NA
ATOM     38  O6  SGN d 306      82.085  30.396 105.395  0.00  0.00    -0.254 OA
ATOM     39  C4  SGN d 306      84.309  28.789 107.601  0.00  0.00     0.095 C 
ATOM     40  O2S SGN d 306      82.122  29.524 112.689  0.00  0.00    -0.296 OA
ATOM     41  C1  SGN d 306      83.039  30.925 109.177  0.00  0.00     0.147 C 
ATOM     42  H   SGN d 306      85.569  29.751 109.029  0.00  0.00     0.089 H 
ATOM     43  H   SGN d 306      82.977  27.479 111.446  0.00  0.00     0.231 HD
ATOM     44  H   SGN d 306      82.773  28.918 109.834  0.00  0.00     0.076 H 
ATOM     45  H   SGN d 306      83.505  28.949 105.274  0.00  0.00     0.080 H 
ATOM     46  H   SGN d 306      84.049  30.582 104.930  0.00  0.00     0.080 H 
ATOM     47  H   SGN d 306      85.183  29.113 113.504  0.00  0.00     0.231 HD
ATOM     48  H   SGN d 306      84.439  27.233 109.690  0.00  0.00     0.210 HD
ATOM     49  H   SGN d 306      84.704  30.809 107.018  0.00  0.00     0.090 H 
ATOM     50  H   SGN d 306      84.156  32.102 110.297  0.00  0.00     0.212 HD
ATOM     51  H   SGN d 306      83.892  30.968 111.259  0.00  0.00     0.140 HD
ATOM     52  H   SGN d 306      83.503  28.088 107.558  0.00  0.00     0.091 H 
ATOM     53  H   SGN d 306      81.596  29.306 111.904  0.00  0.00     0.231 HD
ATOM     54  H   SGN d 306      82.131  31.239 109.649  0.00  0.00     0.131 H 
ATOM     55  C2  UAP d 301      81.152  11.782  98.215  0.00  0.00     0.132 C 
ATOM     56  S   UAP d 301      81.909  10.489  96.063  0.00  0.00     0.252 S 
ATOM     57  O1S UAP d 301      82.019   9.100  95.840  0.00  0.00    -0.572 OA
ATOM     58  C1  UAP d 301      79.956  12.703  98.338  0.00  0.00     0.161 C 
ATOM     59  O61 UAP d 301      78.626  10.306 102.352  0.00  0.00    -0.646 OA
ATOM     60  C5  UAP d 301      79.356  11.456 100.368  0.00  0.00     0.127 C 
ATOM     61  O3  UAP d 301      82.770  12.094  99.903  0.00  0.00    -0.393 OA
ATOM     62  O2  UAP d 301      80.820  10.707  97.404  0.00  0.00    -0.244 OA
ATOM     63  O5  UAP d 301      78.965  12.186  99.220  0.00  0.00    -0.343 OA
ATOM     64  C6  UAP d 301      78.297  10.987 101.360  0.00  0.00     0.203 C 
ATOM     65  O62 UAP d 301      77.116  11.300 101.094  0.00  0.00    -0.646 OA
ATOM     66  O3S UAP d 301      81.297  11.150  94.952  0.00  0.00    -0.572 OA
ATOM     67  O2S UAP d 301      83.201  11.043  96.386  0.00  0.00    -0.572 OA
ATOM     68  C3  UAP d 301      81.773  11.208  99.498  0.00  0.00     0.069 C 
ATOM     69  C4  UAP d 301      80.774  10.965 100.664  0.00  0.00    -0.005 C 
ATOM     70  H   UAP d 301      81.903  12.431  97.817  0.00  0.00     0.097 H 
ATOM     71  H   UAP d 301      79.457  12.820  97.398  0.00  0.00     0.133 H 
ATOM     72  H   UAP d 301      79.729  12.417 100.087  0.00  0.00     0.100 H 
ATOM     73  H   UAP d 301      83.389  12.240  99.171  0.00  0.00     0.210 HD
ATOM     74  H   UAP d 301      82.152  10.235  99.264  0.00  0.00     0.087 H 
ATOM     75  H   UAP d 301      80.734   9.913 100.860  0.00  0.00     0.041 H 
ATOM     76  H   UAP d 301      81.130  11.523 101.504  0.00  0.00     0.041 H 
ATOM     77  O5  IDS d 305      84.516  26.055 106.424  0.00  0.00    -0.340 OA
ATOM     78  O62 IDS d 305      83.262  23.855 107.555  0.00  0.00    -0.646 OA
ATOM     79  C1  IDS d 305      85.200  27.202 105.914  0.00  0.00     0.161 C 
ATOM     80  O3  IDS d 305      88.270  25.781 106.449  0.00  0.00    -0.390 OA
ATOM     81  C6  IDS d 305      84.509  23.874 107.673  0.00  0.00     0.206 C 
ATOM     82  C2  IDS d 305      86.547  26.848 105.231  0.00  0.00     0.134 C 
ATOM     83  C5  IDS d 305      85.253  24.949 106.880  0.00  0.00     0.152 C 
ATOM     84  C3  IDS d 305      87.284  25.528 105.529  0.00  0.00     0.094 C 
ATOM     85  S   IDS d 305      85.616  26.744 102.645  0.00  0.00     0.252 S 
ATOM     86  C4  IDS d 305      86.373  24.385 106.017  0.00  0.00     0.103 C 
ATOM     87  O3S IDS d 305      85.960  27.439 101.459  0.00  0.00    -0.572 OA
ATOM     88  O1S IDS d 305      84.283  27.056 103.020  0.00  0.00    -0.572 OA
ATOM     89  O2  IDS d 305      86.721  27.322 103.902  0.00  0.00    -0.244 OA
ATOM     90  O61 IDS d 305      85.157  22.946 108.186  0.00  0.00    -0.646 OA
ATOM     91  O2S IDS d 305      85.777  25.345 102.484  0.00  0.00    -0.572 OA
ATOM     92  H   IDS d 305      84.514  27.579 105.184  0.00  0.00     0.133 H 
ATOM     93  H   IDS d 305      88.835  26.502 106.128  0.00  0.00     0.210 HD
ATOM     94  H   IDS d 305      87.122  27.480 105.875  0.00  0.00     0.097 H 
ATOM     95  H   IDS d 305      85.794  25.512 107.612  0.00  0.00     0.104 H 
ATOM     96  H   IDS d 305      87.692  25.180 104.604  0.00  0.00     0.091 H 
ATOM     97  H   IDS d 305      86.974  23.701 106.579  0.00  0.00     0.092 H 
ATOM     98  O6  SGN d 304      83.274  19.419 105.586  0.00  0.00    -0.254 OA
ATOM     99  S2  SGN d 304      82.374  18.150 106.383  0.00  0.00     0.251 S 
ATOM    100  O5S SGN d 304      82.870  16.888 105.898  0.00  0.00    -0.572 OA
ATOM    101  N   SGN d 304      86.837  22.941 102.555  0.00  0.00    -0.210 NA
ATOM    102  O3S SGN d 304      89.035  21.682 101.958  0.00  0.00    -0.296 OA
ATOM    103  C6  SGN d 304      82.833  20.762 105.763  0.00  0.00     0.067 C 
ATOM    104  O3  SGN d 304      84.666  21.710 101.287  0.00  0.00    -0.391 OA
ATOM    105  C5  SGN d 304      83.721  21.630 104.906  0.00  0.00     0.091 C 
ATOM    106  O2S SGN d 304      89.087  24.016 101.978  0.00  0.00    -0.296 OA
ATOM    107  O1  SGN d 304      85.772  23.713 104.904  0.00  0.00    -0.348 OA
ATOM    108  O4S SGN d 304      82.574  18.252 107.796  0.00  0.00    -0.572 OA
ATOM    109  C1  SGN d 304      86.055  22.319 104.743  0.00  0.00     0.150 C 
ATOM    110  C3  SGN d 304      84.637  22.085 102.650  0.00  0.00     0.083 C 
ATOM    111  C2  SGN d 304      86.044  21.950 103.240  0.00  0.00     0.081 C 
ATOM    112  S1  SGN d 304      88.592  22.857 102.638  0.00  0.00     0.156 S 
ATOM    113  O6S SGN d 304      80.977  18.302 106.045  0.00  0.00    -0.572 OA
ATOM    114  O1S SGN d 304      89.036  22.826 104.002  0.00  0.00    -0.296 OA
ATOM    115  O5  SGN d 304      85.075  21.509 105.417  0.00  0.00    -0.349 OA
ATOM    116  C4  SGN d 304      83.700  21.173 103.433  0.00  0.00     0.095 C 
ATOM    117  O4  SGN d 304      82.380  21.313 102.888  0.00  0.00    -0.348 OA
ATOM    118  H   SGN d 304      86.566  23.849 102.930  0.00  0.00     0.140 HD
ATOM    119  H   SGN d 304      88.733  21.709 101.036  0.00  0.00     0.231 HD
ATOM    120  H   SGN d 304      82.922  21.047 106.791  0.00  0.00     0.080 H 
ATOM    121  H   SGN d 304      81.806  20.869 105.481  0.00  0.00     0.080 H 
ATOM    122  H   SGN d 304      85.265  22.299 100.802  0.00  0.00     0.210 HD
ATOM    123  H   SGN d 304      83.372  22.641 104.944  0.00  0.00     0.090 H 
ATOM    124  H   SGN d 304      88.778  24.022 101.058  0.00  0.00     0.231 HD
ATOM    125  H   SGN d 304      87.019  22.132 105.169  0.00  0.00     0.131 H 
ATOM    126  H   SGN d 304      84.293  23.096 102.719  0.00  0.00     0.089 H 
ATOM    127  H   SGN d 304      86.403  20.948 103.131  0.00  0.00     0.076 H 
ATOM    128  H   SGN d 304      88.691  22.031 104.436  0.00  0.00     0.231 HD
ATOM    129  H   SGN d 304      84.001  20.148 103.369  0.00  0.00     0.091 H 
ATOM    130  O5S SGN d 302      82.565  16.596  93.287  0.00  0.00    -0.572 OA
ATOM    131  C4  SGN d 302      79.867  15.104  98.434  0.00  0.00     0.095 C 
ATOM    132  O1S SGN d 302      75.395  16.952 101.003  0.00  0.00    -0.296 OA
ATOM    133  O3  SGN d 302      78.108  14.772 100.025  0.00  0.00    -0.391 OA
ATOM    134  O2S SGN d 302      75.738  17.867  98.850  0.00  0.00    -0.296 OA
ATOM    135  C1  SGN d 302      79.556  17.971  98.696  0.00  0.00     0.150 C 
ATOM    136  C5  SGN d 302      80.950  16.082  98.001  0.00  0.00     0.091 C 
ATOM    137  O3S SGN d 302      75.887  19.257 100.734  0.00  0.00    -0.296 OA
ATOM    138  O5  SGN d 302      80.331  17.346  97.639  0.00  0.00    -0.349 OA
ATOM    139  C6  SGN d 302      81.723  15.497  96.828  0.00  0.00     0.067 C 
ATOM    140  S1  SGN d 302      76.121  17.927 100.228  0.00  0.00     0.156 S 
ATOM    141  O4S SGN d 302      83.832  17.485  95.072  0.00  0.00    -0.572 OA
ATOM    142  O6S SGN d 302      83.725  15.146  94.721  0.00  0.00    -0.572 OA
ATOM    143  O4  SGN d 302      80.479  13.908  98.817  0.00  0.00    -0.348 OA
ATOM    144  N   SGN d 302      77.848  17.557 100.311  0.00  0.00    -0.210 NA
ATOM    145  C3  SGN d 302      79.116  15.680  99.618  0.00  0.00     0.083 C 
ATOM    146  C2  SGN d 302      78.481  16.979  99.149  0.00  0.00     0.081 C 
ATOM    147  S2  SGN d 302      83.006  16.393  94.639  0.00  0.00     0.251 S 
ATOM    148  O6  SGN d 302      81.590  16.296  95.673  0.00  0.00    -0.254 OA
ATOM    149  O1  SGN d 302      80.349  18.276  99.843  0.00  0.00    -0.348 OA
ATOM    150  H   SGN d 302      79.184  14.931  97.629  0.00  0.00     0.091 H 
ATOM    151  H   SGN d 302      74.446  17.148 100.962  0.00  0.00     0.231 HD
ATOM    152  H   SGN d 302      78.519  13.945 100.323  0.00  0.00     0.210 HD
ATOM    153  H   SGN d 302      74.792  18.065  98.769  0.00  0.00     0.231 HD
ATOM    154  H   SGN d 302      79.148  18.880  98.305  0.00  0.00     0.131 H 
ATOM    155  H   SGN d 302      81.636  16.253  98.803  0.00  0.00     0.090 H 
ATOM    156  H   SGN d 302      74.939  19.458 100.687  0.00  0.00     0.231 HD
ATOM    157  H   SGN d 302      81.348  14.517  96.618  0.00  0.00     0.080 H 
ATOM    158  H   SGN d 302      82.759  15.460  97.093  0.00  0.00     0.080 H 
ATOM    159  H   SGN d 302      77.980  16.903 101.082  0.00  0.00     0.140 HD
ATOM    160  H   SGN d 302      79.771  15.852 100.446  0.00  0.00     0.089 H 
ATOM    161  H   SGN d 302      77.807  16.788  98.340  0.00  0.00     0.076 H 
ENDROOT
TORSDOF 50
ENDMDL
MODEL 32
REMARK VINA RESULT:     -10.5      4.782     14.776
REMARK  0 active torsions:
REMARK  status: ('A' for Active; 'I' for Inactive)
REMARK       I    between atoms: S_1  and  O2_2 
REMARK       I    between atoms: O2_2  and  C2_99 
REMARK       I    between atoms: C3_3  and  O3_50 
REMARK       I    between atoms: C2_5  and  O2_57 
REMARK       I    between atoms: O1S_6  and  S1_33 
REMARK       I    between atoms: O3_7  and  C3_52 
REMARK       I    between atoms: O6_9  and  C6_34 
REMARK       I    between atoms: O6_9  and  S2_17 
REMARK       I    between atoms: C2_13  and  N_73 
REMARK       I    between atoms: S_16  and  O2_57 
REMARK       I    between atoms: C1_20  and  O4_43 
REMARK       I    between atoms: C6_21  and  C5_67 
REMARK       I    between atoms: C6_21  and  O6_75 
REMARK       I    between atoms: N_22  and  C2_66 
REMARK       I    between atoms: N_22  and  S1_69 
REMARK       I    between atoms: S2_23  and  O6_75 
REMARK       I    between atoms: C1_24  and  O4_78 
REMARK       I    between atoms: C4_25  and  O4_78 
REMARK       I    between atoms: O3_26  and  C3_81 
REMARK       I    between atoms: O1S_27  and  S1_60 
REMARK       I    between atoms: O3S_28  and  S1_69 
REMARK       I    between atoms: O3_29  and  C3_87 
REMARK       I    between atoms: C6_30  and  C5_80 
REMARK       I    between atoms: O2S_32  and  S1_60 
REMARK       I    between atoms: S1_33  and  N_73 
REMARK       I    between atoms: S1_33  and  O2S_94 
REMARK       I    between atoms: S1_33  and  O3S_35 
REMARK       I    between atoms: C6_34  and  C5_38 
REMARK       I    between atoms: C2_36  and  O2_93 
REMARK       I    between atoms: O3_37  and  C3_65 
REMARK       I    between atoms: C1_40  and  O1_105 
REMARK       I    between atoms: O2S_41  and  S1_69 
REMARK       I    between atoms: C5_42  and  C6_54 
REMARK       I    between atoms: O4_43  and  C4_92 
REMARK       I    between atoms: O1_44  and  C1_62 
REMARK       I    between atoms: O1_44  and  C4_83 
REMARK       I    between atoms: C1_45  and  O4_102 
REMARK       I    between atoms: C4_46  and  O1_105 
REMARK       I    between atoms: O3S_47  and  S1_60 
REMARK       I    between atoms: C5_53  and  C6_61 
REMARK       I    between atoms: C6_54  and  O6_98 
REMARK       I    between atoms: O3_56  and  C3_84 
REMARK       I    between atoms: C5_59  and  C6_63 
REMARK       I    between atoms: S1_60  and  N_86 
REMARK       I    between atoms: S1_69  and  O1S_91 
REMARK       I    between atoms: O1_70  and  C1_96 
REMARK       I    between atoms: S_82  and  O2_93 
REMARK       I    between atoms: N_86  and  C2_90 
REMARK       I    between atoms: S2_95  and  O6_98 
REMARK       I    between atoms: C4_100  and  O4_102 
ROOT
ATOM      1  S   IDS d 303      77.611  22.100 105.232  0.00  0.00     0.252 S 
ATOM      2  O2  IDS d 303      79.247  21.792 104.682  0.00  0.00    -0.244 OA
ATOM      3  O61 IDS d 303      83.808  21.992 101.246  0.00  0.00    -0.646 OA
ATOM      4  O3  IDS d 303      80.595  19.006 102.926  0.00  0.00    -0.390 OA
ATOM      5  O3S IDS d 303      77.015  20.814 105.500  0.00  0.00    -0.572 OA
ATOM      6  C1  IDS d 303      79.249  21.763 102.285  0.00  0.00     0.161 C 
ATOM      7  C4  IDS d 303      81.896  20.960 103.526  0.00  0.00     0.103 C 
ATOM      8  O2S IDS d 303      77.676  22.919 106.411  0.00  0.00    -0.572 OA
ATOM      9  C3  IDS d 303      80.626  20.109 103.754  0.00  0.00     0.094 C 
ATOM     10  C5  IDS d 303      81.692  21.808 102.273  0.00  0.00     0.152 C 
ATOM     11  C6  IDS d 303      82.933  22.566 101.897  0.00  0.00     0.206 C 
ATOM     12  O62 IDS d 303      82.902  23.797 102.092  0.00  0.00    -0.646 OA
ATOM     13  O5  IDS d 303      80.460  22.473 102.062  0.00  0.00    -0.340 OA
ATOM     14  C2  IDS d 303      79.342  20.940 103.587  0.00  0.00     0.134 C 
ATOM     15  O1S IDS d 303      76.927  22.785 104.185  0.00  0.00    -0.572 OA
ATOM     16  H   IDS d 303      81.410  18.492 103.042  0.00  0.00     0.210 HD
ATOM     17  H   IDS d 303      78.490  22.514 102.363  0.00  0.00     0.133 H 
ATOM     18  H   IDS d 303      82.737  20.303 103.447  0.00  0.00     0.092 H 
ATOM     19  H   IDS d 303      80.667  19.766 104.767  0.00  0.00     0.091 H 
ATOM     20  H   IDS d 303      81.532  21.063 101.522  0.00  0.00     0.104 H 
ATOM     21  H   IDS d 303      78.530  20.245 103.526  0.00  0.00     0.097 H 
ATOM     22  C3  SGN d 306      71.105  17.416  95.648  0.00  0.00     0.083 C 
ATOM     23  O1S SGN d 306      68.665  20.098  96.296  0.00  0.00    -0.296 OA
ATOM     24  O4S SGN d 306      73.104  12.592 100.747  0.00  0.00    -0.572 OA
ATOM     25  O5S SGN d 306      74.594  14.408 100.477  0.00  0.00    -0.572 OA
ATOM     26  C2  SGN d 306      69.814  17.218  96.429  0.00  0.00     0.081 C 
ATOM     27  O5  SGN d 306      70.765  15.251  97.479  0.00  0.00    -0.350 OA
ATOM     28  C6  SGN d 306      73.146  14.801  97.589  0.00  0.00     0.067 C 
ATOM     29  S2  SGN d 306      73.802  13.418  99.803  0.00  0.00     0.251 S 
ATOM     30  S1  SGN d 306      67.796  19.001  95.951  0.00  0.00     0.156 S 
ATOM     31  O3S SGN d 306      66.964  19.359  94.829  0.00  0.00    -0.296 OA
ATOM     32  O4  SGN d 306      73.497  17.095  95.761  0.00  0.00    -0.348 OA
ATOM     33  O3  SGN d 306      71.255  18.794  95.359  0.00  0.00    -0.391 OA
ATOM     34  O6S SGN d 306      74.644  12.618  98.950  0.00  0.00    -0.572 OA
ATOM     35  C5  SGN d 306      72.026  15.406  96.762  0.00  0.00     0.091 C 
ATOM     36  O1  SGN d 306      69.302  15.000  95.620  0.00  0.00    -0.369 OA
ATOM     37  N   SGN d 306      68.762  17.594  95.527  0.00  0.00    -0.210 NA
ATOM     38  O6  SGN d 306      72.641  14.263  98.792  0.00  0.00    -0.254 OA
ATOM     39  C4  SGN d 306      72.274  16.907  96.497  0.00  0.00     0.095 C 
ATOM     40  O2S SGN d 306      66.989  18.628  97.071  0.00  0.00    -0.296 OA
ATOM     41  C1  SGN d 306      69.587  15.744  96.800  0.00  0.00     0.147 C 
ATOM     42  H   SGN d 306      71.082  16.872  94.727  0.00  0.00     0.089 H 
ATOM     43  H   SGN d 306      69.220  19.847  97.051  0.00  0.00     0.231 HD
ATOM     44  H   SGN d 306      69.848  17.788  97.334  0.00  0.00     0.076 H 
ATOM     45  H   SGN d 306      73.864  15.560  97.818  0.00  0.00     0.080 H 
ATOM     46  H   SGN d 306      73.604  14.015  97.026  0.00  0.00     0.080 H 
ATOM     47  H   SGN d 306      67.524  19.610  94.078  0.00  0.00     0.231 HD
ATOM     48  H   SGN d 306      71.277  19.298  96.188  0.00  0.00     0.210 HD
ATOM     49  H   SGN d 306      71.990  14.899  95.820  0.00  0.00     0.090 H 
ATOM     50  H   SGN d 306      68.508  15.360  95.195  0.00  0.00     0.212 HD
ATOM     51  H   SGN d 306      68.127  16.799  95.451  0.00  0.00     0.140 HD
ATOM     52  H   SGN d 306      72.350  17.435  97.424  0.00  0.00     0.091 H 
ATOM     53  H   SGN d 306      67.562  18.390  97.816  0.00  0.00     0.231 HD
ATOM     54  H   SGN d 306      68.750  15.640  97.459  0.00  0.00     0.131 H 
ATOM     55  C2  UAP d 301      86.580  26.768 105.738  0.00  0.00     0.132 C 
ATOM     56  S   UAP d 301      89.197  26.879 105.875  0.00  0.00     0.252 S 
ATOM     57  O1S UAP d 301      90.038  27.980 106.143  0.00  0.00    -0.572 OA
ATOM     58  C1  UAP d 301      85.667  25.944 106.621  0.00  0.00     0.161 C 
ATOM     59  O61 UAP d 301      82.957  29.909 107.375  0.00  0.00    -0.646 OA
ATOM     60  C5  UAP d 301      84.336  27.985 106.942  0.00  0.00     0.127 C 
ATOM     61  O3  UAP d 301      85.584  27.450 103.711  0.00  0.00    -0.393 OA
ATOM     62  O2  UAP d 301      87.621  27.274 106.502  0.00  0.00    -0.244 OA
ATOM     63  O5  UAP d 301      84.832  26.756 107.440  0.00  0.00    -0.343 OA
ATOM     64  C6  UAP d 301      83.366  28.804 107.786  0.00  0.00     0.203 C 
ATOM     65  O62 UAP d 301      83.052  28.316 108.893  0.00  0.00    -0.646 OA
ATOM     66  O3S UAP d 301      89.619  25.713 106.587  0.00  0.00    -0.572 OA
ATOM     67  O2S UAP d 301      89.116  26.652 104.453  0.00  0.00    -0.572 OA
ATOM     68  C3  UAP d 301      85.980  27.945 104.952  0.00  0.00     0.069 C 
ATOM     69  C4  UAP d 301      84.786  28.660 105.644  0.00  0.00    -0.005 C 
ATOM     70  H   UAP d 301      86.874  26.064 104.988  0.00  0.00     0.097 H 
ATOM     71  H   UAP d 301      86.227  25.342 107.306  0.00  0.00     0.133 H 
ATOM     72  H   UAP d 301      84.266  27.040 106.446  0.00  0.00     0.100 H 
ATOM     73  H   UAP d 301      86.334  27.006 103.286  0.00  0.00     0.210 HD
ATOM     74  H   UAP d 301      86.735  28.699 104.878  0.00  0.00     0.087 H 
ATOM     75  H   UAP d 301      85.078  29.665 105.869  0.00  0.00     0.041 H 
ATOM     76  H   UAP d 301      83.959  28.618 104.966  0.00  0.00     0.041 H 
ATOM     77  O5  IDS d 305      74.537  18.709  97.226  0.00  0.00    -0.340 OA
ATOM     78  O62 IDS d 305      74.159  21.082  98.609  0.00  0.00    -0.646 OA
ATOM     79  C1  IDS d 305      74.680  17.513  96.456  0.00  0.00     0.161 C 
ATOM     80  O3  IDS d 305      75.900  19.232  93.756  0.00  0.00    -0.390 OA
ATOM     81  C6  IDS d 305      74.471  21.215  97.404  0.00  0.00     0.206 C 
ATOM     82  C2  IDS d 305      75.857  17.580  95.448  0.00  0.00     0.134 C 
ATOM     83  C5  IDS d 305      74.900  19.946  96.667  0.00  0.00     0.152 C 
ATOM     84  C3  IDS d 305      76.444  18.924  94.977  0.00  0.00     0.094 C 
ATOM     85  S   IDS d 305      77.736  16.323  97.014  0.00  0.00     0.252 S 
ATOM     86  C4  IDS d 305      76.243  20.089  95.965  0.00  0.00     0.103 C 
ATOM     87  O3S IDS d 305      78.526  15.160  96.839  0.00  0.00    -0.572 OA
ATOM     88  O1S IDS d 305      76.839  16.142  98.098  0.00  0.00    -0.572 OA
ATOM     89  O2  IDS d 305      76.807  16.524  95.520  0.00  0.00    -0.244 OA
ATOM     90  O61 IDS d 305      74.676  22.319  96.872  0.00  0.00    -0.646 OA
ATOM     91  O2S IDS d 305      78.547  17.467  97.220  0.00  0.00    -0.572 OA
ATOM     92  H   IDS d 305      74.887  16.775  97.203  0.00  0.00     0.133 H 
ATOM     93  H   IDS d 305      76.035  18.490  93.145  0.00  0.00     0.210 HD
ATOM     94  H   IDS d 305      75.233  17.392  94.598  0.00  0.00     0.097 H 
ATOM     95  H   IDS d 305      74.223  19.859  95.842  0.00  0.00     0.104 H 
ATOM     96  H   IDS d 305      77.505  18.798  94.912  0.00  0.00     0.091 H 
ATOM     97  H   IDS d 305      76.283  21.003  95.411  0.00  0.00     0.092 H 
ATOM     98  O6  SGN d 304      77.774  23.952 100.112  0.00  0.00    -0.254 OA
ATOM     99  S2  SGN d 304      77.375  25.380 101.038  0.00  0.00     0.251 S 
ATOM    100  O5S SGN d 304      78.506  26.269 100.983  0.00  0.00    -0.572 OA
ATOM    101  N   SGN d 304      79.916  19.662  96.751  0.00  0.00    -0.210 NA
ATOM    102  O3S SGN d 304      81.710  20.616  95.126  0.00  0.00    -0.296 OA
ATOM    103  C6  SGN d 304      76.880  22.844 100.175  0.00  0.00     0.067 C 
ATOM    104  O3  SGN d 304      80.788  19.943  99.397  0.00  0.00    -0.391 OA
ATOM    105  C5  SGN d 304      77.502  21.733  99.366  0.00  0.00     0.091 C 
ATOM    106  O2S SGN d 304      80.671  18.608  94.544  0.00  0.00    -0.296 OA
ATOM    107  O1  SGN d 304      77.265  20.077  96.969  0.00  0.00    -0.348 OA
ATOM    108  O4S SGN d 304      76.224  26.005 100.461  0.00  0.00    -0.572 OA
ATOM    109  C1  SGN d 304      78.114  21.225  97.061  0.00  0.00     0.150 C 
ATOM    110  C3  SGN d 304      79.479  20.290  98.986  0.00  0.00     0.083 C 
ATOM    111  C2  SGN d 304      79.522  20.801  97.543  0.00  0.00     0.081 C 
ATOM    112  S1  SGN d 304      80.474  19.903  95.101  0.00  0.00     0.156 S 
ATOM    113  O6S SGN d 304      77.119  24.979 102.403  0.00  0.00    -0.572 OA
ATOM    114  O1S SGN d 304      79.505  20.636  94.338  0.00  0.00    -0.296 OA
ATOM    115  O5  SGN d 304      77.587  22.190  97.991  0.00  0.00    -0.349 OA
ATOM    116  C4  SGN d 304      78.921  21.399  99.870  0.00  0.00     0.095 C 
ATOM    117  O4  SGN d 304      78.868  20.912 101.220  0.00  0.00    -0.348 OA
ATOM    118  H   SGN d 304      79.108  19.041  96.703  0.00  0.00     0.140 HD
ATOM    119  H   SGN d 304      82.362  20.116  95.642  0.00  0.00     0.231 HD
ATOM    120  H   SGN d 304      75.930  23.112  99.762  0.00  0.00     0.080 H 
ATOM    121  H   SGN d 304      76.721  22.538 101.188  0.00  0.00     0.080 H 
ATOM    122  H   SGN d 304      81.129  19.237  98.825  0.00  0.00     0.210 HD
ATOM    123  H   SGN d 304      76.903  20.851  99.456  0.00  0.00     0.090 H 
ATOM    124  H   SGN d 304      81.328  18.127  95.071  0.00  0.00     0.231 HD
ATOM    125  H   SGN d 304      78.168  21.668  96.088  0.00  0.00     0.131 H 
ATOM    126  H   SGN d 304      78.856  19.424  99.063  0.00  0.00     0.089 H 
ATOM    127  H   SGN d 304      80.179  21.641  97.461  0.00  0.00     0.076 H 
ATOM    128  H   SGN d 304      79.382  21.515  94.730  0.00  0.00     0.231 HD
ATOM    129  H   SGN d 304      79.532  22.277  99.836  0.00  0.00     0.091 H 
ATOM    130  O5S SGN d 302      89.000  20.264 104.595  0.00  0.00    -0.572 OA
ATOM    131  C4  SGN d 302      84.487  23.905 106.136  0.00  0.00     0.095 C 
ATOM    132  O1S SGN d 302      80.031  23.250 109.253  0.00  0.00    -0.296 OA
ATOM    133  O3  SGN d 302      82.724  24.852 107.451  0.00  0.00    -0.391 OA
ATOM    134  O2S SGN d 302      81.524  21.419 109.281  0.00  0.00    -0.296 OA
ATOM    135  C1  SGN d 302      82.888  21.529 105.712  0.00  0.00     0.150 C 
ATOM    136  C5  SGN d 302      84.774  22.923 105.009  0.00  0.00     0.091 C 
ATOM    137  O3S SGN d 302      79.392  21.156 108.340  0.00  0.00    -0.296 OA
ATOM    138  O5  SGN d 302      84.304  21.605 105.397  0.00  0.00    -0.349 OA
ATOM    139  C6  SGN d 302      86.268  22.906 104.719  0.00  0.00     0.067 C 
ATOM    140  S1  SGN d 302      80.483  22.075 108.551  0.00  0.00     0.156 S 
ATOM    141  O4S SGN d 302      87.547  20.469 102.742  0.00  0.00    -0.572 OA
ATOM    142  O6S SGN d 302      88.846  22.314 103.462  0.00  0.00    -0.572 OA
ATOM    143  O4  SGN d 302      84.908  25.175 105.732  0.00  0.00    -0.348 OA
ATOM    144  N   SGN d 302      81.159  22.563 106.991  0.00  0.00    -0.210 NA
ATOM    145  C3  SGN d 302      82.996  23.938 106.405  0.00  0.00     0.083 C 
ATOM    146  C2  SGN d 302      82.593  22.534 106.828  0.00  0.00     0.081 C 
ATOM    147  S2  SGN d 302      88.116  21.141 103.876  0.00  0.00     0.251 S 
ATOM    148  O6  SGN d 302      86.826  21.633 104.961  0.00  0.00    -0.254 OA
ATOM    149  O1  SGN d 302      82.067  21.890 104.601  0.00  0.00    -0.348 OA
ATOM    150  H   SGN d 302      85.003  23.608 107.025  0.00  0.00     0.091 H 
ATOM    151  H   SGN d 302      79.658  22.991 110.110  0.00  0.00     0.231 HD
ATOM    152  H   SGN d 302      82.983  25.746 107.175  0.00  0.00     0.210 HD
ATOM    153  H   SGN d 302      81.186  21.137 110.145  0.00  0.00     0.231 HD
ATOM    154  H   SGN d 302      82.671  20.519 105.989  0.00  0.00     0.131 H 
ATOM    155  H   SGN d 302      84.263  23.221 104.119  0.00  0.00     0.090 H 
ATOM    156  H   SGN d 302      79.023  20.890 109.196  0.00  0.00     0.231 HD
ATOM    157  H   SGN d 302      86.753  23.624 105.347  0.00  0.00     0.080 H 
ATOM    158  H   SGN d 302      86.412  23.145 103.686  0.00  0.00     0.080 H 
ATOM    159  H   SGN d 302      80.854  23.520 106.816  0.00  0.00     0.140 HD
ATOM    160  H   SGN d 302      82.452  24.246 105.537  0.00  0.00     0.089 H 
ATOM    161  H   SGN d 302      83.123  22.251 107.714  0.00  0.00     0.076 H 
ENDROOT
TORSDOF 50
ENDMDL
MODEL 33
REMARK VINA RESULT:     -10.5      4.356     14.770
REMARK  0 active torsions:
REMARK  status: ('A' for Active; 'I' for Inactive)
REMARK       I    between atoms: S_1  and  O2_2 
REMARK       I    between atoms: O2_2  and  C2_99 
REMARK       I    between atoms: C3_3  and  O3_50 
REMARK       I    between atoms: C2_5  and  O2_57 
REMARK       I    between atoms: O1S_6  and  S1_33 
REMARK       I    between atoms: O3_7  and  C3_52 
REMARK       I    between atoms: O6_9  and  C6_34 
REMARK       I    between atoms: O6_9  and  S2_17 
REMARK       I    between atoms: C2_13  and  N_73 
REMARK       I    between atoms: S_16  and  O2_57 
REMARK       I    between atoms: C1_20  and  O4_43 
REMARK       I    between atoms: C6_21  and  C5_67 
REMARK       I    between atoms: C6_21  and  O6_75 
REMARK       I    between atoms: N_22  and  C2_66 
REMARK       I    between atoms: N_22  and  S1_69 
REMARK       I    between atoms: S2_23  and  O6_75 
REMARK       I    between atoms: C1_24  and  O4_78 
REMARK       I    between atoms: C4_25  and  O4_78 
REMARK       I    between atoms: O3_26  and  C3_81 
REMARK       I    between atoms: O1S_27  and  S1_60 
REMARK       I    between atoms: O3S_28  and  S1_69 
REMARK       I    between atoms: O3_29  and  C3_87 
REMARK       I    between atoms: C6_30  and  C5_80 
REMARK       I    between atoms: O2S_32  and  S1_60 
REMARK       I    between atoms: S1_33  and  N_73 
REMARK       I    between atoms: S1_33  and  O2S_94 
REMARK       I    between atoms: S1_33  and  O3S_35 
REMARK       I    between atoms: C6_34  and  C5_38 
REMARK       I    between atoms: C2_36  and  O2_93 
REMARK       I    between atoms: O3_37  and  C3_65 
REMARK       I    between atoms: C1_40  and  O1_105 
REMARK       I    between atoms: O2S_41  and  S1_69 
REMARK       I    between atoms: C5_42  and  C6_54 
REMARK       I    between atoms: O4_43  and  C4_92 
REMARK       I    between atoms: O1_44  and  C1_62 
REMARK       I    between atoms: O1_44  and  C4_83 
REMARK       I    between atoms: C1_45  and  O4_102 
REMARK       I    between atoms: C4_46  and  O1_105 
REMARK       I    between atoms: O3S_47  and  S1_60 
REMARK       I    between atoms: C5_53  and  C6_61 
REMARK       I    between atoms: C6_54  and  O6_98 
REMARK       I    between atoms: O3_56  and  C3_84 
REMARK       I    between atoms: C5_59  and  C6_63 
REMARK       I    between atoms: S1_60  and  N_86 
REMARK       I    between atoms: S1_69  and  O1S_91 
REMARK       I    between atoms: O1_70  and  C1_96 
REMARK       I    between atoms: S_82  and  O2_93 
REMARK       I    between atoms: N_86  and  C2_90 
REMARK       I    between atoms: S2_95  and  O6_98 
REMARK       I    between atoms: C4_100  and  O4_102 
ROOT
ATOM      1  S   IDS d 303      78.173  21.870 105.261  0.00  0.00     0.252 S 
ATOM      2  O2  IDS d 303      79.758  21.283 104.796  0.00  0.00    -0.244 OA
ATOM      3  O61 IDS d 303      84.287  20.347 101.439  0.00  0.00    -0.646 OA
ATOM      4  O3  IDS d 303      80.761  18.095 103.574  0.00  0.00    -0.390 OA
ATOM      5  O3S IDS d 303      77.434  20.729 105.742  0.00  0.00    -0.572 OA
ATOM      6  C1  IDS d 303      79.740  20.834 102.441  0.00  0.00     0.161 C 
ATOM      7  C4  IDS d 303      82.283  19.961 103.838  0.00  0.00     0.103 C 
ATOM      8  O2S IDS d 303      78.341  22.871 106.278  0.00  0.00    -0.572 OA
ATOM      9  C3  IDS d 303      80.925  19.316 104.196  0.00  0.00     0.094 C 
ATOM     10  C5  IDS d 303      82.171  20.593 102.454  0.00  0.00     0.152 C 
ATOM     11  C6  IDS d 303      83.489  21.124 101.968  0.00  0.00     0.206 C 
ATOM     12  O62 IDS d 303      83.602  22.365 101.943  0.00  0.00    -0.646 OA
ATOM     13  O5  IDS d 303      81.023  21.348 102.113  0.00  0.00    -0.340 OA
ATOM     14  C2  IDS d 303      79.745  20.247 103.868  0.00  0.00     0.134 C 
ATOM     15  O1S IDS d 303      77.566  22.435 104.101  0.00  0.00    -0.572 OA
ATOM     16  H   IDS d 303      81.510  17.519 103.789  0.00  0.00     0.210 HD
ATOM     17  H   IDS d 303      79.074  21.669 102.376  0.00  0.00     0.133 H 
ATOM     18  H   IDS d 303      83.042  19.207 103.888  0.00  0.00     0.092 H 
ATOM     19  H   IDS d 303      80.933  19.153 105.254  0.00  0.00     0.091 H 
ATOM     20  H   IDS d 303      81.920  19.751 101.843  0.00  0.00     0.104 H 
ATOM     21  H   IDS d 303      78.858  19.650 103.919  0.00  0.00     0.097 H 
ATOM     22  C3  SGN d 306      71.098  16.360  96.560  0.00  0.00     0.083 C 
ATOM     23  O1S SGN d 306      68.991  19.378  96.695  0.00  0.00    -0.296 OA
ATOM     24  O4S SGN d 306      72.559  12.309 102.453  0.00  0.00    -0.572 OA
ATOM     25  O5S SGN d 306      74.248  13.864 101.888  0.00  0.00    -0.572 OA
ATOM     26  C2  SGN d 306      69.799  16.453  97.346  0.00  0.00     0.081 C 
ATOM     27  O5  SGN d 306      70.521  14.604  98.738  0.00  0.00    -0.350 OA
ATOM     28  C6  SGN d 306      72.835  13.908  98.958  0.00  0.00     0.067 C 
ATOM     29  S2  SGN d 306      73.342  12.870 101.388  0.00  0.00     0.251 S 
ATOM     30  S1  SGN d 306      67.998  18.345  96.536  0.00  0.00     0.156 S 
ATOM     31  O3S SGN d 306      67.205  18.594  95.358  0.00  0.00    -0.296 OA
ATOM     32  O4  SGN d 306      73.437  15.789  96.761  0.00  0.00    -0.348 OA
ATOM     33  O3  SGN d 306      71.405  17.639  96.036  0.00  0.00    -0.391 OA
ATOM     34  O6S SGN d 306      74.079  11.840 100.700  0.00  0.00    -0.572 OA
ATOM     35  C5  SGN d 306      71.787  14.484  98.022  0.00  0.00     0.091 C 
ATOM     36  O1  SGN d 306      69.026  14.201  96.933  0.00  0.00    -0.369 OA
ATOM     37  N   SGN d 306      68.790  16.783  96.379  0.00  0.00    -0.210 NA
ATOM     38  O6  SGN d 306      72.280  13.652 100.229  0.00  0.00    -0.254 OA
ATOM     39  C4  SGN d 306      72.206  15.876  97.501  0.00  0.00     0.095 C 
ATOM     40  O2S SGN d 306      67.161  18.271  97.693  0.00  0.00    -0.296 OA
ATOM     41  C1  SGN d 306      69.404  15.103  97.967  0.00  0.00     0.147 C 
ATOM     42  H   SGN d 306      71.006  15.669  95.749  0.00  0.00     0.089 H 
ATOM     43  H   SGN d 306      69.518  19.201  97.490  0.00  0.00     0.231 HD
ATOM     44  H   SGN d 306      69.904  17.165  98.138  0.00  0.00     0.076 H 
ATOM     45  H   SGN d 306      73.638  14.607  99.059  0.00  0.00     0.080 H 
ATOM     46  H   SGN d 306      73.194  12.988  98.547  0.00  0.00     0.080 H 
ATOM     47  H   SGN d 306      67.785  18.642  94.582  0.00  0.00     0.231 HD
ATOM     48  H   SGN d 306      71.491  18.274  96.764  0.00  0.00     0.210 HD
ATOM     49  H   SGN d 306      71.685  13.826  97.183  0.00  0.00     0.090 H 
ATOM     50  H   SGN d 306      68.276  14.570  96.440  0.00  0.00     0.212 HD
ATOM     51  H   SGN d 306      68.067  16.066  96.435  0.00  0.00     0.140 HD
ATOM     52  H   SGN d 306      72.350  16.546  98.323  0.00  0.00     0.091 H 
ATOM     53  H   SGN d 306      67.707  18.103  98.477  0.00  0.00     0.231 HD
ATOM     54  H   SGN d 306      68.566  15.214  98.623  0.00  0.00     0.131 H 
ATOM     55  C2  UAP d 301      87.628  25.485 105.060  0.00  0.00     0.132 C 
ATOM     56  S   UAP d 301      90.240  25.315 105.211  0.00  0.00     0.252 S 
ATOM     57  O1S UAP d 301      91.205  26.341 105.294  0.00  0.00    -0.572 OA
ATOM     58  C1  UAP d 301      86.631  24.940 106.062  0.00  0.00     0.161 C 
ATOM     59  O61 UAP d 301      84.406  29.262 106.073  0.00  0.00    -0.646 OA
ATOM     60  C5  UAP d 301      85.549  27.146 106.002  0.00  0.00     0.127 C 
ATOM     61  O3  UAP d 301      86.703  25.911 102.933  0.00  0.00    -0.393 OA
ATOM     62  O2  UAP d 301      88.725  25.994 105.738  0.00  0.00    -0.244 OA
ATOM     63  O5  UAP d 301      85.902  25.974 106.715  0.00  0.00    -0.343 OA
ATOM     64  C6  UAP d 301      84.687  28.207 106.676  0.00  0.00     0.203 C 
ATOM     65  O62 UAP d 301      84.325  27.961 107.847  0.00  0.00    -0.646 OA
ATOM     66  O3S UAP d 301      90.528  24.251 106.123  0.00  0.00    -0.572 OA
ATOM     67  O2S UAP d 301      90.123  24.853 103.850  0.00  0.00    -0.572 OA
ATOM     68  C3  UAP d 301      87.162  26.567 104.073  0.00  0.00     0.069 C 
ATOM     69  C4  UAP d 301      86.064  27.525 104.613  0.00  0.00    -0.005 C 
ATOM     70  H   UAP d 301      87.832  24.631 104.450  0.00  0.00     0.097 H 
ATOM     71  H   UAP d 301      87.122  24.407 106.849  0.00  0.00     0.133 H 
ATOM     72  H   UAP d 301      85.366  26.143 105.679  0.00  0.00     0.100 H 
ATOM     73  H   UAP d 301      87.393  25.316 102.602  0.00  0.00     0.210 HD
ATOM     74  H   UAP d 301      88.000  27.204 103.877  0.00  0.00     0.087 H 
ATOM     75  H   UAP d 301      86.473  28.514 104.662  0.00  0.00     0.041 H 
ATOM     76  H   UAP d 301      85.234  27.461 103.942  0.00  0.00     0.041 H 
ATOM     77  O5  IDS d 305      74.668  17.503  97.933  0.00  0.00    -0.340 OA
ATOM     78  O62 IDS d 305      74.578  20.111  98.873  0.00  0.00    -0.646 OA
ATOM     79  C1  IDS d 305      74.665  16.183  97.387  0.00  0.00     0.161 C 
ATOM     80  O3  IDS d 305      76.058  17.247  94.444  0.00  0.00    -0.390 OA
ATOM     81  C6  IDS d 305      74.895  19.993  97.668  0.00  0.00     0.206 C 
ATOM     82  C2  IDS d 305      75.835  15.934  96.398  0.00  0.00     0.134 C 
ATOM     83  C5  IDS d 305      75.168  18.573  97.170  0.00  0.00     0.152 C 
ATOM     84  C3  IDS d 305      76.571  17.098  95.707  0.00  0.00     0.094 C 
ATOM     85  S   IDS d 305      77.567  14.764  98.186  0.00  0.00     0.252 S 
ATOM     86  C4  IDS d 305      76.514  18.434  96.473  0.00  0.00     0.103 C 
ATOM     87  O3S IDS d 305      78.215  13.505  98.229  0.00  0.00    -0.572 OA
ATOM     88  O1S IDS d 305      76.662  14.881  99.273  0.00  0.00    -0.572 OA
ATOM     89  O2  IDS d 305      76.656  14.806  96.667  0.00  0.00    -0.244 OA
ATOM     90  O61 IDS d 305      75.224  20.955  96.954  0.00  0.00    -0.646 OA
ATOM     91  O2S IDS d 305      78.506  15.825  98.199  0.00  0.00    -0.572 OA
ATOM     92  H   IDS d 305      74.791  15.569  98.255  0.00  0.00     0.133 H 
ATOM     93  H   IDS d 305      76.101  16.399  93.975  0.00  0.00     0.210 HD
ATOM     94  H   IDS d 305      75.187  15.674  95.587  0.00  0.00     0.097 H 
ATOM     95  H   IDS d 305      74.480  18.422  96.365  0.00  0.00     0.104 H 
ATOM     96  H   IDS d 305      77.609  16.840  95.679  0.00  0.00     0.091 H 
ATOM     97  H   IDS d 305      76.656  19.226  95.767  0.00  0.00     0.092 H 
ATOM     98  O6  SGN d 304      78.513  22.762  99.898  0.00  0.00    -0.254 OA
ATOM     99  S2  SGN d 304      78.290  24.367 100.553  0.00  0.00     0.251 S 
ATOM    100  O5S SGN d 304      79.516  25.095 100.359  0.00  0.00    -0.572 OA
ATOM    101  N   SGN d 304      80.118  17.730  97.371  0.00  0.00    -0.210 NA
ATOM    102  O3S SGN d 304      81.999  18.169  95.628  0.00  0.00    -0.296 OA
ATOM    103  C6  SGN d 304      77.497  21.793 100.143  0.00  0.00     0.067 C 
ATOM    104  O3  SGN d 304      81.035  18.369  99.938  0.00  0.00    -0.391 OA
ATOM    105  C5  SGN d 304      77.980  20.494  99.550  0.00  0.00     0.091 C 
ATOM    106  O2S SGN d 304      80.729  16.224  95.393  0.00  0.00    -0.296 OA
ATOM    107  O1  SGN d 304      77.535  18.481  97.477  0.00  0.00    -0.348 OA
ATOM    108  O4S SGN d 304      77.215  25.009  99.861  0.00  0.00    -0.572 OA
ATOM    109  C1  SGN d 304      78.512  19.521  97.377  0.00  0.00     0.150 C 
ATOM    110  C3  SGN d 304      79.773  18.787  99.455  0.00  0.00     0.083 C 
ATOM    111  C2  SGN d 304      79.865  19.028  97.945  0.00  0.00     0.081 C 
ATOM    112  S1  SGN d 304      80.688  17.611  95.711  0.00  0.00     0.156 S 
ATOM    113  O6S SGN d 304      77.998  24.245 101.964  0.00  0.00    -0.572 OA
ATOM    114  O1S SGN d 304      79.805  18.306  94.819  0.00  0.00    -0.296 OA
ATOM    115  O5  SGN d 304      78.107  20.688  98.116  0.00  0.00    -0.349 OA
ATOM    116  C4  SGN d 304      79.354  20.091 100.124  0.00  0.00     0.095 C 
ATOM    117  O4  SGN d 304      79.255  19.859 101.536  0.00  0.00    -0.348 OA
ATOM    118  H   SGN d 304      79.243  17.207  97.421  0.00  0.00     0.140 HD
ATOM    119  H   SGN d 304      82.592  17.696  96.232  0.00  0.00     0.231 HD
ATOM    120  H   SGN d 304      76.582  22.093  99.676  0.00  0.00     0.080 H 
ATOM    121  H   SGN d 304      77.311  21.690 101.192  0.00  0.00     0.080 H 
ATOM    122  H   SGN d 304      81.288  17.538  99.504  0.00  0.00     0.210 HD
ATOM    123  H   SGN d 304      77.283  19.716  99.784  0.00  0.00     0.090 H 
ATOM    124  H   SGN d 304      81.330  15.770  96.005  0.00  0.00     0.231 HD
ATOM    125  H   SGN d 304      78.610  19.777  96.343  0.00  0.00     0.131 H 
ATOM    126  H   SGN d 304      79.054  18.026  99.674  0.00  0.00     0.089 H 
ATOM    127  H   SGN d 304      80.615  19.759  97.726  0.00  0.00     0.076 H 
ATOM    128  H   SGN d 304      79.789  19.248  95.049  0.00  0.00     0.231 HD
ATOM    129  H   SGN d 304      80.063  20.873  99.944  0.00  0.00     0.091 H 
ATOM    130  O5S SGN d 302      89.266  18.646 105.108  0.00  0.00    -0.572 OA
ATOM    131  C4  SGN d 302      85.219  22.998 105.927  0.00  0.00     0.095 C 
ATOM    132  O1S SGN d 302      80.739  23.421 109.050  0.00  0.00    -0.296 OA
ATOM    133  O3  SGN d 302      83.587  24.360 107.031  0.00  0.00    -0.391 OA
ATOM    134  O2S SGN d 302      82.009  21.463 109.418  0.00  0.00    -0.296 OA
ATOM    135  C1  SGN d 302      83.351  20.786 105.904  0.00  0.00     0.150 C 
ATOM    136  C5  SGN d 302      85.381  21.807 104.993  0.00  0.00     0.091 C 
ATOM    137  O3S SGN d 302      79.854  21.288 108.509  0.00  0.00    -0.296 OA
ATOM    138  O5  SGN d 302      84.764  20.641 105.601  0.00  0.00    -0.349 OA
ATOM    139  C6  SGN d 302      86.861  21.566 104.731  0.00  0.00     0.067 C 
ATOM    140  S1  SGN d 302      81.046  22.097 108.571  0.00  0.00     0.156 S 
ATOM    141  O4S SGN d 302      87.834  18.688 103.229  0.00  0.00    -0.572 OA
ATOM    142  O6S SGN d 302      89.343  20.469 103.632  0.00  0.00    -0.572 OA
ATOM    143  O4  SGN d 302      85.781  24.121 105.312  0.00  0.00    -0.348 OA
ATOM    144  N   SGN d 302      81.763  22.221 106.959  0.00  0.00    -0.210 NA
ATOM    145  C3  SGN d 302      83.743  23.250 106.165  0.00  0.00     0.083 C 
ATOM    146  C2  SGN d 302      83.183  21.999 106.823  0.00  0.00     0.081 C 
ATOM    147  S2  SGN d 302      88.485  19.479 104.236  0.00  0.00     0.251 S 
ATOM    148  O6  SGN d 302      87.269  20.300 105.200  0.00  0.00    -0.254 OA
ATOM    149  O1  SGN d 302      82.569  21.039 104.737  0.00  0.00    -0.348 OA
ATOM    150  H   SGN d 302      85.703  22.804 106.860  0.00  0.00     0.091 H 
ATOM    151  H   SGN d 302      80.344  23.362 109.934  0.00  0.00     0.231 HD
ATOM    152  H   SGN d 302      83.946  25.154 106.607  0.00  0.00     0.210 HD
ATOM    153  H   SGN d 302      81.647  21.379 110.315  0.00  0.00     0.231 HD
ATOM    154  H   SGN d 302      83.019  19.872 106.352  0.00  0.00     0.131 H 
ATOM    155  H   SGN d 302      84.902  22.001 104.058  0.00  0.00     0.090 H 
ATOM    156  H   SGN d 302      79.463  21.221 109.394  0.00  0.00     0.231 HD
ATOM    157  H   SGN d 302      87.431  22.322 105.229  0.00  0.00     0.080 H 
ATOM    158  H   SGN d 302      87.025  21.602 103.674  0.00  0.00     0.080 H 
ATOM    159  H   SGN d 302      81.571  23.162 106.615  0.00  0.00     0.140 HD
ATOM    160  H   SGN d 302      83.232  23.461 105.250  0.00  0.00     0.089 H 
ATOM    161  H   SGN d 302      83.683  21.817 107.752  0.00  0.00     0.076 H 
ENDROOT
TORSDOF 50
ENDMDL
MODEL 34
REMARK VINA RESULT:     -10.5      2.620      3.348
REMARK  0 active torsions:
REMARK  status: ('A' for Active; 'I' for Inactive)
REMARK       I    between atoms: S_1  and  O2_2 
REMARK       I    between atoms: O2_2  and  C2_99 
REMARK       I    between atoms: C3_3  and  O3_50 
REMARK       I    between atoms: C2_5  and  O2_57 
REMARK       I    between atoms: O1S_6  and  S1_33 
REMARK       I    between atoms: O3_7  and  C3_52 
REMARK       I    between atoms: O6_9  and  C6_34 
REMARK       I    between atoms: O6_9  and  S2_17 
REMARK       I    between atoms: C2_13  and  N_73 
REMARK       I    between atoms: S_16  and  O2_57 
REMARK       I    between atoms: C1_20  and  O4_43 
REMARK       I    between atoms: C6_21  and  C5_67 
REMARK       I    between atoms: C6_21  and  O6_75 
REMARK       I    between atoms: N_22  and  C2_66 
REMARK       I    between atoms: N_22  and  S1_69 
REMARK       I    between atoms: S2_23  and  O6_75 
REMARK       I    between atoms: C1_24  and  O4_78 
REMARK       I    between atoms: C4_25  and  O4_78 
REMARK       I    between atoms: O3_26  and  C3_81 
REMARK       I    between atoms: O1S_27  and  S1_60 
REMARK       I    between atoms: O3S_28  and  S1_69 
REMARK       I    between atoms: O3_29  and  C3_87 
REMARK       I    between atoms: C6_30  and  C5_80 
REMARK       I    between atoms: O2S_32  and  S1_60 
REMARK       I    between atoms: S1_33  and  N_73 
REMARK       I    between atoms: S1_33  and  O2S_94 
REMARK       I    between atoms: S1_33  and  O3S_35 
REMARK       I    between atoms: C6_34  and  C5_38 
REMARK       I    between atoms: C2_36  and  O2_93 
REMARK       I    between atoms: O3_37  and  C3_65 
REMARK       I    between atoms: C1_40  and  O1_105 
REMARK       I    between atoms: O2S_41  and  S1_69 
REMARK       I    between atoms: C5_42  and  C6_54 
REMARK       I    between atoms: O4_43  and  C4_92 
REMARK       I    between atoms: O1_44  and  C1_62 
REMARK       I    between atoms: O1_44  and  C4_83 
REMARK       I    between atoms: C1_45  and  O4_102 
REMARK       I    between atoms: C4_46  and  O1_105 
REMARK       I    between atoms: O3S_47  and  S1_60 
REMARK       I    between atoms: C5_53  and  C6_61 
REMARK       I    between atoms: C6_54  and  O6_98 
REMARK       I    between atoms: O3_56  and  C3_84 
REMARK       I    between atoms: C5_59  and  C6_63 
REMARK       I    between atoms: S1_60  and  N_86 
REMARK       I    between atoms: S1_69  and  O1S_91 
REMARK       I    between atoms: O1_70  and  C1_96 
REMARK       I    between atoms: S_82  and  O2_93 
REMARK       I    between atoms: N_86  and  C2_90 
REMARK       I    between atoms: S2_95  and  O6_98 
REMARK       I    between atoms: C4_100  and  O4_102 
ROOT
ATOM      1  S   IDS d 303      78.992  21.174 105.093  0.00  0.00     0.252 S 
ATOM      2  O2  IDS d 303      79.259  20.031 103.791  0.00  0.00    -0.244 OA
ATOM      3  O61 IDS d 303      81.950  16.040 100.712  0.00  0.00    -0.646 OA
ATOM      4  O3  IDS d 303      80.591  20.531 100.529  0.00  0.00    -0.390 OA
ATOM      5  O3S IDS d 303      78.734  22.451 104.476  0.00  0.00    -0.572 OA
ATOM      6  C1  IDS d 303      81.619  19.850 103.411  0.00  0.00     0.161 C 
ATOM      7  C4  IDS d 303      79.931  18.362 101.381  0.00  0.00     0.103 C 
ATOM      8  O2S IDS d 303      77.877  20.718 105.875  0.00  0.00    -0.572 OA
ATOM      9  C3  IDS d 303      79.845  19.900 101.504  0.00  0.00     0.094 C 
ATOM     10  C5  IDS d 303      81.255  17.901 101.984  0.00  0.00     0.152 C 
ATOM     11  C6  IDS d 303      81.484  16.429 101.784  0.00  0.00     0.206 C 
ATOM     12  O62 IDS d 303      81.381  15.717 102.801  0.00  0.00    -0.646 OA
ATOM     13  O5  IDS d 303      81.699  18.446 103.213  0.00  0.00    -0.340 OA
ATOM     14  C2  IDS d 303      80.266  20.388 102.900  0.00  0.00     0.134 C 
ATOM     15  O1S IDS d 303      80.178  21.207 105.886  0.00  0.00    -0.572 OA
ATOM     16  H   IDS d 303      80.315  20.215  99.655  0.00  0.00     0.210 HD
ATOM     17  H   IDS d 303      81.711  19.994 104.467  0.00  0.00     0.133 H 
ATOM     18  H   IDS d 303      79.833  18.096 100.349  0.00  0.00     0.092 H 
ATOM     19  H   IDS d 303      78.817  20.161 101.359  0.00  0.00     0.091 H 
ATOM     20  H   IDS d 303      81.969  18.421 101.381  0.00  0.00     0.104 H 
ATOM     21  H   IDS d 303      80.405  21.447 102.828  0.00  0.00     0.097 H 
ATOM     22  C3  SGN d 306      89.130  28.374 103.867  0.00  0.00     0.083 C 
ATOM     23  O1S SGN d 306      89.053  28.705 107.534  0.00  0.00    -0.296 OA
ATOM     24  O4S SGN d 306      83.466  30.171  99.629  0.00  0.00    -0.572 OA
ATOM     25  O5S SGN d 306      83.625  27.866 100.129  0.00  0.00    -0.572 OA
ATOM     26  C2  SGN d 306      88.548  29.574 104.598  0.00  0.00     0.081 C 
ATOM     27  O5  SGN d 306      87.231  30.117 102.636  0.00  0.00    -0.350 OA
ATOM     28  C6  SGN d 306      86.722  28.528 100.874  0.00  0.00     0.067 C 
ATOM     29  S2  SGN d 306      84.345  29.039  99.722  0.00  0.00     0.251 S 
ATOM     30  S1  SGN d 306      89.454  30.031 107.137  0.00  0.00     0.156 S 
ATOM     31  O3S SGN d 306      90.713  30.375 107.750  0.00  0.00    -0.296 OA
ATOM     32  O4  SGN d 306      88.625  26.699 102.200  0.00  0.00    -0.348 OA
ATOM     33  O3  SGN d 306      89.486  27.389 104.819  0.00  0.00    -0.391 OA
ATOM     34  O6S SGN d 306      85.000  28.797  98.462  0.00  0.00    -0.572 OA
ATOM     35  C5  SGN d 306      87.753  28.971 101.898  0.00  0.00     0.091 C 
ATOM     36  O1  SGN d 306      89.274  31.269 103.036  0.00  0.00    -0.369 OA
ATOM     37  N   SGN d 306      89.626  30.099 105.389  0.00  0.00    -0.210 NA
ATOM     38  O6  SGN d 306      85.578  29.353 100.931  0.00  0.00    -0.254 OA
ATOM     39  C4  SGN d 306      88.077  27.836 102.893  0.00  0.00     0.095 C 
ATOM     40  O2S SGN d 306      88.451  30.986 107.492  0.00  0.00    -0.296 OA
ATOM     41  C1  SGN d 306      88.117  30.686 103.627  0.00  0.00     0.147 C 
ATOM     42  H   SGN d 306      90.004  28.649 103.314  0.00  0.00     0.089 H 
ATOM     43  H   SGN d 306      88.206  28.484 107.117  0.00  0.00     0.231 HD
ATOM     44  H   SGN d 306      87.689  29.273 105.162  0.00  0.00     0.076 H 
ATOM     45  H   SGN d 306      86.437  27.518 101.078  0.00  0.00     0.080 H 
ATOM     46  H   SGN d 306      87.152  28.603  99.898  0.00  0.00     0.080 H 
ATOM     47  H   SGN d 306      91.383  29.720 107.501  0.00  0.00     0.231 HD
ATOM     48  H   SGN d 306      88.700  27.131 105.326  0.00  0.00     0.210 HD
ATOM     49  H   SGN d 306      88.652  29.233 101.380  0.00  0.00     0.090 H 
ATOM     50  H   SGN d 306      89.841  31.638 103.731  0.00  0.00     0.212 HD
ATOM     51  H   SGN d 306      89.746  31.078 105.131  0.00  0.00     0.140 HD
ATOM     52  H   SGN d 306      87.187  27.528 103.401  0.00  0.00     0.091 H 
ATOM     53  H   SGN d 306      87.610  30.742 107.074  0.00  0.00     0.231 HD
ATOM     54  H   SGN d 306      87.591  31.461 104.143  0.00  0.00     0.131 H 
ATOM     55  C2  UAP d 301      77.418  11.303 103.486  0.00  0.00     0.132 C 
ATOM     56  S   UAP d 301      76.883   9.188 102.030  0.00  0.00     0.252 S 
ATOM     57  O1S UAP d 301      76.563   7.875 102.435  0.00  0.00    -0.572 OA
ATOM     58  C1  UAP d 301      76.634  12.598 103.514  0.00  0.00     0.161 C 
ATOM     59  O61 UAP d 301      76.581  12.365 108.369  0.00  0.00    -0.646 OA
ATOM     60  C5  UAP d 301      76.663  12.422 105.965  0.00  0.00     0.127 C 
ATOM     61  O3  UAP d 301      79.616  11.503 104.318  0.00  0.00    -0.393 OA
ATOM     62  O2  UAP d 301      76.537  10.237 103.376  0.00  0.00    -0.244 OA
ATOM     63  O5  UAP d 301      76.011  12.825 104.774  0.00  0.00    -0.343 OA
ATOM     64  C6  UAP d 301      76.038  12.753 107.315  0.00  0.00     0.203 C 
ATOM     65  O62 UAP d 301      74.962  13.389 107.283  0.00  0.00    -0.646 OA
ATOM     66  O3S UAP d 301      76.037   9.629 100.965  0.00  0.00    -0.572 OA
ATOM     67  O2S UAP d 301      78.282   9.274 101.689  0.00  0.00    -0.572 OA
ATOM     68  C3  UAP d 301      78.365  10.991 104.655  0.00  0.00     0.069 C 
ATOM     69  C4  UAP d 301      77.918  11.549 106.035  0.00  0.00    -0.005 C 
ATOM     70  H   UAP d 301      78.063  11.442 102.644  0.00  0.00     0.097 H 
ATOM     71  H   UAP d 301      75.830  12.582 102.807  0.00  0.00     0.133 H 
ATOM     72  H   UAP d 301      77.098  13.015 105.188  0.00  0.00     0.100 H 
ATOM     73  H   UAP d 301      79.888  11.150 103.456  0.00  0.00     0.210 HD
ATOM     74  H   UAP d 301      78.373   9.929 104.787  0.00  0.00     0.087 H 
ATOM     75  H   UAP d 301      77.719  10.723 106.686  0.00  0.00     0.041 H 
ATOM     76  H   UAP d 301      78.711  12.170 106.395  0.00  0.00     0.041 H 
ATOM     77  O5  IDS d 305      87.130  25.012 103.068  0.00  0.00    -0.340 OA
ATOM     78  O62 IDS d 305      85.987  23.971 105.370  0.00  0.00    -0.646 OA
ATOM     79  C1  IDS d 305      87.785  25.569 101.926  0.00  0.00     0.161 C 
ATOM     80  O3  IDS d 305      90.373  23.336 102.150  0.00  0.00    -0.390 OA
ATOM     81  C6  IDS d 305      87.135  23.545 105.109  0.00  0.00     0.206 C 
ATOM     82  C2  IDS d 305      88.600  24.520 101.125  0.00  0.00     0.134 C 
ATOM     83  C5  IDS d 305      87.709  23.924 103.743  0.00  0.00     0.152 C 
ATOM     84  C3  IDS d 305      89.064  23.197 101.763  0.00  0.00     0.094 C 
ATOM     85  S   IDS d 305      86.679  23.939  99.245  0.00  0.00     0.252 S 
ATOM     86  C4  IDS d 305      88.201  22.723 102.949  0.00  0.00     0.103 C 
ATOM     87  O3S IDS d 305      86.649  24.015  97.831  0.00  0.00    -0.572 OA
ATOM     88  O1S IDS d 305      85.738  24.845  99.800  0.00  0.00    -0.572 OA
ATOM     89  O2  IDS d 305      88.310  24.425  99.737  0.00  0.00    -0.244 OA
ATOM     90  O61 IDS d 305      87.702  22.664 105.777  0.00  0.00    -0.646 OA
ATOM     91  O2S IDS d 305      86.428  22.618  99.693  0.00  0.00    -0.572 OA
ATOM     92  H   IDS d 305      86.966  25.919 101.332  0.00  0.00     0.133 H 
ATOM     93  H   IDS d 305      90.903  23.635 101.394  0.00  0.00     0.210 HD
ATOM     94  H   IDS d 305      89.522  25.056 101.225  0.00  0.00     0.097 H 
ATOM     95  H   IDS d 305      88.621  24.442 103.957  0.00  0.00     0.104 H 
ATOM     96  H   IDS d 305      88.955  22.434 101.021  0.00  0.00     0.091 H 
ATOM     97  H   IDS d 305      88.804  22.086 103.563  0.00  0.00     0.092 H 
ATOM     98  O6  SGN d 304      84.140  19.493 105.694  0.00  0.00    -0.254 OA
ATOM     99  S2  SGN d 304      83.386  19.009 107.195  0.00  0.00     0.251 S 
ATOM    100  O5S SGN d 304      83.325  17.571 107.211  0.00  0.00    -0.572 OA
ATOM    101  N   SGN d 304      86.826  20.159 100.534  0.00  0.00    -0.210 NA
ATOM    102  O3S SGN d 304      88.214  18.031  99.972  0.00  0.00    -0.296 OA
ATOM    103  C6  SGN d 304      84.140  20.880 105.364  0.00  0.00     0.067 C 
ATOM    104  O3  SGN d 304      84.103  19.518 100.628  0.00  0.00    -0.391 OA
ATOM    105  C5  SGN d 304      84.765  21.004 103.997  0.00  0.00     0.091 C 
ATOM    106  O2S SGN d 304      88.812  20.030  98.925  0.00  0.00    -0.296 OA
ATOM    107  O1  SGN d 304      87.052  22.008 102.478  0.00  0.00    -0.348 OA
ATOM    108  O4S SGN d 304      84.176  19.485 108.289  0.00  0.00    -0.572 OA
ATOM    109  C1  SGN d 304      86.908  20.645 102.889  0.00  0.00     0.150 C 
ATOM    110  C3  SGN d 304      84.734  20.301 101.622  0.00  0.00     0.083 C 
ATOM    111  C2  SGN d 304      86.185  19.836 101.785  0.00  0.00     0.081 C 
ATOM    112  S1  SGN d 304      88.383  19.438 100.145  0.00  0.00     0.156 S 
ATOM    113  O6S SGN d 304      82.053  19.567 107.235  0.00  0.00    -0.572 OA
ATOM    114  O1S SGN d 304      89.335  19.689 101.189  0.00  0.00    -0.296 OA
ATOM    115  O5  SGN d 304      86.139  20.546 104.102  0.00  0.00    -0.349 OA
ATOM    116  C4  SGN d 304      84.025  20.134 102.961  0.00  0.00     0.095 C 
ATOM    117  O4  SGN d 304      82.671  20.584 102.810  0.00  0.00    -0.348 OA
ATOM    118  H   SGN d 304      86.957  21.171 100.520  0.00  0.00     0.140 HD
ATOM    119  H   SGN d 304      87.570  17.867  99.266  0.00  0.00     0.231 HD
ATOM    120  H   SGN d 304      84.714  21.429 106.082  0.00  0.00     0.080 H 
ATOM    121  H   SGN d 304      83.146  21.275 105.369  0.00  0.00     0.080 H 
ATOM    122  H   SGN d 304      84.565  19.635  99.783  0.00  0.00     0.210 HD
ATOM    123  H   SGN d 304      84.710  22.022 103.673  0.00  0.00     0.090 H 
ATOM    124  H   SGN d 304      88.159  19.851  98.231  0.00  0.00     0.231 HD
ATOM    125  H   SGN d 304      87.888  20.252 103.061  0.00  0.00     0.131 H 
ATOM    126  H   SGN d 304      84.697  21.328 101.323  0.00  0.00     0.089 H 
ATOM    127  H   SGN d 304      86.221  18.799 102.042  0.00  0.00     0.076 H 
ATOM    128  H   SGN d 304      89.027  19.279 102.013  0.00  0.00     0.231 HD
ATOM    129  H   SGN d 304      84.023  19.113 103.283  0.00  0.00     0.091 H 
ATOM    130  O5S SGN d 302      77.726  13.287  96.746  0.00  0.00    -0.572 OA
ATOM    131  C4  SGN d 302      77.156  14.734 102.540  0.00  0.00     0.095 C 
ATOM    132  O1S SGN d 302      74.732  18.896 105.151  0.00  0.00    -0.296 OA
ATOM    133  O3  SGN d 302      76.198  15.649 104.536  0.00  0.00    -0.391 OA
ATOM    134  O2S SGN d 302      74.348  18.844 102.819  0.00  0.00    -0.296 OA
ATOM    135  C1  SGN d 302      77.661  17.412 101.561  0.00  0.00     0.150 C 
ATOM    136  C5  SGN d 302      78.155  15.018 101.428  0.00  0.00     0.091 C 
ATOM    137  O3S SGN d 302      75.589  20.605 103.747  0.00  0.00    -0.296 OA
ATOM    138  O5  SGN d 302      77.756  16.226 100.728  0.00  0.00    -0.349 OA
ATOM    139  C6  SGN d 302      78.208  13.829 100.478  0.00  0.00     0.067 C 
ATOM    140  S1  SGN d 302      75.274  19.202 103.850  0.00  0.00     0.156 S 
ATOM    141  O4S SGN d 302      79.791  14.153  97.500  0.00  0.00    -0.572 OA
ATOM    142  O6S SGN d 302      79.005  12.061  98.285  0.00  0.00    -0.572 OA
ATOM    143  O4  SGN d 302      77.575  13.593 103.230  0.00  0.00    -0.348 OA
ATOM    144  N   SGN d 302      76.739  18.244 103.599  0.00  0.00    -0.210 NA
ATOM    145  C3  SGN d 302      77.125  15.909 103.497  0.00  0.00     0.083 C 
ATOM    146  C2  SGN d 302      76.675  17.120 102.695  0.00  0.00     0.081 C 
ATOM    147  S2  SGN d 302      78.631  13.387  97.858  0.00  0.00     0.251 S 
ATOM    148  O6  SGN d 302      77.795  14.189  99.178  0.00  0.00    -0.254 OA
ATOM    149  O1  SGN d 302      78.907  17.746 102.171  0.00  0.00    -0.348 OA
ATOM    150  H   SGN d 302      76.180  14.583 102.130  0.00  0.00     0.091 H 
ATOM    151  H   SGN d 302      73.927  19.417 105.297  0.00  0.00     0.231 HD
ATOM    152  H   SGN d 302      76.491  14.876 105.044  0.00  0.00     0.210 HD
ATOM    153  H   SGN d 302      73.529  19.353 102.928  0.00  0.00     0.231 HD
ATOM    154  H   SGN d 302      77.352  18.224 100.936  0.00  0.00     0.131 H 
ATOM    155  H   SGN d 302      79.132  15.164 101.836  0.00  0.00     0.090 H 
ATOM    156  H   SGN d 302      74.784  21.128 103.885  0.00  0.00     0.231 HD
ATOM    157  H   SGN d 302      77.562  13.060 100.847  0.00  0.00     0.080 H 
ATOM    158  H   SGN d 302      79.219  13.485 100.427  0.00  0.00     0.080 H 
ATOM    159  H   SGN d 302      77.024  17.883 104.509  0.00  0.00     0.140 HD
ATOM    160  H   SGN d 302      78.086  16.078 103.936  0.00  0.00     0.089 H 
ATOM    161  H   SGN d 302      75.700  16.949 102.287  0.00  0.00     0.076 H 
ENDROOT
TORSDOF 50
ENDMDL
MODEL 35
REMARK VINA RESULT:     -10.4      4.341     15.005
REMARK  0 active torsions:
REMARK  status: ('A' for Active; 'I' for Inactive)
REMARK       I    between atoms: S_1  and  O2_2 
REMARK       I    between atoms: O2_2  and  C2_99 
REMARK       I    between atoms: C3_3  and  O3_50 
REMARK       I    between atoms: C2_5  and  O2_57 
REMARK       I    between atoms: O1S_6  and  S1_33 
REMARK       I    between atoms: O3_7  and  C3_52 
REMARK       I    between atoms: O6_9  and  C6_34 
REMARK       I    between atoms: O6_9  and  S2_17 
REMARK       I    between atoms: C2_13  and  N_73 
REMARK       I    between atoms: S_16  and  O2_57 
REMARK       I    between atoms: C1_20  and  O4_43 
REMARK       I    between atoms: C6_21  and  C5_67 
REMARK       I    between atoms: C6_21  and  O6_75 
REMARK       I    between atoms: N_22  and  C2_66 
REMARK       I    between atoms: N_22  and  S1_69 
REMARK       I    between atoms: S2_23  and  O6_75 
REMARK       I    between atoms: C1_24  and  O4_78 
REMARK       I    between atoms: C4_25  and  O4_78 
REMARK       I    between atoms: O3_26  and  C3_81 
REMARK       I    between atoms: O1S_27  and  S1_60 
REMARK       I    between atoms: O3S_28  and  S1_69 
REMARK       I    between atoms: O3_29  and  C3_87 
REMARK       I    between atoms: C6_30  and  C5_80 
REMARK       I    between atoms: O2S_32  and  S1_60 
REMARK       I    between atoms: S1_33  and  N_73 
REMARK       I    between atoms: S1_33  and  O2S_94 
REMARK       I    between atoms: S1_33  and  O3S_35 
REMARK       I    between atoms: C6_34  and  C5_38 
REMARK       I    between atoms: C2_36  and  O2_93 
REMARK       I    between atoms: O3_37  and  C3_65 
REMARK       I    between atoms: C1_40  and  O1_105 
REMARK       I    between atoms: O2S_41  and  S1_69 
REMARK       I    between atoms: C5_42  and  C6_54 
REMARK       I    between atoms: O4_43  and  C4_92 
REMARK       I    between atoms: O1_44  and  C1_62 
REMARK       I    between atoms: O1_44  and  C4_83 
REMARK       I    between atoms: C1_45  and  O4_102 
REMARK       I    between atoms: C4_46  and  O1_105 
REMARK       I    between atoms: O3S_47  and  S1_60 
REMARK       I    between atoms: C5_53  and  C6_61 
REMARK       I    between atoms: C6_54  and  O6_98 
REMARK       I    between atoms: O3_56  and  C3_84 
REMARK       I    between atoms: C5_59  and  C6_63 
REMARK       I    between atoms: S1_60  and  N_86 
REMARK       I    between atoms: S1_69  and  O1S_91 
REMARK       I    between atoms: O1_70  and  C1_96 
REMARK       I    between atoms: S_82  and  O2_93 
REMARK       I    between atoms: N_86  and  C2_90 
REMARK       I    between atoms: S2_95  and  O6_98 
REMARK       I    between atoms: C4_100  and  O4_102 
ROOT
ATOM      1  S   IDS d 303      78.471  20.260 106.325  0.00  0.00     0.252 S 
ATOM      2  O2  IDS d 303      79.898  20.226 105.308  0.00  0.00    -0.244 OA
ATOM      3  O61 IDS d 303      83.204  21.322 100.777  0.00  0.00    -0.646 OA
ATOM      4  O3  IDS d 303      80.978  17.798 102.942  0.00  0.00    -0.390 OA
ATOM      5  O3S IDS d 303      78.127  18.887 106.602  0.00  0.00    -0.572 OA
ATOM      6  C1  IDS d 303      79.203  20.380 103.019  0.00  0.00     0.161 C 
ATOM      7  C4  IDS d 303      82.169  19.863 103.370  0.00  0.00     0.103 C 
ATOM      8  O2S IDS d 303      78.784  20.989 107.523  0.00  0.00    -0.572 OA
ATOM      9  C3  IDS d 303      81.125  18.828 103.847  0.00  0.00     0.094 C 
ATOM     10  C5  IDS d 303      81.514  20.767 102.328  0.00  0.00     0.152 C 
ATOM     11  C6  IDS d 303      82.499  21.717 101.708  0.00  0.00     0.206 C 
ATOM     12  O62 IDS d 303      82.388  22.913 102.041  0.00  0.00    -0.646 OA
ATOM     13  O5  IDS d 303      80.208  21.266 102.547  0.00  0.00    -0.340 OA
ATOM     14  C2  IDS d 303      79.763  19.482 104.141  0.00  0.00     0.134 C 
ATOM     15  O1S IDS d 303      77.438  20.920 105.595  0.00  0.00    -0.572 OA
ATOM     16  H   IDS d 303      81.843  17.395 102.766  0.00  0.00     0.210 HD
ATOM     17  H   IDS d 303      78.421  21.009 103.390  0.00  0.00     0.133 H 
ATOM     18  H   IDS d 303      83.019  19.338 102.985  0.00  0.00     0.092 H 
ATOM     19  H   IDS d 303      81.499  18.418 104.763  0.00  0.00     0.091 H 
ATOM     20  H   IDS d 303      81.227  20.065 101.573  0.00  0.00     0.104 H 
ATOM     21  H   IDS d 303      79.053  18.686 104.232  0.00  0.00     0.097 H 
ATOM     22  C3  SGN d 306      70.016  15.452  98.481  0.00  0.00     0.083 C 
ATOM     23  O1S SGN d 306      67.587  17.710 100.084  0.00  0.00    -0.296 OA
ATOM     24  O4S SGN d 306      73.945  10.583 102.239  0.00  0.00    -0.572 OA
ATOM     25  O5S SGN d 306      75.078  12.605 101.768  0.00  0.00    -0.572 OA
ATOM     26  C2  SGN d 306      69.041  15.017  99.564  0.00  0.00     0.081 C 
ATOM     27  O5  SGN d 306      70.470  13.128 100.078  0.00  0.00    -0.350 OA
ATOM     28  C6  SGN d 306      72.815  13.008  99.466  0.00  0.00     0.067 C 
ATOM     29  S2  SGN d 306      74.240  11.568 101.236  0.00  0.00     0.251 S 
ATOM     30  S1  SGN d 306      66.785  16.531  99.874  0.00  0.00     0.156 S 
ATOM     31  O3S SGN d 306      65.626  16.853  99.079  0.00  0.00    -0.296 OA
ATOM     32  O4  SGN d 306      72.357  15.461  97.883  0.00  0.00    -0.348 OA
ATOM     33  O3  SGN d 306      69.920  16.855  98.319  0.00  0.00    -0.391 OA
ATOM     34  O6S SGN d 306      74.880  10.960 100.097  0.00  0.00    -0.572 OA
ATOM     35  C5  SGN d 306      71.442  13.512  99.058  0.00  0.00     0.091 C 
ATOM     36  O1  SGN d 306      68.567  12.817  98.687  0.00  0.00    -0.369 OA
ATOM     37  N   SGN d 306      67.735  15.309  99.042  0.00  0.00    -0.210 NA
ATOM     38  O6  SGN d 306      72.747  12.316 100.693  0.00  0.00    -0.254 OA
ATOM     39  C4  SGN d 306      71.431  15.049  98.906  0.00  0.00     0.095 C 
ATOM     40  O2S SGN d 306      66.387  15.965 101.126  0.00  0.00    -0.296 OA
ATOM     41  C1  SGN d 306      69.098  13.502  99.815  0.00  0.00     0.147 C 
ATOM     42  H   SGN d 306      69.787  14.982  97.548  0.00  0.00     0.089 H 
ATOM     43  H   SGN d 306      68.363  17.482 100.620  0.00  0.00     0.231 HD
ATOM     44  H   SGN d 306      69.273  15.516 100.482  0.00  0.00     0.076 H 
ATOM     45  H   SGN d 306      73.478  13.841  99.568  0.00  0.00     0.080 H 
ATOM     46  H   SGN d 306      73.173  12.339  98.712  0.00  0.00     0.080 H 
ATOM     47  H   SGN d 306      65.910  17.236  98.234  0.00  0.00     0.231 HD
ATOM     48  H   SGN d 306      70.126  17.293  99.159  0.00  0.00     0.210 HD
ATOM     49  H   SGN d 306      71.189  13.077  98.113  0.00  0.00     0.090 H 
ATOM     50  H   SGN d 306      67.648  13.093  98.544  0.00  0.00     0.212 HD
ATOM     51  H   SGN d 306      67.199  14.441  99.057  0.00  0.00     0.140 HD
ATOM     52  H   SGN d 306      71.716  15.510  99.828  0.00  0.00     0.091 H 
ATOM     53  H   SGN d 306      67.175  15.754 101.650  0.00  0.00     0.231 HD
ATOM     54  H   SGN d 306      68.508  13.232 100.666  0.00  0.00     0.131 H 
ATOM     55  C2  UAP d 301      86.614  26.085 104.822  0.00  0.00     0.132 C 
ATOM     56  S   UAP d 301      89.126  26.550 104.233  0.00  0.00     0.252 S 
ATOM     57  O1S UAP d 301      89.880  27.734 104.378  0.00  0.00    -0.572 OA
ATOM     58  C1  UAP d 301      86.096  25.077 105.827  0.00  0.00     0.161 C 
ATOM     59  O61 UAP d 301      83.299  28.555 107.752  0.00  0.00    -0.646 OA
ATOM     60  C5  UAP d 301      84.698  26.881 106.735  0.00  0.00     0.127 C 
ATOM     61  O3  UAP d 301      84.999  26.772 103.246  0.00  0.00    -0.393 OA
ATOM     62  O2  UAP d 301      87.769  26.672 105.317  0.00  0.00    -0.244 OA
ATOM     63  O5  UAP d 301      85.453  25.699 106.933  0.00  0.00    -0.343 OA
ATOM     64  C6  UAP d 301      83.931  27.490 107.904  0.00  0.00     0.203 C 
ATOM     65  O62 UAP d 301      84.011  26.881 108.992  0.00  0.00    -0.646 OA
ATOM     66  O3S UAP d 301      89.866  25.403 104.662  0.00  0.00    -0.572 OA
ATOM     67  O2S UAP d 301      88.659  26.422 102.874  0.00  0.00    -0.572 OA
ATOM     68  C3  UAP d 301      85.682  27.222 104.374  0.00  0.00     0.069 C 
ATOM     69  C4  UAP d 301      84.670  27.708 105.449  0.00  0.00    -0.005 C 
ATOM     70  H   UAP d 301      86.753  25.487 103.946  0.00  0.00     0.097 H 
ATOM     71  H   UAP d 301      86.896  24.509 106.255  0.00  0.00     0.133 H 
ATOM     72  H   UAP d 301      84.592  25.976 106.176  0.00  0.00     0.100 H 
ATOM     73  H   UAP d 301      85.637  26.471 102.581  0.00  0.00     0.210 HD
ATOM     74  H   UAP d 301      86.293  28.078 104.177  0.00  0.00     0.087 H 
ATOM     75  H   UAP d 301      84.900  28.724 105.695  0.00  0.00     0.041 H 
ATOM     76  H   UAP d 301      83.692  27.603 105.029  0.00  0.00     0.041 H 
ATOM     77  O5  IDS d 305      73.592  17.089  99.170  0.00  0.00    -0.340 OA
ATOM     78  O62 IDS d 305      73.371  19.274 100.862  0.00  0.00    -0.646 OA
ATOM     79  C1  IDS d 305      73.637  15.986  98.262  0.00  0.00     0.161 C 
ATOM     80  O3  IDS d 305      73.814  18.058  95.539  0.00  0.00    -0.390 OA
ATOM     81  C6  IDS d 305      73.300  19.540  99.641  0.00  0.00     0.206 C 
ATOM     82  C2  IDS d 305      74.453  16.293  96.978  0.00  0.00     0.134 C 
ATOM     83  C5  IDS d 305      73.635  18.403  98.675  0.00  0.00     0.152 C 
ATOM     84  C3  IDS d 305      74.722  17.738  96.516  0.00  0.00     0.094 C 
ATOM     85  S   IDS d 305      76.836  15.197  97.803  0.00  0.00     0.252 S 
ATOM     86  C4  IDS d 305      74.689  18.785  97.646  0.00  0.00     0.103 C 
ATOM     87  O3S IDS d 305      77.666  14.172  97.285  0.00  0.00    -0.572 OA
ATOM     88  O1S IDS d 305      76.320  14.810  99.068  0.00  0.00    -0.572 OA
ATOM     89  O2  IDS d 305      75.494  15.378  96.662  0.00  0.00    -0.244 OA
ATOM     90  O61 IDS d 305      73.216  20.699  99.201  0.00  0.00    -0.646 OA
ATOM     91  O2S IDS d 305      77.538  16.424  97.902  0.00  0.00    -0.572 OA
ATOM     92  H   IDS d 305      74.134  15.231  98.833  0.00  0.00     0.133 H 
ATOM     93  H   IDS d 305      73.847  17.391  94.836  0.00  0.00     0.210 HD
ATOM     94  H   IDS d 305      73.633  16.085  96.322  0.00  0.00     0.097 H 
ATOM     95  H   IDS d 305      72.760  18.286  98.068  0.00  0.00     0.104 H 
ATOM     96  H   IDS d 305      75.725  17.767  96.143  0.00  0.00     0.091 H 
ATOM     97  H   IDS d 305      74.463  19.735  97.209  0.00  0.00     0.092 H 
ATOM     98  O6  SGN d 304      76.921  22.499 101.606  0.00  0.00    -0.254 OA
ATOM     99  S2  SGN d 304      76.653  23.783 102.762  0.00  0.00     0.251 S 
ATOM    100  O5S SGN d 304      77.612  24.823 102.493  0.00  0.00    -0.572 OA
ATOM    101  N   SGN d 304      78.455  18.818  97.319  0.00  0.00    -0.210 NA
ATOM    102  O3S SGN d 304      79.578  20.134  95.375  0.00  0.00    -0.296 OA
ATOM    103  C6  SGN d 304      76.215  21.275 101.793  0.00  0.00     0.067 C 
ATOM    104  O3  SGN d 304      80.024  19.017  99.629  0.00  0.00    -0.391 OA
ATOM    105  C5  SGN d 304      76.694  20.327 100.722  0.00  0.00     0.091 C 
ATOM    106  O2S SGN d 304      78.646  18.050  94.885  0.00  0.00    -0.296 OA
ATOM    107  O1  SGN d 304      75.955  18.841  98.316  0.00  0.00    -0.348 OA
ATOM    108  O4S SGN d 304      75.321  24.283 102.605  0.00  0.00    -0.572 OA
ATOM    109  C1  SGN d 304      76.659  20.086  98.295  0.00  0.00     0.150 C 
ATOM    110  C3  SGN d 304      78.623  19.207  99.643  0.00  0.00     0.083 C 
ATOM    111  C2  SGN d 304      78.185  19.828  98.312  0.00  0.00     0.081 C 
ATOM    112  S1  SGN d 304      78.476  19.259  95.617  0.00  0.00     0.156 S 
ATOM    113  O6S SGN d 304      76.854  23.248 104.090  0.00  0.00    -0.572 OA
ATOM    114  O1S SGN d 304      77.250  19.905  95.243  0.00  0.00    -0.296 OA
ATOM    115  O5  SGN d 304      76.322  20.894  99.438  0.00  0.00    -0.349 OA
ATOM    116  C4  SGN d 304      78.227  20.157 100.767  0.00  0.00     0.095 C 
ATOM    117  O4  SGN d 304      78.625  19.567 102.014  0.00  0.00    -0.348 OA
ATOM    118  H   SGN d 304      77.744  18.095  97.429  0.00  0.00     0.140 HD
ATOM    119  H   SGN d 304      80.403  19.692  95.628  0.00  0.00     0.231 HD
ATOM    120  H   SGN d 304      75.162  21.439 101.695  0.00  0.00     0.080 H 
ATOM    121  H   SGN d 304      76.395  20.874 102.768  0.00  0.00     0.080 H 
ATOM    122  H   SGN d 304      80.261  18.410  98.909  0.00  0.00     0.210 HD
ATOM    123  H   SGN d 304      76.251  19.365 100.875  0.00  0.00     0.090 H 
ATOM    124  H   SGN d 304      79.477  17.627  95.149  0.00  0.00     0.231 HD
ATOM    125  H   SGN d 304      76.376  20.604  97.403  0.00  0.00     0.131 H 
ATOM    126  H   SGN d 304      78.151  18.259  99.793  0.00  0.00     0.089 H 
ATOM    127  H   SGN d 304      78.691  20.755  98.145  0.00  0.00     0.076 H 
ATOM    128  H   SGN d 304      77.150  20.726  95.751  0.00  0.00     0.231 HD
ATOM    129  H   SGN d 304      78.699  21.112 100.663  0.00  0.00     0.091 H 
ATOM    130  O5S SGN d 302      89.307  20.088 102.322  0.00  0.00    -0.572 OA
ATOM    131  C4  SGN d 302      85.063  22.935 105.465  0.00  0.00     0.095 C 
ATOM    132  O1S SGN d 302      81.815  21.430 109.611  0.00  0.00    -0.296 OA
ATOM    133  O3  SGN d 302      83.667  23.525 107.319  0.00  0.00    -0.391 OA
ATOM    134  O2S SGN d 302      83.446  19.828 109.012  0.00  0.00    -0.296 OA
ATOM    135  C1  SGN d 302      83.686  20.398 105.240  0.00  0.00     0.150 C 
ATOM    136  C5  SGN d 302      85.116  22.091 104.200  0.00  0.00     0.091 C 
ATOM    137  O3S SGN d 302      81.176  19.342 108.682  0.00  0.00    -0.296 OA
ATOM    138  O5  SGN d 302      84.931  20.695 104.553  0.00  0.00    -0.349 OA
ATOM    139  C6  SGN d 302      86.453  22.305 103.502  0.00  0.00     0.067 C 
ATOM    140  S1  SGN d 302      82.171  20.386 108.682  0.00  0.00     0.156 S 
ATOM    141  O4S SGN d 302      87.363  20.228 100.985  0.00  0.00    -0.572 OA
ATOM    142  O6S SGN d 302      88.600  22.176 101.516  0.00  0.00    -0.572 OA
ATOM    143  O4  SGN d 302      85.202  24.279 105.106  0.00  0.00    -0.348 OA
ATOM    144  N   SGN d 302      82.303  21.080 107.061  0.00  0.00    -0.210 NA
ATOM    145  C3  SGN d 302      83.722  22.739 106.142  0.00  0.00     0.083 C 
ATOM    146  C2  SGN d 302      83.620  21.265 106.501  0.00  0.00     0.081 C 
ATOM    147  S2  SGN d 302      88.159  20.885 101.983  0.00  0.00     0.251 S 
ATOM    148  O6  SGN d 302      87.196  21.109 103.434  0.00  0.00    -0.254 OA
ATOM    149  O1  SGN d 302      82.542  20.724 104.452  0.00  0.00    -0.348 OA
ATOM    150  H   SGN d 302      85.846  22.647 106.134  0.00  0.00     0.091 H 
ATOM    151  H   SGN d 302      81.740  21.057 110.503  0.00  0.00     0.231 HD
ATOM    152  H   SGN d 302      83.732  24.463 107.085  0.00  0.00     0.210 HD
ATOM    153  H   SGN d 302      83.409  19.438 109.900  0.00  0.00     0.231 HD
ATOM    154  H   SGN d 302      83.674  19.349 105.452  0.00  0.00     0.131 H 
ATOM    155  H   SGN d 302      84.337  22.382 103.527  0.00  0.00     0.090 H 
ATOM    156  H   SGN d 302      81.105  18.963 109.572  0.00  0.00     0.231 HD
ATOM    157  H   SGN d 302      87.016  23.034 104.046  0.00  0.00     0.080 H 
ATOM    158  H   SGN d 302      86.261  22.640 102.505  0.00  0.00     0.080 H 
ATOM    159  H   SGN d 302      81.855  21.996 107.087  0.00  0.00     0.140 HD
ATOM    160  H   SGN d 302      82.917  23.032 105.502  0.00  0.00     0.089 H 
ATOM    161  H   SGN d 302      84.414  20.992 107.165  0.00  0.00     0.076 H 
ENDROOT
TORSDOF 50
ENDMDL
MODEL 36
REMARK VINA RESULT:     -10.4      2.918      5.088
REMARK  0 active torsions:
REMARK  status: ('A' for Active; 'I' for Inactive)
REMARK       I    between atoms: S_1  and  O2_2 
REMARK       I    between atoms: O2_2  and  C2_99 
REMARK       I    between atoms: C3_3  and  O3_50 
REMARK       I    between atoms: C2_5  and  O2_57 
REMARK       I    between atoms: O1S_6  and  S1_33 
REMARK       I    between atoms: O3_7  and  C3_52 
REMARK       I    between atoms: O6_9  and  C6_34 
REMARK       I    between atoms: O6_9  and  S2_17 
REMARK       I    between atoms: C2_13  and  N_73 
REMARK       I    between atoms: S_16  and  O2_57 
REMARK       I    between atoms: C1_20  and  O4_43 
REMARK       I    between atoms: C6_21  and  C5_67 
REMARK       I    between atoms: C6_21  and  O6_75 
REMARK       I    between atoms: N_22  and  C2_66 
REMARK       I    between atoms: N_22  and  S1_69 
REMARK       I    between atoms: S2_23  and  O6_75 
REMARK       I    between atoms: C1_24  and  O4_78 
REMARK       I    between atoms: C4_25  and  O4_78 
REMARK       I    between atoms: O3_26  and  C3_81 
REMARK       I    between atoms: O1S_27  and  S1_60 
REMARK       I    between atoms: O3S_28  and  S1_69 
REMARK       I    between atoms: O3_29  and  C3_87 
REMARK       I    between atoms: C6_30  and  C5_80 
REMARK       I    between atoms: O2S_32  and  S1_60 
REMARK       I    between atoms: S1_33  and  N_73 
REMARK       I    between atoms: S1_33  and  O2S_94 
REMARK       I    between atoms: S1_33  and  O3S_35 
REMARK       I    between atoms: C6_34  and  C5_38 
REMARK       I    between atoms: C2_36  and  O2_93 
REMARK       I    between atoms: O3_37  and  C3_65 
REMARK       I    between atoms: C1_40  and  O1_105 
REMARK       I    between atoms: O2S_41  and  S1_69 
REMARK       I    between atoms: C5_42  and  C6_54 
REMARK       I    between atoms: O4_43  and  C4_92 
REMARK       I    between atoms: O1_44  and  C1_62 
REMARK       I    between atoms: O1_44  and  C4_83 
REMARK       I    between atoms: C1_45  and  O4_102 
REMARK       I    between atoms: C4_46  and  O1_105 
REMARK       I    between atoms: O3S_47  and  S1_60 
REMARK       I    between atoms: C5_53  and  C6_61 
REMARK       I    between atoms: C6_54  and  O6_98 
REMARK       I    between atoms: O3_56  and  C3_84 
REMARK       I    between atoms: C5_59  and  C6_63 
REMARK       I    between atoms: S1_60  and  N_86 
REMARK       I    between atoms: S1_69  and  O1S_91 
REMARK       I    between atoms: O1_70  and  C1_96 
REMARK       I    between atoms: S_82  and  O2_93 
REMARK       I    between atoms: N_86  and  C2_90 
REMARK       I    between atoms: S2_95  and  O6_98 
REMARK       I    between atoms: C4_100  and  O4_102 
ROOT
ATOM      1  S   IDS d 303      82.255  18.567 106.917  0.00  0.00     0.252 S 
ATOM      2  O2  IDS d 303      81.680  18.489 105.263  0.00  0.00    -0.244 OA
ATOM      3  O61 IDS d 303      81.953  18.406  99.556  0.00  0.00    -0.646 OA
ATOM      4  O3  IDS d 303      80.462  21.063 103.130  0.00  0.00    -0.390 OA
ATOM      5  O3S IDS d 303      81.551  19.654 107.550  0.00  0.00    -0.572 OA
ATOM      6  C1  IDS d 303      83.196  19.722 103.873  0.00  0.00     0.161 C 
ATOM      7  C4  IDS d 303      80.712  18.758 102.429  0.00  0.00     0.103 C 
ATOM      8  O2S IDS d 303      81.983  17.307 107.552  0.00  0.00    -0.572 OA
ATOM      9  C3  IDS d 303      80.606  19.771 103.591  0.00  0.00     0.094 C 
ATOM     10  C5  IDS d 303      82.133  18.802 101.875  0.00  0.00     0.152 C 
ATOM     11  C6  IDS d 303      82.288  17.946 100.650  0.00  0.00     0.206 C 
ATOM     12  O62 IDS d 303      82.945  16.897 100.796  0.00  0.00    -0.646 OA
ATOM     13  O5  IDS d 303      83.236  18.838 102.762  0.00  0.00    -0.340 OA
ATOM     14  C2  IDS d 303      81.808  19.674 104.547  0.00  0.00     0.134 C 
ATOM     15  O1S IDS d 303      83.660  18.810 106.873  0.00  0.00    -0.572 OA
ATOM     16  H   IDS d 303      79.701  21.110 102.530  0.00  0.00     0.210 HD
ATOM     17  H   IDS d 303      83.954  19.372 104.542  0.00  0.00     0.133 H 
ATOM     18  H   IDS d 303      79.974  19.005 101.693  0.00  0.00     0.092 H 
ATOM     19  H   IDS d 303      79.725  19.513 104.142  0.00  0.00     0.091 H 
ATOM     20  H   IDS d 303      82.221  19.823 101.566  0.00  0.00     0.104 H 
ATOM     21  H   IDS d 303      81.778  20.545 105.169  0.00  0.00     0.097 H 
ATOM     22  C3  SGN d 306      88.395  29.446 106.645  0.00  0.00     0.083 C 
ATOM     23  O1S SGN d 306      90.749  27.911 109.027  0.00  0.00    -0.296 OA
ATOM     24  O4S SGN d 306      81.227  29.912 107.937  0.00  0.00    -0.572 OA
ATOM     25  O5S SGN d 306      81.862  28.085 106.577  0.00  0.00    -0.572 OA
ATOM     26  C2  SGN d 306      88.352  29.677 108.148  0.00  0.00     0.081 C 
ATOM     27  O5  SGN d 306      86.027  30.338 107.969  0.00  0.00    -0.350 OA
ATOM     28  C6  SGN d 306      84.605  29.766 106.089  0.00  0.00     0.067 C 
ATOM     29  S2  SGN d 306      82.032  29.489 106.826  0.00  0.00     0.251 S 
ATOM     30  S1  SGN d 306      90.677  29.260 109.528  0.00  0.00     0.156 S 
ATOM     31  O3S SGN d 306      91.991  29.851 109.560  0.00  0.00    -0.296 OA
ATOM     32  O4  SGN d 306      87.047  28.768 104.759  0.00  0.00    -0.348 OA
ATOM     33  O3  SGN d 306      89.371  28.460 106.364  0.00  0.00    -0.391 OA
ATOM     34  O6S SGN d 306      81.701  30.239 105.641  0.00  0.00    -0.572 OA
ATOM     35  C5  SGN d 306      86.016  30.119 106.526  0.00  0.00     0.091 C 
ATOM     36  O1  SGN d 306      87.718  32.007 108.084  0.00  0.00    -0.369 OA
ATOM     37  N   SGN d 306      89.637  30.223 108.487  0.00  0.00    -0.210 NA
ATOM     38  O6  SGN d 306      83.727  29.763 107.193  0.00  0.00    -0.254 OA
ATOM     39  C4  SGN d 306      87.009  28.989 106.181  0.00  0.00     0.095 C 
ATOM     40  O2S SGN d 306      90.090  29.281 110.832  0.00  0.00    -0.296 OA
ATOM     41  C1  SGN d 306      87.298  30.725 108.539  0.00  0.00     0.147 C 
ATOM     42  H   SGN d 306      88.656  30.345 106.127  0.00  0.00     0.089 H 
ATOM     43  H   SGN d 306      89.860  27.524 109.010  0.00  0.00     0.231 HD
ATOM     44  H   SGN d 306      88.113  28.761 108.649  0.00  0.00     0.076 H 
ATOM     45  H   SGN d 306      84.609  28.795 105.640  0.00  0.00     0.080 H 
ATOM     46  H   SGN d 306      84.270  30.498 105.384  0.00  0.00     0.080 H 
ATOM     47  H   SGN d 306      92.377  29.830 108.670  0.00  0.00     0.231 HD
ATOM     48  H   SGN d 306      89.145  27.639 106.829  0.00  0.00     0.210 HD
ATOM     49  H   SGN d 306      86.318  31.005 106.008  0.00  0.00     0.090 H 
ATOM     50  H   SGN d 306      88.571  32.230 108.488  0.00  0.00     0.212 HD
ATOM     51  H   SGN d 306      89.476  31.115 108.956  0.00  0.00     0.140 HD
ATOM     52  H   SGN d 306      86.710  28.080 106.658  0.00  0.00     0.091 H 
ATOM     53  H   SGN d 306      89.207  28.881 110.796  0.00  0.00     0.231 HD
ATOM     54  H   SGN d 306      87.188  30.779 109.602  0.00  0.00     0.131 H 
ATOM     55  C2  UAP d 301      80.810  11.389  99.925  0.00  0.00     0.132 C 
ATOM     56  S   UAP d 301      79.614  10.279  97.872  0.00  0.00     0.252 S 
ATOM     57  O1S UAP d 301      79.751   8.975  97.349  0.00  0.00    -0.572 OA
ATOM     58  C1  UAP d 301      80.142  11.920 101.176  0.00  0.00     0.161 C 
ATOM     59  O61 UAP d 301      83.348   9.427 103.847  0.00  0.00    -0.646 OA
ATOM     60  C5  UAP d 301      81.806  10.648 102.460  0.00  0.00     0.127 C 
ATOM     61  O3  UAP d 301      82.979  12.243  99.569  0.00  0.00    -0.393 OA
ATOM     62  O2  UAP d 301      80.168  10.227  99.522  0.00  0.00    -0.244 OA
ATOM     63  O5  UAP d 301      80.498  11.176 102.336  0.00  0.00    -0.343 OA
ATOM     64  C6  UAP d 301      82.212   9.935 103.744  0.00  0.00     0.203 C 
ATOM     65  O62 UAP d 301      81.341   9.871 104.638  0.00  0.00    -0.646 OA
ATOM     66  O3S UAP d 301      78.242  10.677  97.933  0.00  0.00    -0.572 OA
ATOM     67  O2S UAP d 301      80.420  11.204  97.113  0.00  0.00    -0.572 OA
ATOM     68  C3  UAP d 301      82.315  11.085  99.968  0.00  0.00     0.069 C 
ATOM     69  C4  UAP d 301      82.855  10.612 101.346  0.00  0.00    -0.005 C 
ATOM     70  H   UAP d 301      80.718  12.212  99.248  0.00  0.00     0.097 H 
ATOM     71  H   UAP d 301      79.076  11.841 101.112  0.00  0.00     0.133 H 
ATOM     72  H   UAP d 301      81.566  11.663 102.224  0.00  0.00     0.100 H 
ATOM     73  H   UAP d 301      82.637  12.531  98.708  0.00  0.00     0.210 HD
ATOM     74  H   UAP d 301      82.494  10.257  99.313  0.00  0.00     0.087 H 
ATOM     75  H   UAP d 301      83.206   9.605 101.245  0.00  0.00     0.041 H 
ATOM     76  H   UAP d 301      83.634  11.289 101.627  0.00  0.00     0.041 H 
ATOM     77  O5  IDS d 305      86.648  26.386 104.768  0.00  0.00    -0.340 OA
ATOM     78  O62 IDS d 305      87.412  23.969 105.892  0.00  0.00    -0.646 OA
ATOM     79  C1  IDS d 305      86.331  27.658 104.199  0.00  0.00     0.161 C 
ATOM     80  O3  IDS d 305      88.582  27.233 101.651  0.00  0.00    -0.390 OA
ATOM     81  C6  IDS d 305      88.126  24.360 104.940  0.00  0.00     0.206 C 
ATOM     82  C2  IDS d 305      86.489  27.686 102.656  0.00  0.00     0.134 C 
ATOM     83  C5  IDS d 305      87.614  25.569 104.156  0.00  0.00     0.152 C 
ATOM     84  C3  IDS d 305      87.364  26.659 101.913  0.00  0.00     0.094 C 
ATOM     85  S   IDS d 305      83.859  27.192 102.022  0.00  0.00     0.252 S 
ATOM     86  C4  IDS d 305      87.548  25.321 102.656  0.00  0.00     0.103 C 
ATOM     87  O3S IDS d 305      82.890  27.901 101.270  0.00  0.00    -0.572 OA
ATOM     88  O1S IDS d 305      83.455  27.113 103.381  0.00  0.00    -0.572 OA
ATOM     89  O2  IDS d 305      85.358  28.129 101.916  0.00  0.00    -0.244 OA
ATOM     90  O61 IDS d 305      89.062  23.690 104.472  0.00  0.00    -0.646 OA
ATOM     91  O2S IDS d 305      84.075  25.897 101.488  0.00  0.00    -0.572 OA
ATOM     92  H   IDS d 305      85.300  27.782 104.458  0.00  0.00     0.133 H 
ATOM     93  H   IDS d 305      88.449  28.073 101.184  0.00  0.00     0.210 HD
ATOM     94  H   IDS d 305      87.196  28.490 102.672  0.00  0.00     0.097 H 
ATOM     95  H   IDS d 305      88.392  26.300 104.230  0.00  0.00     0.104 H 
ATOM     96  H   IDS d 305      86.850  26.404 101.009  0.00  0.00     0.091 H 
ATOM     97  H   IDS d 305      88.455  24.872 102.308  0.00  0.00     0.092 H 
ATOM     98  O6  SGN d 304      86.614  19.647 103.832  0.00  0.00    -0.254 OA
ATOM     99  S2  SGN d 304      87.090  18.207 104.702  0.00  0.00     0.251 S 
ATOM    100  O5S SGN d 304      87.171  17.127 103.754  0.00  0.00    -0.572 OA
ATOM    101  N   SGN d 304      85.127  23.919 100.113  0.00  0.00    -0.210 NA
ATOM    102  O3S SGN d 304      85.956  23.339  97.715  0.00  0.00    -0.296 OA
ATOM    103  C6  SGN d 304      86.284  20.807 104.591  0.00  0.00     0.067 C 
ATOM    104  O3  SGN d 304      83.218  22.044 100.936  0.00  0.00    -0.391 OA
ATOM    105  C5  SGN d 304      85.830  21.857 103.608  0.00  0.00     0.091 C 
ATOM    106  O2S SGN d 304      85.544  25.583  98.214  0.00  0.00    -0.296 OA
ATOM    107  O1  SGN d 304      86.439  24.450 102.404  0.00  0.00    -0.348 OA
ATOM    108  O4S SGN d 304      88.366  18.430 105.311  0.00  0.00    -0.572 OA
ATOM    109  C1  SGN d 304      86.714  23.197 101.772  0.00  0.00     0.150 C 
ATOM    110  C3  SGN d 304      84.285  22.457 101.767  0.00  0.00     0.083 C 
ATOM    111  C2  SGN d 304      85.508  22.771 100.900  0.00  0.00     0.081 C 
ATOM    112  S1  SGN d 304      86.083  24.361  98.704  0.00  0.00     0.156 S 
ATOM    113  O6S SGN d 304      86.082  17.924 105.699  0.00  0.00    -0.572 OA
ATOM    114  O1S SGN d 304      87.464  24.526  99.058  0.00  0.00    -0.296 OA
ATOM    115  O5  SGN d 304      86.957  22.165 102.746  0.00  0.00    -0.349 OA
ATOM    116  C4  SGN d 304      84.661  21.347 102.741  0.00  0.00     0.095 C 
ATOM    117  O4  SGN d 304      83.518  21.065 103.562  0.00  0.00    -0.348 OA
ATOM    118  H   SGN d 304      85.134  24.723 100.740  0.00  0.00     0.140 HD
ATOM    119  H   SGN d 304      85.021  23.232  97.480  0.00  0.00     0.231 HD
ATOM    120  H   SGN d 304      87.143  21.153 105.128  0.00  0.00     0.080 H 
ATOM    121  H   SGN d 304      85.517  20.592 105.305  0.00  0.00     0.080 H 
ATOM    122  H   SGN d 304      82.990  22.761 100.323  0.00  0.00     0.210 HD
ATOM    123  H   SGN d 304      85.492  22.721 104.143  0.00  0.00     0.090 H 
ATOM    124  H   SGN d 304      84.612  25.454  97.980  0.00  0.00     0.231 HD
ATOM    125  H   SGN d 304      87.588  23.322 101.167  0.00  0.00     0.131 H 
ATOM    126  H   SGN d 304      83.976  23.323 102.314  0.00  0.00     0.089 H 
ATOM    127  H   SGN d 304      85.789  21.916 100.322  0.00  0.00     0.076 H 
ATOM    128  H   SGN d 304      87.816  23.685  99.390  0.00  0.00     0.231 HD
ATOM    129  H   SGN d 304      84.956  20.454 102.228  0.00  0.00     0.091 H 
ATOM    130  O5S SGN d 302      76.400  16.171  97.250  0.00  0.00    -0.572 OA
ATOM    131  C4  SGN d 302      79.711  14.190 101.845  0.00  0.00     0.095 C 
ATOM    132  O1S SGN d 302      79.312  14.753 107.279  0.00  0.00    -0.296 OA
ATOM    133  O3  SGN d 302      80.253  13.428 104.050  0.00  0.00    -0.391 OA
ATOM    134  O2S SGN d 302      77.481  15.626 106.066  0.00  0.00    -0.296 OA
ATOM    135  C1  SGN d 302      79.221  16.846 102.889  0.00  0.00     0.150 C 
ATOM    136  C5  SGN d 302      79.691  15.423 100.953  0.00  0.00     0.091 C 
ATOM    137  O3S SGN d 302      78.879  17.085 107.258  0.00  0.00    -0.296 OA
ATOM    138  O5  SGN d 302      78.833  16.429 101.553  0.00  0.00    -0.349 OA
ATOM    139  C6  SGN d 302      79.195  15.038  99.566  0.00  0.00     0.067 C 
ATOM    140  S1  SGN d 302      78.825  15.862 106.497  0.00  0.00     0.156 S 
ATOM    141  O4S SGN d 302      78.366  17.477  97.364  0.00  0.00    -0.572 OA
ATOM    142  O6S SGN d 302      78.471  15.196  96.733  0.00  0.00    -0.572 OA
ATOM    143  O4  SGN d 302      80.572  13.247 101.276  0.00  0.00    -0.348 OA
ATOM    144  N   SGN d 302      79.823  16.022 105.045  0.00  0.00    -0.210 NA
ATOM    145  C3  SGN d 302      80.230  14.573 103.216  0.00  0.00     0.083 C 
ATOM    146  C2  SGN d 302      79.266  15.604 103.782  0.00  0.00     0.081 C 
ATOM    147  S2  SGN d 302      77.803  16.170  97.561  0.00  0.00     0.251 S 
ATOM    148  O6  SGN d 302      77.996  15.707  99.244  0.00  0.00    -0.254 OA
ATOM    149  O1  SGN d 302      80.526  17.424 102.918  0.00  0.00    -0.348 OA
ATOM    150  H   SGN d 302      78.725  13.785 101.937  0.00  0.00     0.091 H 
ATOM    151  H   SGN d 302      78.769  14.658 108.078  0.00  0.00     0.231 HD
ATOM    152  H   SGN d 302      80.869  12.774 103.684  0.00  0.00     0.210 HD
ATOM    153  H   SGN d 302      76.905  15.533 106.840  0.00  0.00     0.231 HD
ATOM    154  H   SGN d 302      78.511  17.575 103.220  0.00  0.00     0.131 H 
ATOM    155  H   SGN d 302      80.677  15.827 100.856  0.00  0.00     0.090 H 
ATOM    156  H   SGN d 302      78.331  16.995 108.053  0.00  0.00     0.231 HD
ATOM    157  H   SGN d 302      79.022  13.983  99.538  0.00  0.00     0.080 H 
ATOM    158  H   SGN d 302      79.940  15.321  98.852  0.00  0.00     0.080 H 
ATOM    159  H   SGN d 302      80.669  15.472 105.198  0.00  0.00     0.140 HD
ATOM    160  H   SGN d 302      81.222  14.969 103.160  0.00  0.00     0.089 H 
ATOM    161  H   SGN d 302      78.284  15.184 103.860  0.00  0.00     0.076 H 
ENDROOT
TORSDOF 50
ENDMDL
MODEL 37
REMARK VINA RESULT:     -10.4      3.185      5.608
REMARK  0 active torsions:
REMARK  status: ('A' for Active; 'I' for Inactive)
REMARK       I    between atoms: S_1  and  O2_2 
REMARK       I    between atoms: O2_2  and  C2_99 
REMARK       I    between atoms: C3_3  and  O3_50 
REMARK       I    between atoms: C2_5  and  O2_57 
REMARK       I    between atoms: O1S_6  and  S1_33 
REMARK       I    between atoms: O3_7  and  C3_52 
REMARK       I    between atoms: O6_9  and  C6_34 
REMARK       I    between atoms: O6_9  and  S2_17 
REMARK       I    between atoms: C2_13  and  N_73 
REMARK       I    between atoms: S_16  and  O2_57 
REMARK       I    between atoms: C1_20  and  O4_43 
REMARK       I    between atoms: C6_21  and  C5_67 
REMARK       I    between atoms: C6_21  and  O6_75 
REMARK       I    between atoms: N_22  and  C2_66 
REMARK       I    between atoms: N_22  and  S1_69 
REMARK       I    between atoms: S2_23  and  O6_75 
REMARK       I    between atoms: C1_24  and  O4_78 
REMARK       I    between atoms: C4_25  and  O4_78 
REMARK       I    between atoms: O3_26  and  C3_81 
REMARK       I    between atoms: O1S_27  and  S1_60 
REMARK       I    between atoms: O3S_28  and  S1_69 
REMARK       I    between atoms: O3_29  and  C3_87 
REMARK       I    between atoms: C6_30  and  C5_80 
REMARK       I    between atoms: O2S_32  and  S1_60 
REMARK       I    between atoms: S1_33  and  N_73 
REMARK       I    between atoms: S1_33  and  O2S_94 
REMARK       I    between atoms: S1_33  and  O3S_35 
REMARK       I    between atoms: C6_34  and  C5_38 
REMARK       I    between atoms: C2_36  and  O2_93 
REMARK       I    between atoms: O3_37  and  C3_65 
REMARK       I    between atoms: C1_40  and  O1_105 
REMARK       I    between atoms: O2S_41  and  S1_69 
REMARK       I    between atoms: C5_42  and  C6_54 
REMARK       I    between atoms: O4_43  and  C4_92 
REMARK       I    between atoms: O1_44  and  C1_62 
REMARK       I    between atoms: O1_44  and  C4_83 
REMARK       I    between atoms: C1_45  and  O4_102 
REMARK       I    between atoms: C4_46  and  O1_105 
REMARK       I    between atoms: O3S_47  and  S1_60 
REMARK       I    between atoms: C5_53  and  C6_61 
REMARK       I    between atoms: C6_54  and  O6_98 
REMARK       I    between atoms: O3_56  and  C3_84 
REMARK       I    between atoms: C5_59  and  C6_63 
REMARK       I    between atoms: S1_60  and  N_86 
REMARK       I    between atoms: S1_69  and  O1S_91 
REMARK       I    between atoms: O1_70  and  C1_96 
REMARK       I    between atoms: S_82  and  O2_93 
REMARK       I    between atoms: N_86  and  C2_90 
REMARK       I    between atoms: S2_95  and  O6_98 
REMARK       I    between atoms: C4_100  and  O4_102 
ROOT
ATOM      1  S   IDS d 303      81.983  19.076 106.250  0.00  0.00     0.252 S 
ATOM      2  O2  IDS d 303      81.209  19.141 104.678  0.00  0.00    -0.244 OA
ATOM      3  O61 IDS d 303      80.771  19.093  98.981  0.00  0.00    -0.646 OA
ATOM      4  O3  IDS d 303      80.287  21.940 102.685  0.00  0.00    -0.390 OA
ATOM      5  O3S IDS d 303      81.594  20.273 106.953  0.00  0.00    -0.572 OA
ATOM      6  C1  IDS d 303      82.764  20.066 103.104  0.00  0.00     0.161 C 
ATOM      7  C4  IDS d 303      79.981  19.643 101.980  0.00  0.00     0.103 C 
ATOM      8  O2S IDS d 303      81.541  17.887 106.924  0.00  0.00    -0.572 OA
ATOM      9  C3  IDS d 303      80.222  20.639 103.137  0.00  0.00     0.094 C 
ATOM     10  C5  IDS d 303      81.305  19.410 101.258  0.00  0.00     0.152 C 
ATOM     11  C6  IDS d 303      81.136  18.559 100.031  0.00  0.00     0.206 C 
ATOM     12  O62 IDS d 303      81.581  17.397 100.106  0.00  0.00    -0.646 OA
ATOM     13  O5  IDS d 303      82.491  19.210 102.004  0.00  0.00    -0.340 OA
ATOM     14  C2  IDS d 303      81.486  20.288 103.941  0.00  0.00     0.134 C 
ATOM     15  O1S IDS d 303      83.393  19.033 106.034  0.00  0.00    -0.572 OA
ATOM     16  H   IDS d 303      79.485  22.148 102.181  0.00  0.00     0.210 HD
ATOM     17  H   IDS d 303      83.511  19.560 103.679  0.00  0.00     0.133 H 
ATOM     18  H   IDS d 303      79.225  20.045 101.337  0.00  0.00     0.092 H 
ATOM     19  H   IDS d 303      79.380  20.554 103.793  0.00  0.00     0.091 H 
ATOM     20  H   IDS d 303      81.559  20.396 100.931  0.00  0.00     0.104 H 
ATOM     21  H   IDS d 303      81.707  21.137 104.554  0.00  0.00     0.097 H 
ATOM     22  C3  SGN d 306      90.110  28.502 105.138  0.00  0.00     0.083 C 
ATOM     23  O1S SGN d 306      92.375  26.489 107.231  0.00  0.00    -0.296 OA
ATOM     24  O4S SGN d 306      83.391  30.380 107.283  0.00  0.00    -0.572 OA
ATOM     25  O5S SGN d 306      83.476  28.484 105.873  0.00  0.00    -0.572 OA
ATOM     26  C2  SGN d 306      90.295  28.714 106.633  0.00  0.00     0.081 C 
ATOM     27  O5  SGN d 306      88.146  29.832 106.731  0.00  0.00    -0.350 OA
ATOM     28  C6  SGN d 306      86.423  29.586 105.041  0.00  0.00     0.067 C 
ATOM     29  S2  SGN d 306      83.955  29.821 106.087  0.00  0.00     0.251 S 
ATOM     30  S1  SGN d 306      92.637  27.817 107.725  0.00  0.00     0.156 S 
ATOM     31  O3S SGN d 306      94.038  28.131 107.592  0.00  0.00    -0.296 OA
ATOM     32  O4  SGN d 306      88.435  28.138 103.435  0.00  0.00    -0.348 OA
ATOM     33  O3  SGN d 306      90.826  27.345 104.750  0.00  0.00    -0.391 OA
ATOM     34  O6S SGN d 306      83.641  30.640 104.944  0.00  0.00    -0.572 OA
ATOM     35  C5  SGN d 306      87.918  29.642 105.302  0.00  0.00     0.091 C 
ATOM     36  O1  SGN d 306      90.140  31.125 106.625  0.00  0.00    -0.369 OA
ATOM     37  N   SGN d 306      91.695  28.985 106.809  0.00  0.00    -0.210 NA
ATOM     38  O6  SGN d 306      85.702  29.742 106.244  0.00  0.00    -0.254 OA
ATOM     39  C4  SGN d 306      88.614  28.340 104.849  0.00  0.00     0.095 C 
ATOM     40  O2S SGN d 306      92.228  27.935 109.091  0.00  0.00    -0.296 OA
ATOM     41  C1  SGN d 306      89.529  29.946 107.139  0.00  0.00     0.147 C 
ATOM     42  H   SGN d 306      90.481  29.339 104.584  0.00  0.00     0.089 H 
ATOM     43  H   SGN d 306      91.431  26.289 107.326  0.00  0.00     0.231 HD
ATOM     44  H   SGN d 306      89.939  27.858 107.167  0.00  0.00     0.076 H 
ATOM     45  H   SGN d 306      86.177  28.641 104.605  0.00  0.00     0.080 H 
ATOM     46  H   SGN d 306      86.160  30.382 104.376  0.00  0.00     0.080 H 
ATOM     47  H   SGN d 306      94.301  28.047 106.663  0.00  0.00     0.231 HD
ATOM     48  H   SGN d 306      90.497  26.579 105.246  0.00  0.00     0.210 HD
ATOM     49  H   SGN d 306      88.328  30.457 104.743  0.00  0.00     0.090 H 
ATOM     50  H   SGN d 306      91.063  31.166 106.920  0.00  0.00     0.212 HD
ATOM     51  H   SGN d 306      91.774  29.884 107.286  0.00  0.00     0.140 HD
ATOM     52  H   SGN d 306      88.198  27.503 105.367  0.00  0.00     0.091 H 
ATOM     53  H   SGN d 306      91.285  27.721 109.165  0.00  0.00     0.231 HD
ATOM     54  H   SGN d 306      89.560  30.004 108.207  0.00  0.00     0.131 H 
ATOM     55  C2  UAP d 301      78.291  12.445  99.550  0.00  0.00     0.132 C 
ATOM     56  S   UAP d 301      76.659  11.629  97.667  0.00  0.00     0.252 S 
ATOM     57  O1S UAP d 301      76.466  10.333  97.142  0.00  0.00    -0.572 OA
ATOM     58  C1  UAP d 301      77.899  13.080 100.868  0.00  0.00     0.161 C 
ATOM     59  O61 UAP d 301      80.835   9.952 103.153  0.00  0.00    -0.646 OA
ATOM     60  C5  UAP d 301      79.416  11.479 101.952  0.00  0.00     0.127 C 
ATOM     61  O3  UAP d 301      80.529  12.851  98.926  0.00  0.00    -0.393 OA
ATOM     62  O2  UAP d 301      77.385  11.442  99.238  0.00  0.00    -0.244 OA
ATOM     63  O5  UAP d 301      78.235  12.261 101.983  0.00  0.00    -0.343 OA
ATOM     64  C6  UAP d 301      79.822  10.679 103.184  0.00  0.00     0.203 C 
ATOM     65  O62 UAP d 301      79.070  10.778 104.178  0.00  0.00    -0.646 OA
ATOM     66  O3S UAP d 301      75.412  12.294  97.890  0.00  0.00    -0.572 OA
ATOM     67  O2S UAP d 301      77.537  12.386  96.808  0.00  0.00    -0.572 OA
ATOM     68  C3  UAP d 301      79.699  11.844  99.413  0.00  0.00     0.069 C 
ATOM     69  C4  UAP d 301      80.294  11.250 100.720  0.00  0.00    -0.005 C 
ATOM     70  H   UAP d 301      78.286  13.280  98.881  0.00  0.00     0.097 H 
ATOM     71  H   UAP d 301      76.840  13.217 100.934  0.00  0.00     0.133 H 
ATOM     72  H   UAP d 301      79.358  12.525 101.737  0.00  0.00     0.100 H 
ATOM     73  H   UAP d 301      80.152  13.215  98.110  0.00  0.00     0.210 HD
ATOM     74  H   UAP d 301      79.627  11.007  98.749  0.00  0.00     0.087 H 
ATOM     75  H   UAP d 301      80.420  10.196 100.586  0.00  0.00     0.041 H 
ATOM     76  H   UAP d 301      81.221  11.753 100.899  0.00  0.00     0.041 H 
ATOM     77  O5  IDS d 305      87.569  25.886 103.514  0.00  0.00    -0.340 OA
ATOM     78  O62 IDS d 305      87.960  23.347 104.559  0.00  0.00    -0.646 OA
ATOM     79  C1  IDS d 305      87.449  27.204 102.976  0.00  0.00     0.161 C 
ATOM     80  O3  IDS d 305      89.244  26.375 100.179  0.00  0.00    -0.390 OA
ATOM     81  C6  IDS d 305      88.619  23.602 103.525  0.00  0.00     0.206 C 
ATOM     82  C2  IDS d 305      87.422  27.224 101.425  0.00  0.00     0.134 C 
ATOM     83  C5  IDS d 305      88.270  24.901 102.797  0.00  0.00     0.152 C 
ATOM     84  C3  IDS d 305      87.976  26.053 100.591  0.00  0.00     0.094 C 
ATOM     85  S   IDS d 305      84.689  27.278 101.119  0.00  0.00     0.252 S 
ATOM     86  C4  IDS d 305      87.976  24.695 101.318  0.00  0.00     0.103 C 
ATOM     87  O3S IDS d 305      83.800  28.179 100.482  0.00  0.00    -0.572 OA
ATOM     88  O1S IDS d 305      84.445  27.261 102.517  0.00  0.00    -0.572 OA
ATOM     89  O2  IDS d 305      86.323  27.896 100.824  0.00  0.00    -0.244 OA
ATOM     90  O61 IDS d 305      89.337  22.765 102.953  0.00  0.00    -0.646 OA
ATOM     91  O2S IDS d 305      84.575  25.975 100.573  0.00  0.00    -0.572 OA
ATOM     92  H   IDS d 305      86.503  27.528 103.356  0.00  0.00     0.133 H 
ATOM     93  H   IDS d 305      89.229  27.232  99.723  0.00  0.00     0.210 HD
ATOM     94  H   IDS d 305      88.273  27.868 101.348  0.00  0.00     0.097 H 
ATOM     95  H   IDS d 305      89.182  25.459 102.770  0.00  0.00     0.104 H 
ATOM     96  H   IDS d 305      87.317  25.920  99.758  0.00  0.00     0.091 H 
ATOM     97  H   IDS d 305      88.724  24.078 100.867  0.00  0.00     0.092 H 
ATOM     98  O6  SGN d 304      86.066  19.306 102.650  0.00  0.00    -0.254 OA
ATOM     99  S2  SGN d 304      86.344  17.787 103.469  0.00  0.00     0.251 S 
ATOM    100  O5S SGN d 304      86.091  16.728 102.528  0.00  0.00    -0.572 OA
ATOM    101  N   SGN d 304      85.034  23.847  99.100  0.00  0.00    -0.210 NA
ATOM    102  O3S SGN d 304      85.434  23.150  96.625  0.00  0.00    -0.296 OA
ATOM    103  C6  SGN d 304      86.071  20.497 103.433  0.00  0.00     0.067 C 
ATOM    104  O3  SGN d 304      82.899  22.381 100.165  0.00  0.00    -0.391 OA
ATOM    105  C5  SGN d 304      85.723  21.632 102.503  0.00  0.00     0.091 C 
ATOM    106  O2S SGN d 304      85.545  25.422  97.149  0.00  0.00    -0.296 OA
ATOM    107  O1  SGN d 304      86.691  24.068 101.210  0.00  0.00    -0.348 OA
ATOM    108  O4S SGN d 304      87.703  17.739 103.917  0.00  0.00    -0.572 OA
ATOM    109  C1  SGN d 304      86.630  22.795 100.561  0.00  0.00     0.150 C 
ATOM    110  C3  SGN d 304      84.120  22.559 100.857  0.00  0.00     0.083 C 
ATOM    111  C2  SGN d 304      85.268  22.634  99.845  0.00  0.00     0.081 C 
ATOM    112  S1  SGN d 304      85.883  24.109  97.582  0.00  0.00     0.156 S 
ATOM    113  O6S SGN d 304      85.427  17.697 104.583  0.00  0.00    -0.572 OA
ATOM    114  O1S SGN d 304      87.301  23.989  97.764  0.00  0.00    -0.296 OA
ATOM    115  O5  SGN d 304      86.776  21.721 101.508  0.00  0.00    -0.349 OA
ATOM    116  C4  SGN d 304      84.379  21.380 101.788  0.00  0.00     0.095 C 
ATOM    117  O4  SGN d 304      83.310  21.321 102.744  0.00  0.00    -0.348 OA
ATOM    118  H   SGN d 304      85.278  24.624  99.714  0.00  0.00     0.140 HD
ATOM    119  H   SGN d 304      84.475  23.236  96.505  0.00  0.00     0.231 HD
ATOM    120  H   SGN d 304      87.040  20.654 103.859  0.00  0.00     0.080 H 
ATOM    121  H   SGN d 304      85.367  20.430 104.236  0.00  0.00     0.080 H 
ATOM    122  H   SGN d 304      82.748  23.139  99.577  0.00  0.00     0.210 HD
ATOM    123  H   SGN d 304      85.632  22.538 103.067  0.00  0.00     0.090 H 
ATOM    124  H   SGN d 304      84.585  25.487  97.031  0.00  0.00     0.231 HD
ATOM    125  H   SGN d 304      87.433  22.752  99.854  0.00  0.00     0.131 H 
ATOM    126  H   SGN d 304      84.060  23.461 101.430  0.00  0.00     0.089 H 
ATOM    127  H   SGN d 304      85.299  21.749  99.245  0.00  0.00     0.076 H 
ATOM    128  H   SGN d 304      87.513  23.089  98.059  0.00  0.00     0.231 HD
ATOM    129  H   SGN d 304      84.424  20.455 101.252  0.00  0.00     0.091 H 
ATOM    130  O5S SGN d 302      74.645  18.056  97.385  0.00  0.00    -0.572 OA
ATOM    131  C4  SGN d 302      78.018  15.380 101.563  0.00  0.00     0.095 C 
ATOM    132  O1S SGN d 302      78.397  15.926 107.000  0.00  0.00    -0.296 OA
ATOM    133  O3  SGN d 302      78.657  14.490 103.693  0.00  0.00    -0.391 OA
ATOM    134  O2S SGN d 302      76.648  17.169 106.009  0.00  0.00    -0.296 OA
ATOM    135  C1  SGN d 302      78.202  18.063 102.634  0.00  0.00     0.150 C 
ATOM    136  C5  SGN d 302      78.140  16.605 100.668  0.00  0.00     0.091 C 
ATOM    137  O3S SGN d 302      78.443  18.298 107.010  0.00  0.00    -0.296 OA
ATOM    138  O5  SGN d 302      77.580  17.754 101.359  0.00  0.00    -0.349 OA
ATOM    139  C6  SGN d 302      77.413  16.349  99.355  0.00  0.00     0.067 C 
ATOM    140  S1  SGN d 302      78.054  17.122 106.272  0.00  0.00     0.156 S 
ATOM    141  O4S SGN d 302      76.833  18.938  97.248  0.00  0.00    -0.572 OA
ATOM    142  O6S SGN d 302      76.401  16.693  96.630  0.00  0.00    -0.572 OA
ATOM    143  O4  SGN d 302      78.597  14.292 100.903  0.00  0.00    -0.348 OA
ATOM    144  N   SGN d 302      78.881  17.101 104.709  0.00  0.00    -0.210 NA
ATOM    145  C3  SGN d 302      78.765  15.629 102.858  0.00  0.00     0.083 C 
ATOM    146  C2  SGN d 302      78.103  16.823 103.526  0.00  0.00     0.081 C 
ATOM    147  S2  SGN d 302      76.047  17.769  97.523  0.00  0.00     0.251 S 
ATOM    148  O6  SGN d 302      76.343  17.251  99.175  0.00  0.00    -0.254 OA
ATOM    149  O1  SGN d 302      79.591  18.367 102.500  0.00  0.00    -0.348 OA
ATOM    150  H   SGN d 302      76.990  15.180 101.777  0.00  0.00     0.091 H 
ATOM    151  H   SGN d 302      77.947  15.930 107.859  0.00  0.00     0.231 HD
ATOM    152  H   SGN d 302      79.081  13.731 103.261  0.00  0.00     0.210 HD
ATOM    153  H   SGN d 302      76.162  17.181 106.849  0.00  0.00     0.231 HD
ATOM    154  H   SGN d 302      77.699  18.915 103.042  0.00  0.00     0.131 H 
ATOM    155  H   SGN d 302      79.168  16.803 100.449  0.00  0.00     0.090 H 
ATOM    156  H   SGN d 302      77.988  18.308 107.867  0.00  0.00     0.231 HD
ATOM    157  H   SGN d 302      77.029  15.351  99.359  0.00  0.00     0.080 H 
ATOM    158  H   SGN d 302      78.108  16.487  98.554  0.00  0.00     0.080 H 
ATOM    159  H   SGN d 302      79.611  16.391 104.764  0.00  0.00     0.140 HD
ATOM    160  H   SGN d 302      79.802  15.818 102.678  0.00  0.00     0.089 H 
ATOM    161  H   SGN d 302      77.074  16.608 103.727  0.00  0.00     0.076 H 
ENDROOT
TORSDOF 50
ENDMDL
MODEL 38
REMARK VINA RESULT:     -10.4      5.589     14.606
REMARK  0 active torsions:
REMARK  status: ('A' for Active; 'I' for Inactive)
REMARK       I    between atoms: S_1  and  O2_2 
REMARK       I    between atoms: O2_2  and  C2_99 
REMARK       I    between atoms: C3_3  and  O3_50 
REMARK       I    between atoms: C2_5  and  O2_57 
REMARK       I    between atoms: O1S_6  and  S1_33 
REMARK       I    between atoms: O3_7  and  C3_52 
REMARK       I    between atoms: O6_9  and  C6_34 
REMARK       I    between atoms: O6_9  and  S2_17 
REMARK       I    between atoms: C2_13  and  N_73 
REMARK       I    between atoms: S_16  and  O2_57 
REMARK       I    between atoms: C1_20  and  O4_43 
REMARK       I    between atoms: C6_21  and  C5_67 
REMARK       I    between atoms: C6_21  and  O6_75 
REMARK       I    between atoms: N_22  and  C2_66 
REMARK       I    between atoms: N_22  and  S1_69 
REMARK       I    between atoms: S2_23  and  O6_75 
REMARK       I    between atoms: C1_24  and  O4_78 
REMARK       I    between atoms: C4_25  and  O4_78 
REMARK       I    between atoms: O3_26  and  C3_81 
REMARK       I    between atoms: O1S_27  and  S1_60 
REMARK       I    between atoms: O3S_28  and  S1_69 
REMARK       I    between atoms: O3_29  and  C3_87 
REMARK       I    between atoms: C6_30  and  C5_80 
REMARK       I    between atoms: O2S_32  and  S1_60 
REMARK       I    between atoms: S1_33  and  N_73 
REMARK       I    between atoms: S1_33  and  O2S_94 
REMARK       I    between atoms: S1_33  and  O3S_35 
REMARK       I    between atoms: C6_34  and  C5_38 
REMARK       I    between atoms: C2_36  and  O2_93 
REMARK       I    between atoms: O3_37  and  C3_65 
REMARK       I    between atoms: C1_40  and  O1_105 
REMARK       I    between atoms: O2S_41  and  S1_69 
REMARK       I    between atoms: C5_42  and  C6_54 
REMARK       I    between atoms: O4_43  and  C4_92 
REMARK       I    between atoms: O1_44  and  C1_62 
REMARK       I    between atoms: O1_44  and  C4_83 
REMARK       I    between atoms: C1_45  and  O4_102 
REMARK       I    between atoms: C4_46  and  O1_105 
REMARK       I    between atoms: O3S_47  and  S1_60 
REMARK       I    between atoms: C5_53  and  C6_61 
REMARK       I    between atoms: C6_54  and  O6_98 
REMARK       I    between atoms: O3_56  and  C3_84 
REMARK       I    between atoms: C5_59  and  C6_63 
REMARK       I    between atoms: S1_60  and  N_86 
REMARK       I    between atoms: S1_69  and  O1S_91 
REMARK       I    between atoms: O1_70  and  C1_96 
REMARK       I    between atoms: S_82  and  O2_93 
REMARK       I    between atoms: N_86  and  C2_90 
REMARK       I    between atoms: S2_95  and  O6_98 
REMARK       I    between atoms: C4_100  and  O4_102 
ROOT
ATOM      1  S   IDS d 303      84.889  15.666  97.763  0.00  0.00     0.252 S 
ATOM      2  O2  IDS d 303      84.804  17.413  97.652  0.00  0.00    -0.244 OA
ATOM      3  O61 IDS d 303      85.053  22.852  99.387  0.00  0.00    -0.646 OA
ATOM      4  O3  IDS d 303      82.007  19.598  97.904  0.00  0.00    -0.390 OA
ATOM      5  O3S IDS d 303      83.625  15.158  97.290  0.00  0.00    -0.572 OA
ATOM      6  C1  IDS d 303      84.138  18.278  99.786  0.00  0.00     0.161 C 
ATOM      7  C4  IDS d 303      84.282  20.374  97.602  0.00  0.00     0.103 C 
ATOM      8  O2S IDS d 303      85.987  15.213  96.955  0.00  0.00    -0.572 OA
ATOM      9  C3  IDS d 303      83.271  19.208  97.512  0.00  0.00     0.094 C 
ATOM     10  C5  IDS d 303      84.700  20.542  99.060  0.00  0.00     0.152 C 
ATOM     11  C6  IDS d 303      85.579  21.744  99.260  0.00  0.00     0.206 C 
ATOM     12  O62 IDS d 303      86.780  21.510  99.495  0.00  0.00    -0.646 OA
ATOM     13  O5  IDS d 303      85.004  19.402  99.843  0.00  0.00    -0.340 OA
ATOM     14  C2  IDS d 303      83.731  17.987  98.326  0.00  0.00     0.134 C 
ATOM     15  O1S IDS d 303      85.106  15.332  99.133  0.00  0.00    -0.572 OA
ATOM     16  H   IDS d 303      81.729  20.368  97.384  0.00  0.00     0.210 HD
ATOM     17  H   IDS d 303      84.701  17.464 100.193  0.00  0.00     0.133 H 
ATOM     18  H   IDS d 303      83.823  21.254  97.200  0.00  0.00     0.092 H 
ATOM     19  H   IDS d 303      83.227  18.921  96.482  0.00  0.00     0.091 H 
ATOM     20  H   IDS d 303      83.765  20.745  99.539  0.00  0.00     0.104 H 
ATOM     21  H   IDS d 303      82.888  17.333  98.405  0.00  0.00     0.097 H 
ATOM     22  C3  SGN d 306      76.536  13.585 106.820  0.00  0.00     0.083 C 
ATOM     23  O1S SGN d 306      78.705  10.797 107.860  0.00  0.00    -0.296 OA
ATOM     24  O4S SGN d 306      73.793  14.139 100.079  0.00  0.00    -0.572 OA
ATOM     25  O5S SGN d 306      75.746  15.418 100.451  0.00  0.00    -0.572 OA
ATOM     26  C2  SGN d 306      76.281  12.131 106.454  0.00  0.00     0.081 C 
ATOM     27  O5  SGN d 306      74.916  12.851 104.584  0.00  0.00    -0.350 OA
ATOM     28  C6  SGN d 306      75.034  15.068 103.606  0.00  0.00     0.067 C 
ATOM     29  S2  SGN d 306      74.466  15.034 100.976  0.00  0.00     0.251 S 
ATOM     30  S1  SGN d 306      77.396  10.236 108.081  0.00  0.00     0.156 S 
ATOM     31  O3S SGN d 306      77.254   9.828 109.456  0.00  0.00    -0.296 OA
ATOM     32  O4  SGN d 306      76.776  15.797 105.878  0.00  0.00    -0.348 OA
ATOM     33  O3  SGN d 306      77.785  13.677 107.479  0.00  0.00    -0.391 OA
ATOM     34  O6S SGN d 306      73.667  16.209 101.221  0.00  0.00    -0.572 OA
ATOM     35  C5  SGN d 306      75.141  14.261 104.888  0.00  0.00     0.091 C 
ATOM     36  O1  SGN d 306      73.871  12.189 106.615  0.00  0.00    -0.369 OA
ATOM     37  N   SGN d 306      76.167  11.437 107.706  0.00  0.00    -0.210 NA
ATOM     38  O6  SGN d 306      74.741  14.228 102.511  0.00  0.00    -0.254 OA
ATOM     39  C4  SGN d 306      76.534  14.420 105.535  0.00  0.00     0.095 C 
ATOM     40  O2S SGN d 306      77.171   9.127 107.206  0.00  0.00    -0.296 OA
ATOM     41  C1  SGN d 306      74.946  11.949 105.714  0.00  0.00     0.147 C 
ATOM     42  H   SGN d 306      75.774  13.955 107.474  0.00  0.00     0.089 H 
ATOM     43  H   SGN d 306      78.789  11.068 106.933  0.00  0.00     0.231 HD
ATOM     44  H   SGN d 306      77.065  11.774 105.819  0.00  0.00     0.076 H 
ATOM     45  H   SGN d 306      75.962  15.568 103.427  0.00  0.00     0.080 H 
ATOM     46  H   SGN d 306      74.243  15.781 103.715  0.00  0.00     0.080 H 
ATOM     47  H   SGN d 306      77.409  10.588 110.037  0.00  0.00     0.231 HD
ATOM     48  H   SGN d 306      78.484  13.345 106.894  0.00  0.00     0.210 HD
ATOM     49  H   SGN d 306      74.406  14.620 105.577  0.00  0.00     0.090 H 
ATOM     50  H   SGN d 306      73.925  11.566 107.357  0.00  0.00     0.212 HD
ATOM     51  H   SGN d 306      75.264  10.963 107.712  0.00  0.00     0.140 HD
ATOM     52  H   SGN d 306      77.294  14.101 104.853  0.00  0.00     0.091 H 
ATOM     53  H   SGN d 306      77.269   9.416 106.286  0.00  0.00     0.231 HD
ATOM     54  H   SGN d 306      74.845  10.948 105.348  0.00  0.00     0.131 H 
ATOM     55  C2  UAP d 301      91.334  23.286  96.065  0.00  0.00     0.132 C 
ATOM     56  S   UAP d 301      92.036  25.650  95.173  0.00  0.00     0.252 S 
ATOM     57  O1S UAP d 301      93.322  26.213  95.031  0.00  0.00    -0.572 OA
ATOM     58  C1  UAP d 301      90.599  22.213  95.289  0.00  0.00     0.161 C 
ATOM     59  O61 UAP d 301      93.944  18.996  96.734  0.00  0.00    -0.646 OA
ATOM     60  C5  UAP d 301      92.317  20.641  96.073  0.00  0.00     0.127 C 
ATOM     61  O3  UAP d 301      91.220  23.015  98.405  0.00  0.00    -0.393 OA
ATOM     62  O2  UAP d 301      92.236  23.921  95.225  0.00  0.00    -0.244 OA
ATOM     63  O5  UAP d 301      91.401  21.057  95.076  0.00  0.00    -0.343 OA
ATOM     64  C6  UAP d 301      93.103  19.349  95.882  0.00  0.00     0.203 C 
ATOM     65  O62 UAP d 301      92.873  18.714  94.831  0.00  0.00    -0.646 OA
ATOM     66  O3S UAP d 301      91.220  25.914  94.028  0.00  0.00    -0.572 OA
ATOM     67  O2S UAP d 301      91.426  26.110  96.397  0.00  0.00    -0.572 OA
ATOM     68  C3  UAP d 301      92.101  22.882  97.334  0.00  0.00     0.069 C 
ATOM     69  C4  UAP d 301      92.701  21.449  97.314  0.00  0.00    -0.005 C 
ATOM     70  H   UAP d 301      90.535  23.904  96.416  0.00  0.00     0.097 H 
ATOM     71  H   UAP d 301      90.336  22.553  94.309  0.00  0.00     0.133 H 
ATOM     72  H   UAP d 301      91.282  20.858  96.232  0.00  0.00     0.100 H 
ATOM     73  H   UAP d 301      90.850  23.911  98.411  0.00  0.00     0.210 HD
ATOM     74  H   UAP d 301      92.952  23.527  97.413  0.00  0.00     0.087 H 
ATOM     75  H   UAP d 301      93.768  21.528  97.349  0.00  0.00     0.041 H 
ATOM     76  H   UAP d 301      92.303  20.930  98.161  0.00  0.00     0.041 H 
ATOM     77  O5  IDS d 305      78.907  16.060 104.771  0.00  0.00    -0.340 OA
ATOM     78  O62 IDS d 305      81.425  14.952 104.420  0.00  0.00    -0.646 OA
ATOM     79  C1  IDS d 305      77.608  16.599 105.028  0.00  0.00     0.161 C 
ATOM     80  O3  IDS d 305      78.765  18.510 107.625  0.00  0.00    -0.390 OA
ATOM     81  C6  IDS d 305      81.295  15.660 105.445  0.00  0.00     0.206 C 
ATOM     82  C2  IDS d 305      77.655  18.045 105.589  0.00  0.00     0.134 C 
ATOM     83  C5  IDS d 305      79.998  16.461 105.561  0.00  0.00     0.152 C 
ATOM     84  C3  IDS d 305      78.918  18.610 106.265  0.00  0.00     0.094 C 
ATOM     85  S   IDS d 305      77.295  19.363 103.202  0.00  0.00     0.252 S 
ATOM     86  C4  IDS d 305      80.233  17.941 105.821  0.00  0.00     0.103 C 
ATOM     87  O3S IDS d 305      76.325  20.285 102.738  0.00  0.00    -0.572 OA
ATOM     88  O1S IDS d 305      77.222  18.161 102.450  0.00  0.00    -0.572 OA
ATOM     89  O2  IDS d 305      76.886  19.015 104.890  0.00  0.00    -0.244 OA
ATOM     90  O61 IDS d 305      82.235  15.919 106.215  0.00  0.00    -0.646 OA
ATOM     91  O2S IDS d 305      78.599  19.915 103.139  0.00  0.00    -0.572 OA
ATOM     92  H   IDS d 305      77.160  16.604 104.056  0.00  0.00     0.133 H 
ATOM     93  H   IDS d 305      77.933  18.935 107.889  0.00  0.00     0.210 HD
ATOM     94  H   IDS d 305      77.118  17.791 106.480  0.00  0.00     0.097 H 
ATOM     95  H   IDS d 305      79.551  16.138 106.479  0.00  0.00     0.104 H 
ATOM     96  H   IDS d 305      79.009  19.631 105.957  0.00  0.00     0.091 H 
ATOM     97  H   IDS d 305      80.953  18.077 106.602  0.00  0.00     0.092 H 
ATOM     98  O6  SGN d 304      85.298  17.449 102.894  0.00  0.00    -0.254 OA
ATOM     99  S2  SGN d 304      86.801  16.591 102.652  0.00  0.00     0.251 S 
ATOM    100  O5S SGN d 304      87.864  17.562 102.641  0.00  0.00    -0.572 OA
ATOM    101  N   SGN d 304      80.829  21.111 103.849  0.00  0.00    -0.210 NA
ATOM    102  O3S SGN d 304      81.677  23.253 105.061  0.00  0.00    -0.296 OA
ATOM    103  C6  SGN d 304      84.082  16.720 102.753  0.00  0.00     0.067 C 
ATOM    104  O3  SGN d 304      81.986  20.940 101.306  0.00  0.00    -0.391 OA
ATOM    105  C5  SGN d 304      82.956  17.708 102.925  0.00  0.00     0.091 C 
ATOM    106  O2S SGN d 304      79.412  22.718 105.250  0.00  0.00    -0.296 OA
ATOM    107  O1  SGN d 304      80.709  18.530 104.605  0.00  0.00    -0.348 OA
ATOM    108  O4S SGN d 304      86.987  15.662 103.724  0.00  0.00    -0.572 OA
ATOM    109  C1  SGN d 304      81.994  19.158 104.634  0.00  0.00     0.150 C 
ATOM    110  C3  SGN d 304      81.922  19.836 102.188  0.00  0.00     0.083 C 
ATOM    111  C2  SGN d 304      82.027  20.337 103.632  0.00  0.00     0.081 C 
ATOM    112  S1  SGN d 304      80.735  22.194 105.232  0.00  0.00     0.156 S 
ATOM    113  O6S SGN d 304      86.734  15.908 101.380  0.00  0.00    -0.572 OA
ATOM    114  O1S SGN d 304      81.013  21.489 106.451  0.00  0.00    -0.296 OA
ATOM    115  O5  SGN d 304      83.035  18.230 104.277  0.00  0.00    -0.349 OA
ATOM    116  C4  SGN d 304      83.080  18.880 101.929  0.00  0.00     0.095 C 
ATOM    117  O4  SGN d 304      82.972  18.400 100.580  0.00  0.00    -0.348 OA
ATOM    118  H   SGN d 304      80.060  20.448 103.940  0.00  0.00     0.140 HD
ATOM    119  H   SGN d 304      81.485  23.726 104.236  0.00  0.00     0.231 HD
ATOM    120  H   SGN d 304      84.020  15.958 103.502  0.00  0.00     0.080 H 
ATOM    121  H   SGN d 304      84.030  16.243 101.796  0.00  0.00     0.080 H 
ATOM    122  H   SGN d 304      81.244  21.538 101.483  0.00  0.00     0.210 HD
ATOM    123  H   SGN d 304      82.022  17.218 102.743  0.00  0.00     0.090 H 
ATOM    124  H   SGN d 304      79.241  23.191 104.421  0.00  0.00     0.231 HD
ATOM    125  H   SGN d 304      82.163  19.508 105.632  0.00  0.00     0.131 H 
ATOM    126  H   SGN d 304      80.995  19.326 102.031  0.00  0.00     0.089 H 
ATOM    127  H   SGN d 304      82.935  20.884 103.776  0.00  0.00     0.076 H 
ATOM    128  H   SGN d 304      81.917  21.138 106.423  0.00  0.00     0.231 HD
ATOM    129  H   SGN d 304      84.028  19.362 102.056  0.00  0.00     0.091 H 
ATOM    130  O5S SGN d 302      85.436  26.653  94.234  0.00  0.00    -0.572 OA
ATOM    131  C4  SGN d 302      88.301  21.517  95.424  0.00  0.00     0.095 C 
ATOM    132  O1S SGN d 302      87.562  16.340  93.795  0.00  0.00    -0.296 OA
ATOM    133  O3  SGN d 302      89.164  19.307  95.098  0.00  0.00    -0.391 OA
ATOM    134  O2S SGN d 302      86.169  17.916  92.717  0.00  0.00    -0.296 OA
ATOM    135  C1  SGN d 302      85.612  20.448  95.526  0.00  0.00     0.150 C 
ATOM    136  C5  SGN d 302      87.139  22.295  96.025  0.00  0.00     0.091 C 
ATOM    137  O3S SGN d 302      85.214  16.305  94.130  0.00  0.00    -0.296 OA
ATOM    138  O5  SGN d 302      85.903  21.865  95.395  0.00  0.00    -0.349 OA
ATOM    139  C6  SGN d 302      87.366  23.786  95.820  0.00  0.00     0.067 C 
ATOM    140  S1  SGN d 302      86.367  17.140  93.903  0.00  0.00     0.156 S 
ATOM    141  O4S SGN d 302      84.823  25.948  96.404  0.00  0.00    -0.572 OA
ATOM    142  O6S SGN d 302      87.027  26.691  95.959  0.00  0.00    -0.572 OA
ATOM    143  O4  SGN d 302      89.477  21.912  96.068  0.00  0.00    -0.348 OA
ATOM    144  N   SGN d 302      86.554  18.273  95.248  0.00  0.00    -0.210 NA
ATOM    145  C3  SGN d 302      88.083  20.035  95.653  0.00  0.00     0.083 C 
ATOM    146  C2  SGN d 302      86.791  19.663  94.944  0.00  0.00     0.081 C 
ATOM    147  S2  SGN d 302      85.879  25.995  95.432  0.00  0.00     0.251 S 
ATOM    148  O6  SGN d 302      86.355  24.356  95.019  0.00  0.00    -0.254 OA
ATOM    149  O1  SGN d 302      85.479  20.045  96.888  0.00  0.00    -0.348 OA
ATOM    150  H   SGN d 302      88.370  21.709  94.374  0.00  0.00     0.091 H 
ATOM    151  H   SGN d 302      87.467  15.715  93.059  0.00  0.00     0.231 HD
ATOM    152  H   SGN d 302      89.985  19.548  95.554  0.00  0.00     0.210 HD
ATOM    153  H   SGN d 302      86.062  17.323  91.956  0.00  0.00     0.231 HD
ATOM    154  H   SGN d 302      84.691  20.257  95.016  0.00  0.00     0.131 H 
ATOM    155  H   SGN d 302      87.072  22.108  97.076  0.00  0.00     0.090 H 
ATOM    156  H   SGN d 302      85.113  15.685  93.391  0.00  0.00     0.231 HD
ATOM    157  H   SGN d 302      88.312  23.932  95.342  0.00  0.00     0.080 H 
ATOM    158  H   SGN d 302      87.346  24.264  96.777  0.00  0.00     0.080 H 
ATOM    159  H   SGN d 302      87.342  17.948  95.809  0.00  0.00     0.140 HD
ATOM    160  H   SGN d 302      88.025  19.808  96.697  0.00  0.00     0.089 H 
ATOM    161  H   SGN d 302      86.876  19.868  93.896  0.00  0.00     0.076 H 
ENDROOT
TORSDOF 50
ENDMDL
MODEL 39
REMARK VINA RESULT:     -10.3      4.039     15.815
REMARK  0 active torsions:
REMARK  status: ('A' for Active; 'I' for Inactive)
REMARK       I    between atoms: S_1  and  O2_2 
REMARK       I    between atoms: O2_2  and  C2_99 
REMARK       I    between atoms: C3_3  and  O3_50 
REMARK       I    between atoms: C2_5  and  O2_57 
REMARK       I    between atoms: O1S_6  and  S1_33 
REMARK       I    between atoms: O3_7  and  C3_52 
REMARK       I    between atoms: O6_9  and  C6_34 
REMARK       I    between atoms: O6_9  and  S2_17 
REMARK       I    between atoms: C2_13  and  N_73 
REMARK       I    between atoms: S_16  and  O2_57 
REMARK       I    between atoms: C1_20  and  O4_43 
REMARK       I    between atoms: C6_21  and  C5_67 
REMARK       I    between atoms: C6_21  and  O6_75 
REMARK       I    between atoms: N_22  and  C2_66 
REMARK       I    between atoms: N_22  and  S1_69 
REMARK       I    between atoms: S2_23  and  O6_75 
REMARK       I    between atoms: C1_24  and  O4_78 
REMARK       I    between atoms: C4_25  and  O4_78 
REMARK       I    between atoms: O3_26  and  C3_81 
REMARK       I    between atoms: O1S_27  and  S1_60 
REMARK       I    between atoms: O3S_28  and  S1_69 
REMARK       I    between atoms: O3_29  and  C3_87 
REMARK       I    between atoms: C6_30  and  C5_80 
REMARK       I    between atoms: O2S_32  and  S1_60 
REMARK       I    between atoms: S1_33  and  N_73 
REMARK       I    between atoms: S1_33  and  O2S_94 
REMARK       I    between atoms: S1_33  and  O3S_35 
REMARK       I    between atoms: C6_34  and  C5_38 
REMARK       I    between atoms: C2_36  and  O2_93 
REMARK       I    between atoms: O3_37  and  C3_65 
REMARK       I    between atoms: C1_40  and  O1_105 
REMARK       I    between atoms: O2S_41  and  S1_69 
REMARK       I    between atoms: C5_42  and  C6_54 
REMARK       I    between atoms: O4_43  and  C4_92 
REMARK       I    between atoms: O1_44  and  C1_62 
REMARK       I    between atoms: O1_44  and  C4_83 
REMARK       I    between atoms: C1_45  and  O4_102 
REMARK       I    between atoms: C4_46  and  O1_105 
REMARK       I    between atoms: O3S_47  and  S1_60 
REMARK       I    between atoms: C5_53  and  C6_61 
REMARK       I    between atoms: C6_54  and  O6_98 
REMARK       I    between atoms: O3_56  and  C3_84 
REMARK       I    between atoms: C5_59  and  C6_63 
REMARK       I    between atoms: S1_60  and  N_86 
REMARK       I    between atoms: S1_69  and  O1S_91 
REMARK       I    between atoms: O1_70  and  C1_96 
REMARK       I    between atoms: S_82  and  O2_93 
REMARK       I    between atoms: N_86  and  C2_90 
REMARK       I    between atoms: S2_95  and  O6_98 
REMARK       I    between atoms: C4_100  and  O4_102 
ROOT
ATOM      1  S   IDS d 303      82.861  25.898  98.903  0.00  0.00     0.252 S 
ATOM      2  O2  IDS d 303      83.921  26.300 100.240  0.00  0.00    -0.244 OA
ATOM      3  O61 IDS d 303      88.416  25.898 103.745  0.00  0.00    -0.646 OA
ATOM      4  O3  IDS d 303      83.750  25.366 103.669  0.00  0.00    -0.390 OA
ATOM      5  O3S IDS d 303      81.543  25.712  99.460  0.00  0.00    -0.572 OA
ATOM      6  C1  IDS d 303      84.984  24.289 100.997  0.00  0.00     0.161 C 
ATOM      7  C4  IDS d 303      85.542  26.705 102.740  0.00  0.00     0.103 C 
ATOM      8  O2S IDS d 303      82.897  26.976  97.955  0.00  0.00    -0.572 OA
ATOM      9  C3  IDS d 303      84.106  26.152 102.593  0.00  0.00     0.094 C 
ATOM     10  C5  IDS d 303      86.527  25.602 102.362  0.00  0.00     0.152 C 
ATOM     11  C6  IDS d 303      87.952  26.010 102.608  0.00  0.00     0.206 C 
ATOM     12  O62 IDS d 303      88.638  26.240 101.593  0.00  0.00    -0.646 OA
ATOM     13  O5  IDS d 303      86.290  24.805 101.217  0.00  0.00    -0.340 OA
ATOM     14  C2  IDS d 303      83.924  25.374 101.278  0.00  0.00     0.134 C 
ATOM     15  O1S IDS d 303      83.352  24.696  98.311  0.00  0.00    -0.572 OA
ATOM     16  H   IDS d 303      83.870  25.868 104.491  0.00  0.00     0.210 HD
ATOM     17  H   IDS d 303      84.964  23.995  99.968  0.00  0.00     0.133 H 
ATOM     18  H   IDS d 303      85.673  27.049 103.745  0.00  0.00     0.092 H 
ATOM     19  H   IDS d 303      83.454  27.000 102.568  0.00  0.00     0.091 H 
ATOM     20  H   IDS d 303      86.287  24.836 103.068  0.00  0.00     0.104 H 
ATOM     21  H   IDS d 303      83.002  24.837 101.363  0.00  0.00     0.097 H 
ATOM     22  C3  SGN d 306      80.144  14.024 101.690  0.00  0.00     0.083 C 
ATOM     23  O1S SGN d 306      80.073  13.431  98.055  0.00  0.00    -0.296 OA
ATOM     24  O4S SGN d 306      75.972  19.051 104.944  0.00  0.00    -0.572 OA
ATOM     25  O5S SGN d 306      78.184  19.754 104.495  0.00  0.00    -0.572 OA
ATOM     26  C2  SGN d 306      78.867  13.967 100.865  0.00  0.00     0.081 C 
ATOM     27  O5  SGN d 306      77.713  15.227 102.584  0.00  0.00    -0.350 OA
ATOM     28  C6  SGN d 306      78.844  16.577 104.253  0.00  0.00     0.067 C 
ATOM     29  S2  SGN d 306      77.361  18.693 105.003  0.00  0.00     0.251 S 
ATOM     30  S1  SGN d 306      78.985  12.597  98.501  0.00  0.00     0.156 S 
ATOM     31  O3S SGN d 306      79.207  11.231  98.096  0.00  0.00    -0.296 OA
ATOM     32  O4  SGN d 306      81.363  15.390 103.266  0.00  0.00    -0.348 OA
ATOM     33  O3  SGN d 306      81.255  13.957 100.815  0.00  0.00    -0.391 OA
ATOM     34  O6S SGN d 306      77.750  18.378 106.354  0.00  0.00    -0.572 OA
ATOM     35  C5  SGN d 306      78.916  15.319 103.406  0.00  0.00     0.091 C 
ATOM     36  O1  SGN d 306      77.486  12.861 102.509  0.00  0.00    -0.369 OA
ATOM     37  N   SGN d 306      78.866  12.667 100.254  0.00  0.00    -0.210 NA
ATOM     38  O6  SGN d 306      77.644  17.276 104.006  0.00  0.00    -0.254 OA
ATOM     39  C4  SGN d 306      80.155  15.333 102.485  0.00  0.00     0.095 C 
ATOM     40  O2S SGN d 306      77.741  13.074  97.981  0.00  0.00    -0.296 OA
ATOM     41  C1  SGN d 306      77.610  14.055 101.744  0.00  0.00     0.147 C 
ATOM     42  H   SGN d 306      80.195  13.202 102.374  0.00  0.00     0.089 H 
ATOM     43  H   SGN d 306      79.913  14.347  98.332  0.00  0.00     0.231 HD
ATOM     44  H   SGN d 306      78.847  14.783 100.172  0.00  0.00     0.076 H 
ATOM     45  H   SGN d 306      79.674  17.208 104.014  0.00  0.00     0.080 H 
ATOM     46  H   SGN d 306      78.875  16.298 105.286  0.00  0.00     0.080 H 
ATOM     47  H   SGN d 306      80.053  10.921  98.455  0.00  0.00     0.231 HD
ATOM     48  H   SGN d 306      81.220  14.698 100.190  0.00  0.00     0.210 HD
ATOM     49  H   SGN d 306      78.991  14.475 104.060  0.00  0.00     0.090 H 
ATOM     50  H   SGN d 306      77.419  12.099 101.912  0.00  0.00     0.212 HD
ATOM     51  H   SGN d 306      77.996  12.206 100.520  0.00  0.00     0.140 HD
ATOM     52  H   SGN d 306      80.125  16.188 101.843  0.00  0.00     0.091 H 
ATOM     53  H   SGN d 306      77.605  13.993  98.261  0.00  0.00     0.231 HD
ATOM     54  H   SGN d 306      76.729  14.148 101.144  0.00  0.00     0.131 H 
ATOM     55  C2  UAP d 301      91.182  31.489 100.314  0.00  0.00     0.132 C 
ATOM     56  S   UAP d 301      92.807  33.027 101.682  0.00  0.00     0.252 S 
ATOM     57  O1S UAP d 301      93.915  33.781 101.241  0.00  0.00    -0.572 OA
ATOM     58  C1  UAP d 301      89.688  31.679 100.150  0.00  0.00     0.161 C 
ATOM     59  O61 UAP d 301      90.229  31.117  95.352  0.00  0.00    -0.646 OA
ATOM     60  C5  UAP d 301      90.037  31.368  97.737  0.00  0.00     0.127 C 
ATOM     61  O3  UAP d 301      91.919  29.298  99.847  0.00  0.00    -0.393 OA
ATOM     62  O2  UAP d 301      91.806  32.727 100.289  0.00  0.00    -0.244 OA
ATOM     63  O5  UAP d 301      89.326  31.971  98.804  0.00  0.00    -0.343 OA
ATOM     64  C6  UAP d 301      89.585  31.607  96.302  0.00  0.00     0.203 C 
ATOM     65  O62 UAP d 301      88.577  32.332  96.154  0.00  0.00    -0.646 OA
ATOM     66  O3S UAP d 301      91.995  33.772 102.593  0.00  0.00    -0.572 OA
ATOM     67  O2S UAP d 301      93.252  31.775 102.244  0.00  0.00    -0.572 OA
ATOM     68  C3  UAP d 301      91.923  30.586  99.316  0.00  0.00     0.069 C 
ATOM     69  C4  UAP d 301      91.334  30.570  97.878  0.00  0.00    -0.005 C 
ATOM     70  H   UAP d 301      91.246  30.972 101.248  0.00  0.00     0.097 H 
ATOM     71  H   UAP d 301      89.337  32.516 100.719  0.00  0.00     0.133 H 
ATOM     72  H   UAP d 301      89.608  30.850  98.569  0.00  0.00     0.100 H 
ATOM     73  H   UAP d 301      92.288  29.317 100.743  0.00  0.00     0.210 HD
ATOM     74  H   UAP d 301      92.909  30.984  99.196  0.00  0.00     0.087 H 
ATOM     75  H   UAP d 301      92.060  30.985  97.210  0.00  0.00     0.041 H 
ATOM     76  H   UAP d 301      91.102  29.552  97.645  0.00  0.00     0.041 H 
ATOM     77  O5  IDS d 305      82.386  17.291 102.183  0.00  0.00    -0.340 OA
ATOM     78  O62 IDS d 305      83.058  18.408  99.735  0.00  0.00    -0.646 OA
ATOM     79  C1  IDS d 305      82.050  16.641 103.410  0.00  0.00     0.161 C 
ATOM     80  O3  IDS d 305      85.129  15.154 103.625  0.00  0.00    -0.390 OA
ATOM     81  C6  IDS d 305      83.880  17.575 100.181  0.00  0.00     0.206 C 
ATOM     82  C2  IDS d 305      83.275  16.437 104.341  0.00  0.00     0.134 C 
ATOM     83  C5  IDS d 305      83.659  17.103 101.619  0.00  0.00     0.152 C 
ATOM     84  C3  IDS d 305      84.716  16.451 103.796  0.00  0.00     0.094 C 
ATOM     85  S   IDS d 305      82.920  18.680 105.891  0.00  0.00     0.252 S 
ATOM     86  C4  IDS d 305      84.897  17.250 102.491  0.00  0.00     0.103 C 
ATOM     87  O3S IDS d 305      82.737  18.882 107.281  0.00  0.00    -0.572 OA
ATOM     88  O1S IDS d 305      81.760  19.092 105.184  0.00  0.00    -0.572 OA
ATOM     89  O2  IDS d 305      83.149  16.938 105.665  0.00  0.00    -0.244 OA
ATOM     90  O61 IDS d 305      84.958  17.316  99.620  0.00  0.00    -0.646 OA
ATOM     91  O2S IDS d 305      84.065  19.370 105.419  0.00  0.00    -0.572 OA
ATOM     92  H   IDS d 305      81.366  17.329 103.861  0.00  0.00     0.133 H 
ATOM     93  H   IDS d 305      85.009  14.664 104.454  0.00  0.00     0.210 HD
ATOM     94  H   IDS d 305      83.152  15.374 104.387  0.00  0.00     0.097 H 
ATOM     95  H   IDS d 305      83.557  16.039 101.550  0.00  0.00     0.104 H 
ATOM     96  H   IDS d 305      85.319  16.961 104.518  0.00  0.00     0.091 H 
ATOM     97  H   IDS d 305      85.761  16.869 101.988  0.00  0.00     0.092 H 
ATOM     98  O6  SGN d 304      86.463  21.818  99.153  0.00  0.00    -0.254 OA
ATOM     99  S2  SGN d 304      86.719  22.477  97.554  0.00  0.00     0.251 S 
ATOM    100  O5S SGN d 304      88.015  23.103  97.540  0.00  0.00    -0.572 OA
ATOM    101  N   SGN d 304      86.536  19.866 104.673  0.00  0.00    -0.210 NA
ATOM    102  O3S SGN d 304      88.993  19.539 105.469  0.00  0.00    -0.296 OA
ATOM    103  C6  SGN d 304      85.168  21.313  99.467  0.00  0.00     0.067 C 
ATOM    104  O3  SGN d 304      86.063  22.575 104.147  0.00  0.00    -0.391 OA
ATOM    105  C5  SGN d 304      85.201  20.895 100.916  0.00  0.00     0.091 C 
ATOM    106  O2S SGN d 304      87.319  18.352 106.583  0.00  0.00    -0.296 OA
ATOM    107  O1  SGN d 304      85.068  18.644 102.776  0.00  0.00    -0.348 OA
ATOM    108  O4S SGN d 304      86.671  21.413  96.598  0.00  0.00    -0.572 OA
ATOM    109  C1  SGN d 304      86.291  19.258 102.359  0.00  0.00     0.150 C 
ATOM    110  C3  SGN d 304      85.664  21.547 103.261  0.00  0.00     0.083 C 
ATOM    111  C2  SGN d 304      86.671  20.395 103.338  0.00  0.00     0.081 C 
ATOM    112  S1  SGN d 304      87.781  18.800 105.314  0.00  0.00     0.156 S 
ATOM    113  O6S SGN d 304      85.688  23.455  97.295  0.00  0.00    -0.572 OA
ATOM    114  O1S SGN d 304      87.998  17.687 104.435  0.00  0.00    -0.296 OA
ATOM    115  O5  SGN d 304      86.168  19.818 101.038  0.00  0.00    -0.349 OA
ATOM    116  C4  SGN d 304      85.635  22.062 101.827  0.00  0.00     0.095 C 
ATOM    117  O4  SGN d 304      84.681  23.132 101.754  0.00  0.00    -0.348 OA
ATOM    118  H   SGN d 304      85.659  19.347 104.700  0.00  0.00     0.140 HD
ATOM    119  H   SGN d 304      88.840  20.290 106.064  0.00  0.00     0.231 HD
ATOM    120  H   SGN d 304      84.940  20.471  98.847  0.00  0.00     0.080 H 
ATOM    121  H   SGN d 304      84.416  22.055  99.300  0.00  0.00     0.080 H 
ATOM    122  H   SGN d 304      86.077  22.232 105.054  0.00  0.00     0.210 HD
ATOM    123  H   SGN d 304      84.223  20.586 101.219  0.00  0.00     0.090 H 
ATOM    124  H   SGN d 304      87.177  19.116 107.164  0.00  0.00     0.231 HD
ATOM    125  H   SGN d 304      87.048  18.502 102.350  0.00  0.00     0.131 H 
ATOM    126  H   SGN d 304      84.686  21.215 103.542  0.00  0.00     0.089 H 
ATOM    127  H   SGN d 304      87.655  20.739 103.099  0.00  0.00     0.076 H 
ATOM    128  H   SGN d 304      88.312  18.009 103.576  0.00  0.00     0.231 HD
ATOM    129  H   SGN d 304      86.594  22.424 101.517  0.00  0.00     0.091 H 
ATOM    130  O5S SGN d 302      89.000  31.395 107.000  0.00  0.00    -0.572 OA
ATOM    131  C4  SGN d 302      87.864  30.496 101.178  0.00  0.00     0.095 C 
ATOM    132  O1S SGN d 302      83.284  30.655  98.177  0.00  0.00    -0.296 OA
ATOM    133  O3  SGN d 302      86.793  30.710  99.047  0.00  0.00    -0.391 OA
ATOM    134  O2S SGN d 302      83.014  31.361 100.416  0.00  0.00    -0.296 OA
ATOM    135  C1  SGN d 302      85.536  29.113 102.204  0.00  0.00     0.150 C 
ATOM    136  C5  SGN d 302      87.916  29.639 102.435  0.00  0.00     0.091 C 
ATOM    137  O3S SGN d 302      81.952  29.401  99.687  0.00  0.00    -0.296 OA
ATOM    138  O5  SGN d 302      86.601  29.621 103.051  0.00  0.00    -0.349 OA
ATOM    139  C6  SGN d 302      88.959  30.203 103.390  0.00  0.00     0.067 C 
ATOM    140  S1  SGN d 302      83.122  30.231  99.546  0.00  0.00     0.156 S 
ATOM    141  O4S SGN d 302      89.070  29.070 106.582  0.00  0.00    -0.572 OA
ATOM    142  O6S SGN d 302      90.736  30.502 105.697  0.00  0.00    -0.572 OA
ATOM    143  O4  SGN d 302      89.124  30.472 100.574  0.00  0.00    -0.348 OA
ATOM    144  N   SGN d 302      84.557  29.322 100.038  0.00  0.00    -0.210 NA
ATOM    145  C3  SGN d 302      86.843  29.917 100.219  0.00  0.00     0.083 C 
ATOM    146  C2  SGN d 302      85.498  29.958 100.928  0.00  0.00     0.081 C 
ATOM    147  S2  SGN d 302      89.343  30.375 106.047  0.00  0.00     0.251 S 
ATOM    148  O6  SGN d 302      88.374  30.621 104.603  0.00  0.00    -0.254 OA
ATOM    149  O1  SGN d 302      85.762  27.763 101.800  0.00  0.00    -0.348 OA
ATOM    150  H   SGN d 302      87.591  31.500 101.427  0.00  0.00     0.091 H 
ATOM    151  H   SGN d 302      82.500  31.155  97.899  0.00  0.00     0.231 HD
ATOM    152  H   SGN d 302      87.652  30.680  98.599  0.00  0.00     0.210 HD
ATOM    153  H   SGN d 302      82.234  31.884 100.173  0.00  0.00     0.231 HD
ATOM    154  H   SGN d 302      84.626  29.160 102.764  0.00  0.00     0.131 H 
ATOM    155  H   SGN d 302      88.194  28.636 102.188  0.00  0.00     0.090 H 
ATOM    156  H   SGN d 302      81.166  29.901  99.417  0.00  0.00     0.231 HD
ATOM    157  H   SGN d 302      89.438  31.040 102.928  0.00  0.00     0.080 H 
ATOM    158  H   SGN d 302      89.668  29.431 103.607  0.00  0.00     0.080 H 
ATOM    159  H   SGN d 302      85.065  29.076  99.188  0.00  0.00     0.140 HD
ATOM    160  H   SGN d 302      87.096  28.916  99.940  0.00  0.00     0.089 H 
ATOM    161  H   SGN d 302      85.244  30.969 101.175  0.00  0.00     0.076 H 
ENDROOT
TORSDOF 50
ENDMDL
MODEL 40
REMARK VINA RESULT:     -10.3      4.430      7.268
REMARK  0 active torsions:
REMARK  status: ('A' for Active; 'I' for Inactive)
REMARK       I    between atoms: S_1  and  O2_2 
REMARK       I    between atoms: O2_2  and  C2_99 
REMARK       I    between atoms: C3_3  and  O3_50 
REMARK       I    between atoms: C2_5  and  O2_57 
REMARK       I    between atoms: O1S_6  and  S1_33 
REMARK       I    between atoms: O3_7  and  C3_52 
REMARK       I    between atoms: O6_9  and  C6_34 
REMARK       I    between atoms: O6_9  and  S2_17 
REMARK       I    between atoms: C2_13  and  N_73 
REMARK       I    between atoms: S_16  and  O2_57 
REMARK       I    between atoms: C1_20  and  O4_43 
REMARK       I    between atoms: C6_21  and  C5_67 
REMARK       I    between atoms: C6_21  and  O6_75 
REMARK       I    between atoms: N_22  and  C2_66 
REMARK       I    between atoms: N_22  and  S1_69 
REMARK       I    between atoms: S2_23  and  O6_75 
REMARK       I    between atoms: C1_24  and  O4_78 
REMARK       I    between atoms: C4_25  and  O4_78 
REMARK       I    between atoms: O3_26  and  C3_81 
REMARK       I    between atoms: O1S_27  and  S1_60 
REMARK       I    between atoms: O3S_28  and  S1_69 
REMARK       I    between atoms: O3_29  and  C3_87 
REMARK       I    between atoms: C6_30  and  C5_80 
REMARK       I    between atoms: O2S_32  and  S1_60 
REMARK       I    between atoms: S1_33  and  N_73 
REMARK       I    between atoms: S1_33  and  O2S_94 
REMARK       I    between atoms: S1_33  and  O3S_35 
REMARK       I    between atoms: C6_34  and  C5_38 
REMARK       I    between atoms: C2_36  and  O2_93 
REMARK       I    between atoms: O3_37  and  C3_65 
REMARK       I    between atoms: C1_40  and  O1_105 
REMARK       I    between atoms: O2S_41  and  S1_69 
REMARK       I    between atoms: C5_42  and  C6_54 
REMARK       I    between atoms: O4_43  and  C4_92 
REMARK       I    between atoms: O1_44  and  C1_62 
REMARK       I    between atoms: O1_44  and  C4_83 
REMARK       I    between atoms: C1_45  and  O4_102 
REMARK       I    between atoms: C4_46  and  O1_105 
REMARK       I    between atoms: O3S_47  and  S1_60 
REMARK       I    between atoms: C5_53  and  C6_61 
REMARK       I    between atoms: C6_54  and  O6_98 
REMARK       I    between atoms: O3_56  and  C3_84 
REMARK       I    between atoms: C5_59  and  C6_63 
REMARK       I    between atoms: S1_60  and  N_86 
REMARK       I    between atoms: S1_69  and  O1S_91 
REMARK       I    between atoms: O1_70  and  C1_96 
REMARK       I    between atoms: S_82  and  O2_93 
REMARK       I    between atoms: N_86  and  C2_90 
REMARK       I    between atoms: S2_95  and  O6_98 
REMARK       I    between atoms: C4_100  and  O4_102 
ROOT
ATOM      1  S   IDS d 303      76.477  21.719  99.440  0.00  0.00     0.252 S 
ATOM      2  O2  IDS d 303      76.887  20.015  99.470  0.00  0.00    -0.244 OA
ATOM      3  O61 IDS d 303      77.471  14.741 101.591  0.00  0.00    -0.646 OA
ATOM      4  O3  IDS d 303      79.998  18.409 100.102  0.00  0.00    -0.390 OA
ATOM      5  O3S IDS d 303      77.666  22.424  99.029  0.00  0.00    -0.572 OA
ATOM      6  C1  IDS d 303      77.504  19.421 101.709  0.00  0.00     0.161 C 
ATOM      7  C4  IDS d 303      77.938  17.206  99.686  0.00  0.00     0.103 C 
ATOM      8  O2S IDS d 303      75.392  21.909  98.518  0.00  0.00    -0.572 OA
ATOM      9  C3  IDS d 303      78.725  18.532  99.586  0.00  0.00     0.094 C 
ATOM     10  C5  IDS d 303      77.428  17.052 101.117  0.00  0.00     0.152 C 
ATOM     11  C6  IDS d 303      76.766  15.722 101.340  0.00  0.00     0.206 C 
ATOM     12  O62 IDS d 303      75.527  15.741 101.463  0.00  0.00    -0.646 OA
ATOM     13  O5  IDS d 303      76.854  18.160 101.785  0.00  0.00    -0.340 OA
ATOM     14  C2  IDS d 303      77.980  19.693 100.267  0.00  0.00     0.134 C 
ATOM     15  O1S IDS d 303      76.081  22.089 100.760  0.00  0.00    -0.572 OA
ATOM     16  H   IDS d 303      80.456  17.674  99.665  0.00  0.00     0.210 HD
ATOM     17  H   IDS d 303      76.769  20.139 102.008  0.00  0.00     0.133 H 
ATOM     18  H   IDS d 303      78.582  16.404  99.389  0.00  0.00     0.092 H 
ATOM     19  H   IDS d 303      78.808  18.759  98.543  0.00  0.00     0.091 H 
ATOM     20  H   IDS d 303      78.337  17.056 101.680  0.00  0.00     0.104 H 
ATOM     21  H   IDS d 303      78.681  20.497 100.360  0.00  0.00     0.097 H 
ATOM     22  C3  SGN d 306      83.472  25.868 108.927  0.00  0.00     0.083 C 
ATOM     23  O1S SGN d 306      80.750  28.261 109.582  0.00  0.00    -0.296 OA
ATOM     24  O4S SGN d 306      86.862  25.427 102.478  0.00  0.00    -0.572 OA
ATOM     25  O5S SGN d 306      85.147  23.831 102.796  0.00  0.00    -0.572 OA
ATOM     26  C2  SGN d 306      83.492  27.320 108.472  0.00  0.00     0.081 C 
ATOM     27  O5  SGN d 306      85.126  26.755 106.772  0.00  0.00    -0.350 OA
ATOM     28  C6  SGN d 306      85.499  24.499 105.961  0.00  0.00     0.067 C 
ATOM     29  S2  SGN d 306      86.284  24.478 103.387  0.00  0.00     0.251 S 
ATOM     30  S1  SGN d 306      81.912  29.069 109.859  0.00  0.00     0.156 S 
ATOM     31  O3S SGN d 306      81.853  29.579 111.206  0.00  0.00    -0.296 OA
ATOM     32  O4  SGN d 306      83.721  23.597 108.140  0.00  0.00    -0.348 OA
ATOM     33  O3  SGN d 306      82.206  25.585 109.493  0.00  0.00    -0.391 OA
ATOM     34  O6S SGN d 306      87.257  23.490 103.781  0.00  0.00    -0.572 OA
ATOM     35  C5  SGN d 306      85.133  25.349 107.165  0.00  0.00     0.091 C 
ATOM     36  O1  SGN d 306      85.848  27.722 108.822  0.00  0.00    -0.369 OA
ATOM     37  N   SGN d 306      83.365  28.097 109.672  0.00  0.00    -0.210 NA
ATOM     38  O6  SGN d 306      85.732  25.311 104.830  0.00  0.00    -0.254 OA
ATOM     39  C4  SGN d 306      83.740  24.972 107.713  0.00  0.00     0.095 C 
ATOM     40  O2S SGN d 306      82.010  30.145 108.922  0.00  0.00    -0.296 OA
ATOM     41  C1  SGN d 306      84.832  27.702 107.824  0.00  0.00     0.147 C 
ATOM     42  H   SGN d 306      84.227  25.688 109.663  0.00  0.00     0.089 H 
ATOM     43  H   SGN d 306      80.800  27.923 108.674  0.00  0.00     0.231 HD
ATOM     44  H   SGN d 306      82.716  27.484 107.753  0.00  0.00     0.076 H 
ATOM     45  H   SGN d 306      84.696  23.824 105.749  0.00  0.00     0.080 H 
ATOM     46  H   SGN d 306      86.392  23.954 106.183  0.00  0.00     0.080 H 
ATOM     47  H   SGN d 306      81.787  28.840 111.829  0.00  0.00     0.231 HD
ATOM     48  H   SGN d 306      81.514  25.745 108.832  0.00  0.00     0.210 HD
ATOM     49  H   SGN d 306      85.857  25.175 107.933  0.00  0.00     0.090 H 
ATOM     50  H   SGN d 306      85.616  28.368 109.507  0.00  0.00     0.212 HD
ATOM     51  H   SGN d 306      84.164  28.731 109.711  0.00  0.00     0.140 HD
ATOM     52  H   SGN d 306      82.999  25.102 106.953  0.00  0.00     0.091 H 
ATOM     53  H   SGN d 306      82.048  29.787 108.022  0.00  0.00     0.231 HD
ATOM     54  H   SGN d 306      84.783  28.680 107.392  0.00  0.00     0.131 H 
ATOM     55  C2  UAP d 301      71.694  12.941  97.840  0.00  0.00     0.132 C 
ATOM     56  S   UAP d 301      71.514  10.438  97.079  0.00  0.00     0.252 S 
ATOM     57  O1S UAP d 301      70.369   9.638  96.882  0.00  0.00    -0.572 OA
ATOM     58  C1  UAP d 301      72.289  14.083  97.043  0.00  0.00     0.161 C 
ATOM     59  O61 UAP d 301      68.302  16.702  97.977  0.00  0.00    -0.646 OA
ATOM     60  C5  UAP d 301      70.252  15.352  97.570  0.00  0.00     0.127 C 
ATOM     61  O3  UAP d 301      71.547  13.371 100.154  0.00  0.00    -0.393 OA
ATOM     62  O2  UAP d 301      71.000  12.099  96.984  0.00  0.00    -0.244 OA
ATOM     63  O5  UAP d 301      71.314  15.054  96.681  0.00  0.00    -0.343 OA
ATOM     64  C6  UAP d 301      69.266  16.460  97.222  0.00  0.00     0.203 C 
ATOM     65  O62 UAP d 301      69.471  17.062  96.145  0.00  0.00    -0.646 OA
ATOM     66  O3S UAP d 301      72.463  10.262  96.024  0.00  0.00    -0.572 OA
ATOM     67  O2S UAP d 301      72.085  10.175  98.378  0.00  0.00    -0.572 OA
ATOM     68  C3  UAP d 301      70.757  13.271  99.011  0.00  0.00     0.069 C 
ATOM     69  C4  UAP d 301      69.911  14.564  98.836  0.00  0.00    -0.005 C 
ATOM     70  H   UAP d 301      72.557  12.505  98.297  0.00  0.00     0.097 H 
ATOM     71  H   UAP d 301      72.696  13.739  96.114  0.00  0.00     0.133 H 
ATOM     72  H   UAP d 301      71.291  15.343  97.824  0.00  0.00     0.100 H 
ATOM     73  H   UAP d 301      72.071  12.561 100.256  0.00  0.00     0.210 HD
ATOM     74  H   UAP d 301      70.033  12.486  99.074  0.00  0.00     0.087 H 
ATOM     75  H   UAP d 301      68.878  14.289  98.795  0.00  0.00     0.041 H 
ATOM     76  H   UAP d 301      70.131  15.198  99.669  0.00  0.00     0.041 H 
ATOM     77  O5  IDS d 305      81.780  22.875 106.896  0.00  0.00    -0.340 OA
ATOM     78  O62 IDS d 305      79.145  23.470 106.270  0.00  0.00    -0.646 OA
ATOM     79  C1  IDS d 305      83.127  22.604 107.293  0.00  0.00     0.161 C 
ATOM     80  O3  IDS d 305      82.107  20.673 109.932  0.00  0.00    -0.390 OA
ATOM     81  C6  IDS d 305      79.309  22.863 107.353  0.00  0.00     0.206 C 
ATOM     82  C2  IDS d 305      83.293  21.212 107.958  0.00  0.00     0.134 C 
ATOM     83  C5  IDS d 305      80.714  22.327 107.629  0.00  0.00     0.152 C 
ATOM     84  C3  IDS d 305      82.097  20.463 108.576  0.00  0.00     0.094 C 
ATOM     85  S   IDS d 305      84.097  19.842 105.713  0.00  0.00     0.252 S 
ATOM     86  C4  IDS d 305      80.727  20.847 107.983  0.00  0.00     0.103 C 
ATOM     87  O3S IDS d 305      85.255  19.090 105.396  0.00  0.00    -0.572 OA
ATOM     88  O1S IDS d 305      84.019  20.987 104.879  0.00  0.00    -0.572 OA
ATOM     89  O2  IDS d 305      84.283  20.362 107.396  0.00  0.00    -0.244 OA
ATOM     90  O61 IDS d 305      78.366  22.480 108.066  0.00  0.00    -0.646 OA
ATOM     91  O2S IDS d 305      82.925  19.053 105.592  0.00  0.00    -0.572 OA
ATOM     92  H   IDS d 305      83.654  22.624 106.362  0.00  0.00     0.133 H 
ATOM     93  H   IDS d 305      82.975  20.427 110.291  0.00  0.00     0.210 HD
ATOM     94  H   IDS d 305      83.693  21.615 108.865  0.00  0.00     0.097 H 
ATOM     95  H   IDS d 305      81.011  22.782 108.551  0.00  0.00     0.104 H 
ATOM     96  H   IDS d 305      82.220  19.426 108.340  0.00  0.00     0.091 H 
ATOM     97  H   IDS d 305      79.978  20.627 108.714  0.00  0.00     0.092 H 
ATOM     98  O6  SGN d 304      75.940  20.206 104.647  0.00  0.00    -0.254 OA
ATOM     99  S2  SGN d 304      74.334  20.753 104.224  0.00  0.00     0.251 S 
ATOM    100  O5S SGN d 304      73.470  19.602 104.206  0.00  0.00    -0.572 OA
ATOM    101  N   SGN d 304      80.893  17.507 106.219  0.00  0.00    -0.210 NA
ATOM    102  O3S SGN d 304      80.341  15.323 107.521  0.00  0.00    -0.296 OA
ATOM    103  C6  SGN d 304      77.012  21.140 104.543  0.00  0.00     0.067 C 
ATOM    104  O3  SGN d 304      79.956  17.305 103.588  0.00  0.00    -0.391 OA
ATOM    105  C5  SGN d 304      78.278  20.391 104.876  0.00  0.00     0.091 C 
ATOM    106  O2S SGN d 304      82.446  16.281 107.842  0.00  0.00    -0.296 OA
ATOM    107  O1  SGN d 304      80.476  20.106 106.782  0.00  0.00    -0.348 OA
ATOM    108  O4S SGN d 304      73.888  21.694 105.206  0.00  0.00    -0.572 OA
ATOM    109  C1  SGN d 304      79.329  19.253 106.760  0.00  0.00     0.150 C 
ATOM    110  C3  SGN d 304      79.741  18.453 104.386  0.00  0.00     0.083 C 
ATOM    111  C2  SGN d 304      79.600  18.029 105.852  0.00  0.00     0.081 C 
ATOM    112  S1  SGN d 304      81.057  16.547 107.683  0.00  0.00     0.156 S 
ATOM    113  O6S SGN d 304      74.391  21.358 102.913  0.00  0.00    -0.572 OA
ATOM    114  O1S SGN d 304      80.549  17.261 108.819  0.00  0.00    -0.296 OA
ATOM    115  O5  SGN d 304      78.173  19.947 106.255  0.00  0.00    -0.349 OA
ATOM    116  C4  SGN d 304      78.457  19.158 103.966  0.00  0.00     0.095 C 
ATOM    117  O4  SGN d 304      78.597  19.567 102.597  0.00  0.00    -0.348 OA
ATOM    118  H   SGN d 304      81.519  18.306 106.317  0.00  0.00     0.140 HD
ATOM    119  H   SGN d 304      80.689  14.844 106.752  0.00  0.00     0.231 HD
ATOM    120  H   SGN d 304      76.868  21.944 105.235  0.00  0.00     0.080 H 
ATOM    121  H   SGN d 304      77.062  21.559 103.560  0.00  0.00     0.080 H 
ATOM    122  H   SGN d 304      80.776  16.867 103.867  0.00  0.00     0.210 HD
ATOM    123  H   SGN d 304      79.120  21.035 104.730  0.00  0.00     0.090 H 
ATOM    124  H   SGN d 304      82.773  15.798 107.067  0.00  0.00     0.231 HD
ATOM    125  H   SGN d 304      79.138  18.938 107.765  0.00  0.00     0.131 H 
ATOM    126  H   SGN d 304      80.571  19.116 104.261  0.00  0.00     0.089 H 
ATOM    127  H   SGN d 304      78.796  17.333 105.966  0.00  0.00     0.076 H 
ATOM    128  H   SGN d 304      79.603  17.434 108.695  0.00  0.00     0.231 HD
ATOM    129  H   SGN d 304      77.605  18.517 104.057  0.00  0.00     0.091 H 
ATOM    130  O5S SGN d 302      78.243  10.629  96.728  0.00  0.00    -0.572 OA
ATOM    131  C4  SGN d 302      74.403  15.202  97.300  0.00  0.00     0.095 C 
ATOM    132  O1S SGN d 302      74.337  20.318  95.342  0.00  0.00    -0.296 OA
ATOM    133  O3  SGN d 302      73.187  17.189  96.741  0.00  0.00    -0.391 OA
ATOM    134  O2S SGN d 302      76.082  18.967  94.498  0.00  0.00    -0.296 OA
ATOM    135  C1  SGN d 302      76.834  16.759  97.526  0.00  0.00     0.150 C 
ATOM    136  C5  SGN d 302      75.627  14.693  98.046  0.00  0.00     0.091 C 
ATOM    137  O3S SGN d 302      76.600  20.810  95.852  0.00  0.00    -0.296 OA
ATOM    138  O5  SGN d 302      76.816  15.307  97.482  0.00  0.00    -0.349 OA
ATOM    139  C6  SGN d 302      75.693  13.176  97.938  0.00  0.00     0.067 C 
ATOM    140  S1  SGN d 302      75.642  19.763  95.602  0.00  0.00     0.156 S 
ATOM    141  O4S SGN d 302      78.522  11.566  98.879  0.00  0.00    -0.572 OA
ATOM    142  O6S SGN d 302      76.537  10.399  98.324  0.00  0.00    -0.572 OA
ATOM    143  O4  SGN d 302      73.264  14.635  97.880  0.00  0.00    -0.348 OA
ATOM    144  N   SGN d 302      75.543  18.699  97.011  0.00  0.00    -0.210 NA
ATOM    145  C3  SGN d 302      74.327  16.710  97.432  0.00  0.00     0.083 C 
ATOM    146  C2  SGN d 302      75.589  17.273  96.797  0.00  0.00     0.081 C 
ATOM    147  S2  SGN d 302      77.583  11.264  97.836  0.00  0.00     0.251 S 
ATOM    148  O6  SGN d 302      76.858  12.758  97.263  0.00  0.00    -0.254 OA
ATOM    149  O1  SGN d 302      76.769  17.262  98.860  0.00  0.00    -0.348 OA
ATOM    150  H   SGN d 302      74.464  14.937  96.266  0.00  0.00     0.091 H 
ATOM    151  H   SGN d 302      74.382  20.903  94.570  0.00  0.00     0.231 HD
ATOM    152  H   SGN d 302      72.385  16.827  97.150  0.00  0.00     0.210 HD
ATOM    153  H   SGN d 302      76.147  19.522  93.704  0.00  0.00     0.231 HD
ATOM    154  H   SGN d 302      77.747  17.087  97.076  0.00  0.00     0.131 H 
ATOM    155  H   SGN d 302      75.565  14.953  99.082  0.00  0.00     0.090 H 
ATOM    156  H   SGN d 302      76.653  21.392  95.078  0.00  0.00     0.231 HD
ATOM    157  H   SGN d 302      74.836  12.828  97.402  0.00  0.00     0.080 H 
ATOM    158  H   SGN d 302      75.713  12.770  98.928  0.00  0.00     0.080 H 
ATOM    159  H   SGN d 302      74.662  18.905  97.484  0.00  0.00     0.140 HD
ATOM    160  H   SGN d 302      74.250  17.008  98.456  0.00  0.00     0.089 H 
ATOM    161  H   SGN d 302      75.637  16.992  95.765  0.00  0.00     0.076 H 
ENDROOT
TORSDOF 50
ENDMDL
MODEL 41
REMARK VINA RESULT:     -10.3      4.860      9.570
REMARK  0 active torsions:
REMARK  status: ('A' for Active; 'I' for Inactive)
REMARK       I    between atoms: S_1  and  O2_2 
REMARK       I    between atoms: O2_2  and  C2_99 
REMARK       I    between atoms: C3_3  and  O3_50 
REMARK       I    between atoms: C2_5  and  O2_57 
REMARK       I    between atoms: O1S_6  and  S1_33 
REMARK       I    between atoms: O3_7  and  C3_52 
REMARK       I    between atoms: O6_9  and  C6_34 
REMARK       I    between atoms: O6_9  and  S2_17 
REMARK       I    between atoms: C2_13  and  N_73 
REMARK       I    between atoms: S_16  and  O2_57 
REMARK       I    between atoms: C1_20  and  O4_43 
REMARK       I    between atoms: C6_21  and  C5_67 
REMARK       I    between atoms: C6_21  and  O6_75 
REMARK       I    between atoms: N_22  and  C2_66 
REMARK       I    between atoms: N_22  and  S1_69 
REMARK       I    between atoms: S2_23  and  O6_75 
REMARK       I    between atoms: C1_24  and  O4_78 
REMARK       I    between atoms: C4_25  and  O4_78 
REMARK       I    between atoms: O3_26  and  C3_81 
REMARK       I    between atoms: O1S_27  and  S1_60 
REMARK       I    between atoms: O3S_28  and  S1_69 
REMARK       I    between atoms: O3_29  and  C3_87 
REMARK       I    between atoms: C6_30  and  C5_80 
REMARK       I    between atoms: O2S_32  and  S1_60 
REMARK       I    between atoms: S1_33  and  N_73 
REMARK       I    between atoms: S1_33  and  O2S_94 
REMARK       I    between atoms: S1_33  and  O3S_35 
REMARK       I    between atoms: C6_34  and  C5_38 
REMARK       I    between atoms: C2_36  and  O2_93 
REMARK       I    between atoms: O3_37  and  C3_65 
REMARK       I    between atoms: C1_40  and  O1_105 
REMARK       I    between atoms: O2S_41  and  S1_69 
REMARK       I    between atoms: C5_42  and  C6_54 
REMARK       I    between atoms: O4_43  and  C4_92 
REMARK       I    between atoms: O1_44  and  C1_62 
REMARK       I    between atoms: O1_44  and  C4_83 
REMARK       I    between atoms: C1_45  and  O4_102 
REMARK       I    between atoms: C4_46  and  O1_105 
REMARK       I    between atoms: O3S_47  and  S1_60 
REMARK       I    between atoms: C5_53  and  C6_61 
REMARK       I    between atoms: C6_54  and  O6_98 
REMARK       I    between atoms: O3_56  and  C3_84 
REMARK       I    between atoms: C5_59  and  C6_63 
REMARK       I    between atoms: S1_60  and  N_86 
REMARK       I    between atoms: S1_69  and  O1S_91 
REMARK       I    between atoms: O1_70  and  C1_96 
REMARK       I    between atoms: S_82  and  O2_93 
REMARK       I    between atoms: N_86  and  C2_90 
REMARK       I    between atoms: S2_95  and  O6_98 
REMARK       I    between atoms: C4_100  and  O4_102 
ROOT
ATOM      1  S   IDS d 303      88.572  20.673 101.836  0.00  0.00     0.252 S 
ATOM      2  O2  IDS d 303      87.112  20.969 102.759  0.00  0.00    -0.244 OA
ATOM      3  O61 IDS d 303      81.652  22.339 103.744  0.00  0.00    -0.646 OA
ATOM      4  O3  IDS d 303      86.024  23.897 104.463  0.00  0.00    -0.390 OA
ATOM      5  O3S IDS d 303      89.599  21.511 102.405  0.00  0.00    -0.572 OA
ATOM      6  C1  IDS d 303      85.809  22.621 101.609  0.00  0.00     0.161 C 
ATOM      7  C4  IDS d 303      84.710  21.866 104.331  0.00  0.00     0.103 C 
ATOM      8  O2S IDS d 303      88.899  19.278 101.939  0.00  0.00    -0.572 OA
ATOM      9  C3  IDS d 303      86.092  22.545 104.198  0.00  0.00     0.094 C 
ATOM     10  C5  IDS d 303      83.905  22.155 103.066  0.00  0.00     0.152 C 
ATOM     11  C6  IDS d 303      82.495  21.647 103.168  0.00  0.00     0.206 C 
ATOM     12  O62 IDS d 303      82.223  20.647 102.476  0.00  0.00    -0.646 OA
ATOM     13  O5  IDS d 303      84.522  22.050 101.797  0.00  0.00    -0.340 OA
ATOM     14  C2  IDS d 303      86.719  22.302 102.813  0.00  0.00     0.134 C 
ATOM     15  O1S IDS d 303      88.303  21.024 100.480  0.00  0.00    -0.572 OA
ATOM     16  H   IDS d 303      85.628  24.036 105.338  0.00  0.00     0.210 HD
ATOM     17  H   IDS d 303      86.191  22.173 100.715  0.00  0.00     0.133 H 
ATOM     18  H   IDS d 303      84.234  22.234 105.216  0.00  0.00     0.092 H 
ATOM     19  H   IDS d 303      86.727  22.092 104.931  0.00  0.00     0.091 H 
ATOM     20  H   IDS d 303      83.861  23.224 103.068  0.00  0.00     0.104 H 
ATOM     21  H   IDS d 303      87.539  22.985 102.722  0.00  0.00     0.097 H 
ATOM     22  C3  SGN d 306      89.882  31.701  96.110  0.00  0.00     0.083 C 
ATOM     23  O1S SGN d 306      91.239  29.799  93.263  0.00  0.00    -0.296 OA
ATOM     24  O4S SGN d 306      92.706  31.291 102.827  0.00  0.00    -0.572 OA
ATOM     25  O5S SGN d 306      90.816  29.916 102.472  0.00  0.00    -0.572 OA
ATOM     26  C2  SGN d 306      91.368  31.544  95.826  0.00  0.00     0.081 C 
ATOM     27  O5  SGN d 306      91.854  32.054  98.146  0.00  0.00    -0.350 OA
ATOM     28  C6  SGN d 306      90.226  31.866  99.935  0.00  0.00     0.067 C 
ATOM     29  S2  SGN d 306      91.382  31.221 102.278  0.00  0.00     0.251 S 
ATOM     30  S1  SGN d 306      92.079  30.971  93.248  0.00  0.00     0.156 S 
ATOM     31  O3S SGN d 306      91.990  31.631  91.970  0.00  0.00    -0.296 OA
ATOM     32  O4  SGN d 306      88.205  31.419  97.826  0.00  0.00    -0.348 OA
ATOM     33  O3  SGN d 306      89.157  30.893  95.201  0.00  0.00    -0.391 OA
ATOM     34  O6S SGN d 306      90.528  32.217 102.875  0.00  0.00    -0.572 OA
ATOM     35  C5  SGN d 306      90.438  32.203  98.470  0.00  0.00     0.091 C 
ATOM     36  O1  SGN d 306      92.047  33.762  96.503  0.00  0.00    -0.369 OA
ATOM     37  N   SGN d 306      91.564  32.083  94.509  0.00  0.00    -0.210 NA
ATOM     38  O6  SGN d 306      91.448  31.520 100.549  0.00  0.00    -0.254 OA
ATOM     39  C4  SGN d 306      89.612  31.273  97.555  0.00  0.00     0.095 C 
ATOM     40  O2S SGN d 306      93.435  30.619  93.534  0.00  0.00    -0.296 OA
ATOM     41  C1  SGN d 306      92.229  32.379  96.788  0.00  0.00     0.147 C 
ATOM     42  H   SGN d 306      89.574  32.719  95.986  0.00  0.00     0.089 H 
ATOM     43  H   SGN d 306      91.307  29.363  94.127  0.00  0.00     0.231 HD
ATOM     44  H   SGN d 306      91.651  30.517  95.932  0.00  0.00     0.076 H 
ATOM     45  H   SGN d 306      89.549  31.041 100.011  0.00  0.00     0.080 H 
ATOM     46  H   SGN d 306      89.822  32.724 100.430  0.00  0.00     0.080 H 
ATOM     47  H   SGN d 306      91.067  31.863  91.789  0.00  0.00     0.231 HD
ATOM     48  H   SGN d 306      89.428  29.967  95.305  0.00  0.00     0.210 HD
ATOM     49  H   SGN d 306      90.118  33.210  98.305  0.00  0.00     0.090 H 
ATOM     50  H   SGN d 306      92.309  33.940  95.586  0.00  0.00     0.212 HD
ATOM     51  H   SGN d 306      92.272  32.814  94.580  0.00  0.00     0.140 HD
ATOM     52  H   SGN d 306      89.887  30.253  97.725  0.00  0.00     0.091 H 
ATOM     53  H   SGN d 306      93.480  30.177  94.396  0.00  0.00     0.231 HD
ATOM     54  H   SGN d 306      93.268  32.156  96.663  0.00  0.00     0.131 H 
ATOM     55  C2  UAP d 301      80.407  15.389 104.647  0.00  0.00     0.132 C 
ATOM     56  S   UAP d 301      78.429  14.742 106.243  0.00  0.00     0.252 S 
ATOM     57  O1S UAP d 301      77.567  13.626 106.201  0.00  0.00    -0.572 OA
ATOM     58  C1  UAP d 301      81.864  15.538 105.034  0.00  0.00     0.161 C 
ATOM     59  O61 UAP d 301      83.067  12.703 101.274  0.00  0.00    -0.646 OA
ATOM     60  C5  UAP d 301      82.397  14.113 103.105  0.00  0.00     0.127 C 
ATOM     61  O3  UAP d 301      79.844  16.465 102.625  0.00  0.00    -0.393 OA
ATOM     62  O2  UAP d 301      79.857  14.321 105.340  0.00  0.00    -0.244 OA
ATOM     63  O5  UAP d 301      82.689  14.556 104.418  0.00  0.00    -0.343 OA
ATOM     64  C6  UAP d 301      83.338  13.133 102.414  0.00  0.00     0.203 C 
ATOM     65  O62 UAP d 301      84.345  12.783 103.066  0.00  0.00    -0.646 OA
ATOM     66  O3S UAP d 301      78.875  15.009 107.576  0.00  0.00    -0.572 OA
ATOM     67  O2S UAP d 301      77.788  15.886 105.641  0.00  0.00    -0.572 OA
ATOM     68  C3  UAP d 301      80.056  15.198 103.164  0.00  0.00     0.069 C 
ATOM     69  C4  UAP d 301      81.120  14.436 102.326  0.00  0.00    -0.005 C 
ATOM     70  H   UAP d 301      80.002  16.346 104.901  0.00  0.00     0.097 H 
ATOM     71  H   UAP d 301      82.003  15.398 106.086  0.00  0.00     0.133 H 
ATOM     72  H   UAP d 301      82.489  15.134 103.410  0.00  0.00     0.100 H 
ATOM     73  H   UAP d 301      79.179  16.933 103.153  0.00  0.00     0.210 HD
ATOM     74  H   UAP d 301      79.186  14.576 103.118  0.00  0.00     0.087 H 
ATOM     75  H   UAP d 301      80.690  13.516 101.987  0.00  0.00     0.041 H 
ATOM     76  H   UAP d 301      81.401  15.077 101.517  0.00  0.00     0.041 H 
ATOM     77  O5  IDS d 305      87.675  29.087  98.169  0.00  0.00    -0.340 OA
ATOM     78  O62 IDS d 305      87.947  26.530  97.132  0.00  0.00    -0.646 OA
ATOM     79  C1  IDS d 305      87.537  30.434  98.627  0.00  0.00     0.161 C 
ATOM     80  O3  IDS d 305      84.557  30.831  96.983  0.00  0.00    -0.390 OA
ATOM     81  C6  IDS d 305      87.004  27.200  96.652  0.00  0.00     0.206 C 
ATOM     82  C2  IDS d 305      86.056  30.860  98.812  0.00  0.00     0.134 C 
ATOM     83  C5  IDS d 305      86.685  28.524  97.346  0.00  0.00     0.152 C 
ATOM     84  C3  IDS d 305      84.906  30.120  98.103  0.00  0.00     0.094 C 
ATOM     85  S   IDS d 305      85.875  30.345 101.508  0.00  0.00     0.252 S 
ATOM     86  C4  IDS d 305      85.220  28.657  97.735  0.00  0.00     0.103 C 
ATOM     87  O3S IDS d 305      85.551  31.146 102.631  0.00  0.00    -0.572 OA
ATOM     88  O1S IDS d 305      87.218  29.898 101.601  0.00  0.00    -0.572 OA
ATOM     89  O2  IDS d 305      85.709  31.388 100.086  0.00  0.00    -0.244 OA
ATOM     90  O61 IDS d 305      86.194  26.740  95.829  0.00  0.00    -0.646 OA
ATOM     91  O2S IDS d 305      84.988  29.245 101.390  0.00  0.00    -0.572 OA
ATOM     92  H   IDS d 305      88.026  30.411  99.578  0.00  0.00     0.133 H 
ATOM     93  H   IDS d 305      84.363  31.749  97.230  0.00  0.00     0.210 HD
ATOM     94  H   IDS d 305      86.134  31.684  98.134  0.00  0.00     0.097 H 
ATOM     95  H   IDS d 305      86.785  29.270  96.584  0.00  0.00     0.104 H 
ATOM     96  H   IDS d 305      84.094  30.061  98.797  0.00  0.00     0.091 H 
ATOM     97  H   IDS d 305      84.587  28.378  96.919  0.00  0.00     0.092 H 
ATOM     98  O6  SGN d 304      85.042  22.815  98.282  0.00  0.00    -0.254 OA
ATOM     99  S2  SGN d 304      85.388  21.243  97.599  0.00  0.00     0.251 S 
ATOM    100  O5S SGN d 304      84.196  20.444  97.709  0.00  0.00    -0.572 OA
ATOM    101  N   SGN d 304      82.958  27.759 100.628  0.00  0.00    -0.210 NA
ATOM    102  O3S SGN d 304      80.374  27.862 100.335  0.00  0.00    -0.296 OA
ATOM    103  C6  SGN d 304      86.129  23.720  98.459  0.00  0.00     0.067 C 
ATOM    104  O3  SGN d 304      83.640  25.600 102.275  0.00  0.00    -0.391 OA
ATOM    105  C5  SGN d 304      85.570  24.946  99.137  0.00  0.00     0.091 C 
ATOM    106  O2S SGN d 304      81.515  29.872 100.670  0.00  0.00    -0.296 OA
ATOM    107  O1  SGN d 304      84.985  27.796  98.856  0.00  0.00    -0.348 OA
ATOM    108  O4S SGN d 304      85.756  21.401  96.225  0.00  0.00    -0.572 OA
ATOM    109  C1  SGN d 304      84.005  26.765  98.703  0.00  0.00     0.150 C 
ATOM    110  C3  SGN d 304      84.311  25.870 101.059  0.00  0.00     0.083 C 
ATOM    111  C2  SGN d 304      83.321  26.483 100.063  0.00  0.00     0.081 C 
ATOM    112  S1  SGN d 304      81.547  28.610 100.013  0.00  0.00     0.156 S 
ATOM    113  O6S SGN d 304      86.463  20.645  98.359  0.00  0.00    -0.572 OA
ATOM    114  O1S SGN d 304      81.637  28.784  98.592  0.00  0.00    -0.296 OA
ATOM    115  O5  SGN d 304      84.604  25.543  98.233  0.00  0.00    -0.349 OA
ATOM    116  C4  SGN d 304      84.861  24.583 100.458  0.00  0.00     0.095 C 
ATOM    117  O4  SGN d 304      85.799  24.019 101.387  0.00  0.00    -0.348 OA
ATOM    118  H   SGN d 304      83.757  28.379 100.499  0.00  0.00     0.140 HD
ATOM    119  H   SGN d 304      80.318  27.748 101.297  0.00  0.00     0.231 HD
ATOM    120  H   SGN d 304      86.547  23.983  97.510  0.00  0.00     0.080 H 
ATOM    121  H   SGN d 304      86.905  23.276  99.047  0.00  0.00     0.080 H 
ATOM    122  H   SGN d 304      83.296  26.428 102.645  0.00  0.00     0.210 HD
ATOM    123  H   SGN d 304      86.369  25.620  99.365  0.00  0.00     0.090 H 
ATOM    124  H   SGN d 304      81.454  29.736 101.628  0.00  0.00     0.231 HD
ATOM    125  H   SGN d 304      83.287  27.103  97.985  0.00  0.00     0.131 H 
ATOM    126  H   SGN d 304      85.117  26.546 101.257  0.00  0.00     0.089 H 
ATOM    127  H   SGN d 304      82.495  25.823  99.900  0.00  0.00     0.076 H 
ATOM    128  H   SGN d 304      81.658  27.916  98.160  0.00  0.00     0.231 HD
ATOM    129  H   SGN d 304      84.084  23.872 100.267  0.00  0.00     0.091 H 
ATOM    130  O5S SGN d 302      80.046  20.344 109.625  0.00  0.00    -0.572 OA
ATOM    131  C4  SGN d 302      83.175  17.529 105.350  0.00  0.00     0.095 C 
ATOM    132  O1S SGN d 302      88.529  16.681 104.557  0.00  0.00    -0.296 OA
ATOM    133  O3  SGN d 302      84.943  16.282 104.323  0.00  0.00    -0.391 OA
ATOM    134  O2S SGN d 302      87.992  17.691 106.625  0.00  0.00    -0.296 OA
ATOM    135  C1  SGN d 302      84.954  19.795 105.648  0.00  0.00     0.150 C 
ATOM    136  C5  SGN d 302      82.660  18.942 105.588  0.00  0.00     0.091 C 
ATOM    137  O3S SGN d 302      89.207  18.904 105.027  0.00  0.00    -0.296 OA
ATOM    138  O5  SGN d 302      83.666  19.698 106.312  0.00  0.00    -0.349 OA
ATOM    139  C6  SGN d 302      81.355  18.881 106.369  0.00  0.00     0.067 C 
ATOM    140  S1  SGN d 302      88.181  17.911 105.224  0.00  0.00     0.156 S 
ATOM    141  O4S SGN d 302      80.086  21.724 107.707  0.00  0.00    -0.572 OA
ATOM    142  O6S SGN d 302      78.875  19.688 107.700  0.00  0.00    -0.572 OA
ATOM    143  O4  SGN d 302      82.215  16.826 104.617  0.00  0.00    -0.348 OA
ATOM    144  N   SGN d 302      86.647  18.504 104.572  0.00  0.00    -0.210 NA
ATOM    145  C3  SGN d 302      84.461  17.594 104.550  0.00  0.00     0.083 C 
ATOM    146  C2  SGN d 302      85.462  18.375 105.385  0.00  0.00     0.081 C 
ATOM    147  S2  SGN d 302      80.047  20.371 108.188  0.00  0.00     0.251 S 
ATOM    148  O6  SGN d 302      81.474  19.517 107.622  0.00  0.00    -0.254 OA
ATOM    149  O1  SGN d 302      84.862  20.443 104.380  0.00  0.00    -0.348 OA
ATOM    150  H   SGN d 302      83.361  17.042 106.284  0.00  0.00     0.091 H 
ATOM    151  H   SGN d 302      89.369  16.348 104.909  0.00  0.00     0.231 HD
ATOM    152  H   SGN d 302      84.301  15.789 103.790  0.00  0.00     0.210 HD
ATOM    153  H   SGN d 302      88.817  17.363 107.016  0.00  0.00     0.231 HD
ATOM    154  H   SGN d 302      85.604  20.362 106.281  0.00  0.00     0.131 H 
ATOM    155  H   SGN d 302      82.470  19.429 104.655  0.00  0.00     0.090 H 
ATOM    156  H   SGN d 302      90.047  18.577 105.386  0.00  0.00     0.231 HD
ATOM    157  H   SGN d 302      81.089  17.856 106.524  0.00  0.00     0.080 H 
ATOM    158  H   SGN d 302      80.601  19.388 105.805  0.00  0.00     0.080 H 
ATOM    159  H   SGN d 302      86.473  17.998 103.703  0.00  0.00     0.140 HD
ATOM    160  H   SGN d 302      84.305  18.065 103.602  0.00  0.00     0.089 H 
ATOM    161  H   SGN d 302      85.631  17.877 106.318  0.00  0.00     0.076 H 
ENDROOT
TORSDOF 50
ENDMDL
MODEL 42
REMARK VINA RESULT:     -10.2      5.158     14.716
REMARK  0 active torsions:
REMARK  status: ('A' for Active; 'I' for Inactive)
REMARK       I    between atoms: S_1  and  O2_2 
REMARK       I    between atoms: O2_2  and  C2_99 
REMARK       I    between atoms: C3_3  and  O3_50 
REMARK       I    between atoms: C2_5  and  O2_57 
REMARK       I    between atoms: O1S_6  and  S1_33 
REMARK       I    between atoms: O3_7  and  C3_52 
REMARK       I    between atoms: O6_9  and  C6_34 
REMARK       I    between atoms: O6_9  and  S2_17 
REMARK       I    between atoms: C2_13  and  N_73 
REMARK       I    between atoms: S_16  and  O2_57 
REMARK       I    between atoms: C1_20  and  O4_43 
REMARK       I    between atoms: C6_21  and  C5_67 
REMARK       I    between atoms: C6_21  and  O6_75 
REMARK       I    between atoms: N_22  and  C2_66 
REMARK       I    between atoms: N_22  and  S1_69 
REMARK       I    between atoms: S2_23  and  O6_75 
REMARK       I    between atoms: C1_24  and  O4_78 
REMARK       I    between atoms: C4_25  and  O4_78 
REMARK       I    between atoms: O3_26  and  C3_81 
REMARK       I    between atoms: O1S_27  and  S1_60 
REMARK       I    between atoms: O3S_28  and  S1_69 
REMARK       I    between atoms: O3_29  and  C3_87 
REMARK       I    between atoms: C6_30  and  C5_80 
REMARK       I    between atoms: O2S_32  and  S1_60 
REMARK       I    between atoms: S1_33  and  N_73 
REMARK       I    between atoms: S1_33  and  O2S_94 
REMARK       I    between atoms: S1_33  and  O3S_35 
REMARK       I    between atoms: C6_34  and  C5_38 
REMARK       I    between atoms: C2_36  and  O2_93 
REMARK       I    between atoms: O3_37  and  C3_65 
REMARK       I    between atoms: C1_40  and  O1_105 
REMARK       I    between atoms: O2S_41  and  S1_69 
REMARK       I    between atoms: C5_42  and  C6_54 
REMARK       I    between atoms: O4_43  and  C4_92 
REMARK       I    between atoms: O1_44  and  C1_62 
REMARK       I    between atoms: O1_44  and  C4_83 
REMARK       I    between atoms: C1_45  and  O4_102 
REMARK       I    between atoms: C4_46  and  O1_105 
REMARK       I    between atoms: O3S_47  and  S1_60 
REMARK       I    between atoms: C5_53  and  C6_61 
REMARK       I    between atoms: C6_54  and  O6_98 
REMARK       I    between atoms: O3_56  and  C3_84 
REMARK       I    between atoms: C5_59  and  C6_63 
REMARK       I    between atoms: S1_60  and  N_86 
REMARK       I    between atoms: S1_69  and  O1S_91 
REMARK       I    between atoms: O1_70  and  C1_96 
REMARK       I    between atoms: S_82  and  O2_93 
REMARK       I    between atoms: N_86  and  C2_90 
REMARK       I    between atoms: S2_95  and  O6_98 
REMARK       I    between atoms: C4_100  and  O4_102 
ROOT
ATOM      1  S   IDS d 303      84.380  19.474  96.953  0.00  0.00     0.252 S 
ATOM      2  O2  IDS d 303      84.380  21.175  97.376  0.00  0.00    -0.244 OA
ATOM      3  O61 IDS d 303      85.296  25.852 100.528  0.00  0.00    -0.646 OA
ATOM      4  O3  IDS d 303      81.826  23.180  98.831  0.00  0.00    -0.390 OA
ATOM      5  O3S IDS d 303      83.019  19.127  96.627  0.00  0.00    -0.572 OA
ATOM      6  C1  IDS d 303      84.206  21.364  99.759  0.00  0.00     0.161 C 
ATOM      7  C4  IDS d 303      84.037  24.016  98.301  0.00  0.00     0.103 C 
ATOM      8  O2S IDS d 303      85.266  19.284  95.837  0.00  0.00    -0.572 OA
ATOM      9  C3  IDS d 303      82.961  22.927  98.088  0.00  0.00     0.094 C 
ATOM     10  C5  IDS d 303      84.747  23.743  99.624  0.00  0.00     0.152 C 
ATOM     11  C6  IDS d 303      85.719  24.833  99.978  0.00  0.00     0.206 C 
ATOM     12  O62 IDS d 303      86.926  24.542  99.878  0.00  0.00    -0.646 OA
ATOM     13  O5  IDS d 303      85.132  22.422  99.960  0.00  0.00    -0.340 OA
ATOM     14  C2  IDS d 303      83.500  21.520  98.396  0.00  0.00     0.134 C 
ATOM     15  O1S IDS d 303      84.846  18.748  98.089  0.00  0.00    -0.572 OA
ATOM     16  H   IDS d 303      81.497  24.070  98.627  0.00  0.00     0.210 HD
ATOM     17  H   IDS d 303      84.789  20.467  99.785  0.00  0.00     0.133 H 
ATOM     18  H   IDS d 303      83.562  24.975  98.277  0.00  0.00     0.092 H 
ATOM     19  H   IDS d 303      82.695  22.959  97.051  0.00  0.00     0.091 H 
ATOM     20  H   IDS d 303      83.941  23.792 100.325  0.00  0.00     0.104 H 
ATOM     21  H   IDS d 303      82.651  20.870  98.455  0.00  0.00     0.097 H 
ATOM     22  C3  SGN d 306      77.891  14.777 106.543  0.00  0.00     0.083 C 
ATOM     23  O1S SGN d 306      80.053  11.810 106.250  0.00  0.00    -0.296 OA
ATOM     24  O4S SGN d 306      73.897  17.306 100.981  0.00  0.00    -0.572 OA
ATOM     25  O5S SGN d 306      75.959  18.420 101.295  0.00  0.00    -0.572 OA
ATOM     26  C2  SGN d 306      77.482  13.497 105.830  0.00  0.00     0.081 C 
ATOM     27  O5  SGN d 306      75.818  14.738 104.578  0.00  0.00    -0.350 OA
ATOM     28  C6  SGN d 306      75.871  17.146 104.287  0.00  0.00     0.067 C 
ATOM     29  S2  SGN d 306      74.789  17.895 101.940  0.00  0.00     0.251 S 
ATOM     30  S1  SGN d 306      78.783  11.206 106.565  0.00  0.00     0.156 S 
ATOM     31  O3S SGN d 306      78.894  10.407 107.760  0.00  0.00    -0.296 OA
ATOM     32  O4  SGN d 306      78.072  17.170 106.257  0.00  0.00    -0.348 OA
ATOM     33  O3  SGN d 306      79.250  14.671 106.924  0.00  0.00    -0.391 OA
ATOM     34  O6S SGN d 306      74.127  18.942 102.677  0.00  0.00    -0.572 OA
ATOM     35  C5  SGN d 306      76.183  15.994 105.226  0.00  0.00     0.091 C 
ATOM     36  O1  SGN d 306      75.160  13.500 106.500  0.00  0.00    -0.369 OA
ATOM     37  N   SGN d 306      77.579  12.462 106.821  0.00  0.00    -0.210 NA
ATOM     38  O6  SGN d 306      75.316  16.669 103.081  0.00  0.00    -0.254 OA
ATOM     39  C4  SGN d 306      77.684  15.956 105.587  0.00  0.00     0.095 C 
ATOM     40  O2S SGN d 306      78.322  10.407 105.473  0.00  0.00    -0.296 OA
ATOM     41  C1  SGN d 306      76.018  13.541 105.364  0.00  0.00     0.147 C 
ATOM     42  H   SGN d 306      77.298  14.934 107.420  0.00  0.00     0.089 H 
ATOM     43  H   SGN d 306      79.967  12.344 105.445  0.00  0.00     0.231 HD
ATOM     44  H   SGN d 306      78.101  13.347 104.970  0.00  0.00     0.076 H 
ATOM     45  H   SGN d 306      76.773  17.678 104.072  0.00  0.00     0.080 H 
ATOM     46  H   SGN d 306      75.162  17.793 104.761  0.00  0.00     0.080 H 
ATOM     47  H   SGN d 306      79.207  10.960 108.491  0.00  0.00     0.231 HD
ATOM     48  H   SGN d 306      79.797  14.530 106.136  0.00  0.00     0.210 HD
ATOM     49  H   SGN d 306      75.622  16.131 106.127  0.00  0.00     0.090 H 
ATOM     50  H   SGN d 306      75.324  12.685 107.000  0.00  0.00     0.212 HD
ATOM     51  H   SGN d 306      76.668  12.006 106.877  0.00  0.00     0.140 HD
ATOM     52  H   SGN d 306      78.272  15.856 104.699  0.00  0.00     0.091 H 
ATOM     53  H   SGN d 306      78.252  10.957 104.677  0.00  0.00     0.231 HD
ATOM     54  H   SGN d 306      75.786  12.694 104.752  0.00  0.00     0.131 H 
ATOM     55  C2  UAP d 301      90.803  27.267  96.245  0.00  0.00     0.132 C 
ATOM     56  S   UAP d 301      91.454  29.791  95.955  0.00  0.00     0.252 S 
ATOM     57  O1S UAP d 301      92.718  30.372  95.718  0.00  0.00    -0.572 OA
ATOM     58  C1  UAP d 301      89.866  26.472  95.361  0.00  0.00     0.161 C 
ATOM     59  O61 UAP d 301      93.232  22.977  95.076  0.00  0.00    -0.646 OA
ATOM     60  C5  UAP d 301      91.608  24.741  95.277  0.00  0.00     0.127 C 
ATOM     61  O3  UAP d 301      91.143  26.312  98.375  0.00  0.00    -0.393 OA
ATOM     62  O2  UAP d 301      91.557  28.125  95.458  0.00  0.00    -0.244 OA
ATOM     63  O5  UAP d 301      90.538  25.433  94.658  0.00  0.00    -0.343 OA
ATOM     64  C6  UAP d 301      92.261  23.566  94.559  0.00  0.00     0.203 C 
ATOM     65  O62 UAP d 301      91.788  23.272  93.440  0.00  0.00    -0.646 OA
ATOM     66  O3S UAP d 301      90.444  30.381  95.132  0.00  0.00    -0.572 OA
ATOM     67  O2S UAP d 301      91.129  29.865  97.358  0.00  0.00    -0.572 OA
ATOM     68  C3  UAP d 301      91.782  26.505  97.153  0.00  0.00     0.069 C 
ATOM     69  C4  UAP d 301      92.279  25.144  96.592  0.00  0.00    -0.005 C 
ATOM     70  H   UAP d 301      90.129  27.751  96.920  0.00  0.00     0.097 H 
ATOM     71  H   UAP d 301      89.434  27.087  94.599  0.00  0.00     0.133 H 
ATOM     72  H   UAP d 301      90.640  24.898  95.704  0.00  0.00     0.100 H 
ATOM     73  H   UAP d 301      90.836  27.165  98.718  0.00  0.00     0.210 HD
ATOM     74  H   UAP d 301      92.669  27.099  97.237  0.00  0.00     0.087 H 
ATOM     75  H   UAP d 301      93.334  25.212  96.425  0.00  0.00     0.041 H 
ATOM     76  H   UAP d 301      92.028  24.396  97.314  0.00  0.00     0.041 H 
ATOM     77  O5  IDS d 305      79.951  17.754 104.857  0.00  0.00    -0.340 OA
ATOM     78  O62 IDS d 305      82.277  16.806 103.682  0.00  0.00    -0.646 OA
ATOM     79  C1  IDS d 305      78.764  18.189 105.524  0.00  0.00     0.161 C 
ATOM     80  O3  IDS d 305      80.528  19.244 108.265  0.00  0.00    -0.390 OA
ATOM     81  C6  IDS d 305      82.397  17.176 104.872  0.00  0.00     0.206 C 
ATOM     82  C2  IDS d 305      79.008  19.403 106.460  0.00  0.00     0.134 C 
ATOM     83  C5  IDS d 305      81.199  17.903 105.484  0.00  0.00     0.152 C 
ATOM     84  C3  IDS d 305      80.413  19.744 106.993  0.00  0.00     0.094 C 
ATOM     85  S   IDS d 305      78.260  21.370 104.690  0.00  0.00     0.252 S 
ATOM     86  C4  IDS d 305      81.571  19.240 106.109  0.00  0.00     0.103 C 
ATOM     87  O3S IDS d 305      77.274  22.387 104.728  0.00  0.00    -0.572 OA
ATOM     88  O1S IDS d 305      77.966  20.447 103.653  0.00  0.00    -0.572 OA
ATOM     89  O2  IDS d 305      78.176  20.535 106.250  0.00  0.00    -0.244 OA
ATOM     90  O61 IDS d 305      83.485  17.196 105.471  0.00  0.00    -0.646 OA
ATOM     91  O2S IDS d 305      79.556  21.919 104.521  0.00  0.00    -0.572 OA
ATOM     92  H   IDS d 305      78.132  18.482 104.712  0.00  0.00     0.133 H 
ATOM     93  H   IDS d 305      79.793  19.569 108.809  0.00  0.00     0.210 HD
ATOM     94  H   IDS d 305      78.646  18.895 107.330  0.00  0.00     0.097 H 
ATOM     95  H   IDS d 305      80.926  17.322 106.340  0.00  0.00     0.104 H 
ATOM     96  H   IDS d 305      80.502  20.810 106.983  0.00  0.00     0.091 H 
ATOM     97  H   IDS d 305      82.438  19.139 106.728  0.00  0.00     0.092 H 
ATOM     98  O6  SGN d 304      85.911  19.651 102.178  0.00  0.00    -0.254 OA
ATOM     99  S2  SGN d 304      87.281  18.907 101.389  0.00  0.00     0.251 S 
ATOM    100  O5S SGN d 304      88.377  19.839 101.440  0.00  0.00    -0.572 OA
ATOM    101  N   SGN d 304      81.951  22.854 105.068  0.00  0.00    -0.210 NA
ATOM    102  O3S SGN d 304      83.151  24.540 106.646  0.00  0.00    -0.296 OA
ATOM    103  C6  SGN d 304      84.649  18.994 102.087  0.00  0.00     0.067 C 
ATOM    104  O3  SGN d 304      82.565  23.449 102.402  0.00  0.00    -0.391 OA
ATOM    105  C5  SGN d 304      83.642  19.885 102.770  0.00  0.00     0.091 C 
ATOM    106  O2S SGN d 304      80.941  23.969 107.138  0.00  0.00    -0.296 OA
ATOM    107  O1  SGN d 304      81.829  20.165 105.046  0.00  0.00    -0.348 OA
ATOM    108  O4S SGN d 304      87.621  17.701 102.081  0.00  0.00    -0.572 OA
ATOM    109  C1  SGN d 304      83.129  20.758 104.988  0.00  0.00     0.150 C 
ATOM    110  C3  SGN d 304      82.612  22.133 102.917  0.00  0.00     0.083 C 
ATOM    111  C2  SGN d 304      83.032  22.182 104.390  0.00  0.00     0.081 C 
ATOM    112  S1  SGN d 304      82.200  23.477 106.694  0.00  0.00     0.156 S 
ATOM    113  O6S SGN d 304      86.920  18.633 100.016  0.00  0.00    -0.572 OA
ATOM    114  O1S SGN d 304      82.672  22.441 107.568  0.00  0.00    -0.296 OA
ATOM    115  O5  SGN d 304      84.021  19.981 104.168  0.00  0.00    -0.349 OA
ATOM    116  C4  SGN d 304      83.635  21.300 102.155  0.00  0.00     0.095 C 
ATOM    117  O4  SGN d 304      83.232  21.242 100.779  0.00  0.00    -0.348 OA
ATOM    118  H   SGN d 304      81.176  22.193 105.119  0.00  0.00     0.140 HD
ATOM    119  H   SGN d 304      82.826  25.237 106.054  0.00  0.00     0.231 HD
ATOM    120  H   SGN d 304      84.692  18.044 102.577  0.00  0.00     0.080 H 
ATOM    121  H   SGN d 304      84.380  18.823 101.066  0.00  0.00     0.080 H 
ATOM    122  H   SGN d 304      81.910  23.967 102.896  0.00  0.00     0.210 HD
ATOM    123  H   SGN d 304      82.663  19.469 102.652  0.00  0.00     0.090 H 
ATOM    124  H   SGN d 304      80.637  24.667 106.538  0.00  0.00     0.231 HD
ATOM    125  H   SGN d 304      83.514  20.797 105.987  0.00  0.00     0.131 H 
ATOM    126  H   SGN d 304      81.643  21.691 102.815  0.00  0.00     0.089 H 
ATOM    127  H   SGN d 304      83.982  22.663 104.494  0.00  0.00     0.076 H 
ATOM    128  H   SGN d 304      83.529  22.117 107.252  0.00  0.00     0.231 HD
ATOM    129  H   SGN d 304      84.616  21.724 102.217  0.00  0.00     0.091 H 
ATOM    130  O5S SGN d 302      84.873  31.014  96.744  0.00  0.00    -0.572 OA
ATOM    131  C4  SGN d 302      87.603  25.763  95.763  0.00  0.00     0.095 C 
ATOM    132  O1S SGN d 302      86.244  21.303  92.888  0.00  0.00    -0.296 OA
ATOM    133  O3  SGN d 302      88.249  23.752  94.635  0.00  0.00    -0.391 OA
ATOM    134  O2S SGN d 302      84.761  23.125  92.630  0.00  0.00    -0.296 OA
ATOM    135  C1  SGN d 302      84.929  24.706  96.106  0.00  0.00     0.150 C 
ATOM    136  C5  SGN d 302      86.633  26.324  96.793  0.00  0.00     0.091 C 
ATOM    137  O3S SGN d 302      84.012  21.166  93.679  0.00  0.00    -0.296 OA
ATOM    138  O5  SGN d 302      85.273  26.098  96.337  0.00  0.00    -0.349 OA
ATOM    139  C6  SGN d 302      86.904  27.810  96.988  0.00  0.00     0.067 C 
ATOM    140  S1  SGN d 302      85.145  22.032  93.470  0.00  0.00     0.156 S 
ATOM    141  O4S SGN d 302      84.663  29.695  98.693  0.00  0.00    -0.572 OA
ATOM    142  O6S SGN d 302      86.775  30.541  98.035  0.00  0.00    -0.572 OA
ATOM    143  O4  SGN d 302      88.905  25.951  96.234  0.00  0.00    -0.348 OA
ATOM    144  N   SGN d 302      85.664  22.714  95.017  0.00  0.00    -0.210 NA
ATOM    145  C3  SGN d 302      87.347  24.279  95.591  0.00  0.00     0.083 C 
ATOM    146  C2  SGN d 302      85.919  24.133  95.089  0.00  0.00     0.081 C 
ATOM    147  S2  SGN d 302      85.505  30.031  97.580  0.00  0.00     0.251 S 
ATOM    148  O6  SGN d 302      85.789  28.590  96.617  0.00  0.00    -0.254 OA
ATOM    149  O1  SGN d 302      85.046  23.916  97.289  0.00  0.00    -0.348 OA
ATOM    150  H   SGN d 302      87.472  26.259  94.824  0.00  0.00     0.091 H 
ATOM    151  H   SGN d 302      85.967  20.925  92.038  0.00  0.00     0.231 HD
ATOM    152  H   SGN d 302      89.158  23.847  94.960  0.00  0.00     0.210 HD
ATOM    153  H   SGN d 302      84.470  22.785  91.769  0.00  0.00     0.231 HD
ATOM    154  H   SGN d 302      83.915  24.674  95.767  0.00  0.00     0.131 H 
ATOM    155  H   SGN d 302      86.766  25.833  97.734  0.00  0.00     0.090 H 
ATOM    156  H   SGN d 302      83.728  20.793  92.830  0.00  0.00     0.231 HD
ATOM    157  H   SGN d 302      87.742  28.093  96.387  0.00  0.00     0.080 H 
ATOM    158  H   SGN d 302      87.104  27.981  98.025  0.00  0.00     0.080 H 
ATOM    159  H   SGN d 302      86.527  22.239  95.282  0.00  0.00     0.140 HD
ATOM    160  H   SGN d 302      87.484  23.752  96.511  0.00  0.00     0.089 H 
ATOM    161  H   SGN d 302      85.805  24.640  94.153  0.00  0.00     0.076 H 
ENDROOT
TORSDOF 50
ENDMDL
MODEL 43
REMARK VINA RESULT:     -10.2      3.587     15.285
REMARK  0 active torsions:
REMARK  status: ('A' for Active; 'I' for Inactive)
REMARK       I    between atoms: S_1  and  O2_2 
REMARK       I    between atoms: O2_2  and  C2_99 
REMARK       I    between atoms: C3_3  and  O3_50 
REMARK       I    between atoms: C2_5  and  O2_57 
REMARK       I    between atoms: O1S_6  and  S1_33 
REMARK       I    between atoms: O3_7  and  C3_52 
REMARK       I    between atoms: O6_9  and  C6_34 
REMARK       I    between atoms: O6_9  and  S2_17 
REMARK       I    between atoms: C2_13  and  N_73 
REMARK       I    between atoms: S_16  and  O2_57 
REMARK       I    between atoms: C1_20  and  O4_43 
REMARK       I    between atoms: C6_21  and  C5_67 
REMARK       I    between atoms: C6_21  and  O6_75 
REMARK       I    between atoms: N_22  and  C2_66 
REMARK       I    between atoms: N_22  and  S1_69 
REMARK       I    between atoms: S2_23  and  O6_75 
REMARK       I    between atoms: C1_24  and  O4_78 
REMARK       I    between atoms: C4_25  and  O4_78 
REMARK       I    between atoms: O3_26  and  C3_81 
REMARK       I    between atoms: O1S_27  and  S1_60 
REMARK       I    between atoms: O3S_28  and  S1_69 
REMARK       I    between atoms: O3_29  and  C3_87 
REMARK       I    between atoms: C6_30  and  C5_80 
REMARK       I    between atoms: O2S_32  and  S1_60 
REMARK       I    between atoms: S1_33  and  N_73 
REMARK       I    between atoms: S1_33  and  O2S_94 
REMARK       I    between atoms: S1_33  and  O3S_35 
REMARK       I    between atoms: C6_34  and  C5_38 
REMARK       I    between atoms: C2_36  and  O2_93 
REMARK       I    between atoms: O3_37  and  C3_65 
REMARK       I    between atoms: C1_40  and  O1_105 
REMARK       I    between atoms: O2S_41  and  S1_69 
REMARK       I    between atoms: C5_42  and  C6_54 
REMARK       I    between atoms: O4_43  and  C4_92 
REMARK       I    between atoms: O1_44  and  C1_62 
REMARK       I    between atoms: O1_44  and  C4_83 
REMARK       I    between atoms: C1_45  and  O4_102 
REMARK       I    between atoms: C4_46  and  O1_105 
REMARK       I    between atoms: O3S_47  and  S1_60 
REMARK       I    between atoms: C5_53  and  C6_61 
REMARK       I    between atoms: C6_54  and  O6_98 
REMARK       I    between atoms: O3_56  and  C3_84 
REMARK       I    between atoms: C5_59  and  C6_63 
REMARK       I    between atoms: S1_60  and  N_86 
REMARK       I    between atoms: S1_69  and  O1S_91 
REMARK       I    between atoms: O1_70  and  C1_96 
REMARK       I    between atoms: S_82  and  O2_93 
REMARK       I    between atoms: N_86  and  C2_90 
REMARK       I    between atoms: S2_95  and  O6_98 
REMARK       I    between atoms: C4_100  and  O4_102 
ROOT
ATOM      1  S   IDS d 303      87.984  24.817 102.488  0.00  0.00     0.252 S 
ATOM      2  O2  IDS d 303      86.724  25.596 103.424  0.00  0.00    -0.244 OA
ATOM      3  O61 IDS d 303      82.668  26.170 107.408  0.00  0.00    -0.646 OA
ATOM      4  O3  IDS d 303      83.247  25.950 102.753  0.00  0.00    -0.390 OA
ATOM      5  O3S IDS d 303      87.599  24.926 101.103  0.00  0.00    -0.572 OA
ATOM      6  C1  IDS d 303      85.177  23.919 104.160  0.00  0.00     0.161 C 
ATOM      7  C4  IDS d 303      84.302  26.754 104.780  0.00  0.00     0.103 C 
ATOM      8  O2S IDS d 303      89.227  25.485 102.756  0.00  0.00    -0.572 OA
ATOM      9  C3  IDS d 303      84.462  26.279 103.318  0.00  0.00     0.094 C 
ATOM     10  C5  IDS d 303      84.130  25.527 105.672  0.00  0.00     0.152 C 
ATOM     11  C6  IDS d 303      83.830  25.902 107.095  0.00  0.00     0.206 C 
ATOM     12  O62 IDS d 303      84.749  25.713 107.916  0.00  0.00    -0.646 OA
ATOM     13  O5  IDS d 303      84.956  24.393 105.480  0.00  0.00    -0.340 OA
ATOM     14  C2  IDS d 303      85.444  25.100 103.203  0.00  0.00     0.134 C 
ATOM     15  O1S IDS d 303      88.050  23.454 102.906  0.00  0.00    -0.572 OA
ATOM     16  H   IDS d 303      82.639  26.701 102.832  0.00  0.00     0.210 HD
ATOM     17  H   IDS d 303      86.034  23.282 104.226  0.00  0.00     0.133 H 
ATOM     18  H   IDS d 303      83.467  27.422 104.832  0.00  0.00     0.092 H 
ATOM     19  H   IDS d 303      84.872  27.104 102.772  0.00  0.00     0.091 H 
ATOM     20  H   IDS d 303      83.248  25.077 105.266  0.00  0.00     0.104 H 
ATOM     21  H   IDS d 303      85.318  24.688 102.223  0.00  0.00     0.097 H 
ATOM     22  C3  SGN d 306      81.744  14.900  98.147  0.00  0.00     0.083 C 
ATOM     23  O1S SGN d 306      84.925  13.066  98.431  0.00  0.00    -0.296 OA
ATOM     24  O4S SGN d 306      81.059  21.013  94.218  0.00  0.00    -0.572 OA
ATOM     25  O5S SGN d 306      81.389  21.366  96.533  0.00  0.00    -0.572 OA
ATOM     26  C2  SGN d 306      82.679  14.638  96.976  0.00  0.00     0.081 C 
ATOM     27  O5  SGN d 306      81.685  16.497  95.779  0.00  0.00    -0.350 OA
ATOM     28  C6  SGN d 306      80.430  18.273  96.854  0.00  0.00     0.067 C 
ATOM     29  S2  SGN d 306      80.676  20.610  95.542  0.00  0.00     0.251 S 
ATOM     30  S1  SGN d 306      84.388  12.516  97.212  0.00  0.00     0.156 S 
ATOM     31  O3S SGN d 306      84.264  11.084  97.324  0.00  0.00    -0.296 OA
ATOM     32  O4  SGN d 306      80.567  16.654  99.321  0.00  0.00    -0.348 OA
ATOM     33  O3  SGN d 306      82.369  14.456  99.337  0.00  0.00    -0.391 OA
ATOM     34  O6S SGN d 306      79.257  20.769  95.733  0.00  0.00    -0.572 OA
ATOM     35  C5  SGN d 306      80.775  16.795  96.881  0.00  0.00     0.091 C 
ATOM     36  O1  SGN d 306      80.980  14.277  95.297  0.00  0.00    -0.369 OA
ATOM     37  N   SGN d 306      82.803  13.209  96.899  0.00  0.00    -0.210 NA
ATOM     38  O6  SGN d 306      81.075  18.916  95.777  0.00  0.00    -0.254 OA
ATOM     39  C4  SGN d 306      81.451  16.402  98.213  0.00  0.00     0.095 C 
ATOM     40  O2S SGN d 306      85.217  12.857  96.099  0.00  0.00    -0.296 OA
ATOM     41  C1  SGN d 306      82.080  15.113  95.643  0.00  0.00     0.147 C 
ATOM     42  H   SGN d 306      80.821  14.372  98.025  0.00  0.00     0.089 H 
ATOM     43  H   SGN d 306      85.004  14.029  98.345  0.00  0.00     0.231 HD
ATOM     44  H   SGN d 306      83.604  15.156  97.128  0.00  0.00     0.076 H 
ATOM     45  H   SGN d 306      80.744  18.724  97.772  0.00  0.00     0.080 H 
ATOM     46  H   SGN d 306      79.372  18.377  96.733  0.00  0.00     0.080 H 
ATOM     47  H   SGN d 306      83.699  10.866  98.082  0.00  0.00     0.231 HD
ATOM     48  H   SGN d 306      83.207  14.929  99.458  0.00  0.00     0.210 HD
ATOM     49  H   SGN d 306      79.869  16.234  96.784  0.00  0.00     0.090 H 
ATOM     50  H   SGN d 306      81.284  13.360  95.215  0.00  0.00     0.212 HD
ATOM     51  H   SGN d 306      82.527  12.929  95.957  0.00  0.00     0.140 HD
ATOM     52  H   SGN d 306      82.344  16.975  98.353  0.00  0.00     0.091 H 
ATOM     53  H   SGN d 306      85.292  13.822  96.036  0.00  0.00     0.231 HD
ATOM     54  H   SGN d 306      82.799  15.044  94.854  0.00  0.00     0.131 H 
ATOM     55  C2  UAP d 301      87.352  29.993 111.166  0.00  0.00     0.132 C 
ATOM     56  S   UAP d 301      86.368  31.806 112.784  0.00  0.00     0.252 S 
ATOM     57  O1S UAP d 301      86.870  32.283 114.014  0.00  0.00    -0.572 OA
ATOM     58  C1  UAP d 301      87.791  30.209 109.732  0.00  0.00     0.161 C 
ATOM     59  O61 UAP d 301      91.972  27.952 110.759  0.00  0.00    -0.646 OA
ATOM     60  C5  UAP d 301      89.872  29.043 110.321  0.00  0.00     0.127 C 
ATOM     61  O3  UAP d 301      86.929  27.735 111.701  0.00  0.00    -0.393 OA
ATOM     62  O2  UAP d 301      87.706  31.099 111.924  0.00  0.00    -0.244 OA
ATOM     63  O5  UAP d 301      89.193  30.029 109.564  0.00  0.00    -0.343 OA
ATOM     64  C6  UAP d 301      91.354  28.787 110.069  0.00  0.00     0.203 C 
ATOM     65  O62 UAP d 301      91.887  29.477 109.173  0.00  0.00    -0.646 OA
ATOM     66  O3S UAP d 301      85.897  32.877 111.961  0.00  0.00    -0.572 OA
ATOM     67  O2S UAP d 301      85.353  30.808 113.017  0.00  0.00    -0.572 OA
ATOM     68  C3  UAP d 301      87.861  28.749 111.911  0.00  0.00     0.069 C 
ATOM     69  C4  UAP d 301      89.277  28.263 111.495  0.00  0.00    -0.005 C 
ATOM     70  H   UAP d 301      86.299  29.836 111.063  0.00  0.00     0.097 H 
ATOM     71  H   UAP d 301      87.601  31.214 109.414  0.00  0.00     0.133 H 
ATOM     72  H   UAP d 301      88.987  28.882 109.743  0.00  0.00     0.100 H 
ATOM     73  H   UAP d 301      86.048  28.046 111.963  0.00  0.00     0.210 HD
ATOM     74  H   UAP d 301      87.962  29.014 112.943  0.00  0.00     0.087 H 
ATOM     75  H   UAP d 301      89.931  28.367 112.336  0.00  0.00     0.041 H 
ATOM     76  H   UAP d 301      89.179  27.246 111.178  0.00  0.00     0.041 H 
ATOM     77  O5  IDS d 305      82.071  17.977 100.670  0.00  0.00    -0.340 OA
ATOM     78  O62 IDS d 305      84.624  18.110 101.743  0.00  0.00    -0.646 OA
ATOM     79  C1  IDS d 305      80.759  17.827 100.122  0.00  0.00     0.161 C 
ATOM     80  O3  IDS d 305      79.596  16.316 102.968  0.00  0.00    -0.390 OA
ATOM     81  C6  IDS d 305      83.804  17.437 102.408  0.00  0.00     0.206 C 
ATOM     82  C2  IDS d 305      79.644  17.886 101.200  0.00  0.00     0.134 C 
ATOM     83  C5  IDS d 305      82.341  17.519 101.970  0.00  0.00     0.152 C 
ATOM     84  C3  IDS d 305      79.941  17.614 102.687  0.00  0.00     0.094 C 
ATOM     85  S   IDS d 305      79.024  20.551 100.923  0.00  0.00     0.252 S 
ATOM     86  C4  IDS d 305      81.399  17.886 103.107  0.00  0.00     0.103 C 
ATOM     87  O3S IDS d 305      77.830  21.243 100.604  0.00  0.00    -0.572 OA
ATOM     88  O1S IDS d 305      79.993  20.760  99.907  0.00  0.00    -0.572 OA
ATOM     89  O2  IDS d 305      78.606  18.831 100.979  0.00  0.00    -0.244 OA
ATOM     90  O61 IDS d 305      84.077  16.927 103.508  0.00  0.00    -0.646 OA
ATOM     91  O2S IDS d 305      79.528  20.953 102.185  0.00  0.00    -0.572 OA
ATOM     92  H   IDS d 305      80.677  18.673  99.473  0.00  0.00     0.133 H 
ATOM     93  H   IDS d 305      78.677  16.160 102.699  0.00  0.00     0.210 HD
ATOM     94  H   IDS d 305      79.257  16.919 100.954  0.00  0.00     0.097 H 
ATOM     95  H   IDS d 305      82.056  16.510 101.758  0.00  0.00     0.104 H 
ATOM     96  H   IDS d 305      79.356  18.306 103.256  0.00  0.00     0.091 H 
ATOM     97  H   IDS d 305      81.608  17.296 103.975  0.00  0.00     0.092 H 
ATOM     98  O6  SGN d 304      85.825  20.865 105.555  0.00  0.00    -0.254 OA
ATOM     99  S2  SGN d 304      87.496  20.897 106.067  0.00  0.00     0.251 S 
ATOM    100  O5S SGN d 304      87.531  21.392 107.418  0.00  0.00    -0.572 OA
ATOM    101  N   SGN d 304      80.024  20.992 104.767  0.00  0.00    -0.210 NA
ATOM    102  O3S SGN d 304      78.810  20.809 107.061  0.00  0.00    -0.296 OA
ATOM    103  C6  SGN d 304      85.553  20.589 104.183  0.00  0.00     0.067 C 
ATOM    104  O3  SGN d 304      81.508  23.364 104.666  0.00  0.00    -0.391 OA
ATOM    105  C5  SGN d 304      84.060  20.709 104.001  0.00  0.00     0.091 C 
ATOM    106  O2S SGN d 304      77.619  20.204 105.146  0.00  0.00    -0.296 OA
ATOM    107  O1  SGN d 304      81.585  19.276 103.400  0.00  0.00    -0.348 OA
ATOM    108  O4S SGN d 304      88.027  19.569 106.010  0.00  0.00    -0.572 OA
ATOM    109  C1  SGN d 304      82.001  19.622 104.725  0.00  0.00     0.150 C 
ATOM    110  C3  SGN d 304      82.038  22.117 104.259  0.00  0.00     0.083 C 
ATOM    111  C2  SGN d 304      81.424  21.004 105.114  0.00  0.00     0.081 C 
ATOM    112  S1  SGN d 304      78.881  20.143 105.800  0.00  0.00     0.156 S 
ATOM    113  O6S SGN d 304      88.223  21.785 105.189  0.00  0.00    -0.572 OA
ATOM    114  O1S SGN d 304      79.284  18.780 105.991  0.00  0.00    -0.296 OA
ATOM    115  O5  SGN d 304      83.436  19.685 104.819  0.00  0.00    -0.349 OA
ATOM    116  C4  SGN d 304      83.549  22.093 104.455  0.00  0.00     0.095 C 
ATOM    117  O4  SGN d 304      84.124  23.126 103.642  0.00  0.00    -0.348 OA
ATOM    118  H   SGN d 304      79.952  20.574 103.839  0.00  0.00     0.140 HD
ATOM    119  H   SGN d 304      78.537  21.730 106.926  0.00  0.00     0.231 HD
ATOM    120  H   SGN d 304      85.874  19.598 103.936  0.00  0.00     0.080 H 
ATOM    121  H   SGN d 304      86.073  21.271 103.544  0.00  0.00     0.080 H 
ATOM    122  H   SGN d 304      80.547  23.364 104.535  0.00  0.00     0.210 HD
ATOM    123  H   SGN d 304      83.819  20.592 102.965  0.00  0.00     0.090 H 
ATOM    124  H   SGN d 304      77.362  21.131 105.025  0.00  0.00     0.231 HD
ATOM    125  H   SGN d 304      81.638  18.864 105.388  0.00  0.00     0.131 H 
ATOM    126  H   SGN d 304      81.809  21.970 103.224  0.00  0.00     0.089 H 
ATOM    127  H   SGN d 304      81.618  21.176 106.151  0.00  0.00     0.076 H 
ATOM    128  H   SGN d 304      80.145  18.756 106.437  0.00  0.00     0.231 HD
ATOM    129  H   SGN d 304      83.818  22.258 105.478  0.00  0.00     0.091 H 
ATOM    130  O5S SGN d 302      81.439  32.413 108.227  0.00  0.00    -0.572 OA
ATOM    131  C4  SGN d 302      86.703  29.587 107.680  0.00  0.00     0.095 C 
ATOM    132  O1S SGN d 302      90.221  28.972 103.526  0.00  0.00    -0.296 OA
ATOM    133  O3  SGN d 302      88.913  29.103 106.894  0.00  0.00    -0.391 OA
ATOM    134  O2S SGN d 302      88.424  30.440 103.079  0.00  0.00    -0.296 OA
ATOM    135  C1  SGN d 302      85.623  28.811 105.108  0.00  0.00     0.150 C 
ATOM    136  C5  SGN d 302      85.236  29.229 107.489  0.00  0.00     0.091 C 
ATOM    137  O3S SGN d 302      88.589  28.422 101.895  0.00  0.00    -0.296 OA
ATOM    138  O5  SGN d 302      84.852  29.515 106.118  0.00  0.00    -0.349 OA
ATOM    139  C6  SGN d 302      84.387  30.025 108.470  0.00  0.00     0.067 C 
ATOM    140  S1  SGN d 302      88.830  29.070 103.160  0.00  0.00     0.156 S 
ATOM    141  O4S SGN d 302      81.022  30.091 108.082  0.00  0.00    -0.572 OA
ATOM    142  O6S SGN d 302      82.085  31.006 109.990  0.00  0.00    -0.572 OA
ATOM    143  O4  SGN d 302      87.069  29.269 108.991  0.00  0.00    -0.348 OA
ATOM    144  N   SGN d 302      87.850  28.304 104.417  0.00  0.00    -0.210 NA
ATOM    145  C3  SGN d 302      87.546  28.774 106.718  0.00  0.00     0.083 C 
ATOM    146  C2  SGN d 302      87.102  29.151 105.314  0.00  0.00     0.081 C 
ATOM    147  S2  SGN d 302      81.923  31.101 108.561  0.00  0.00     0.251 S 
ATOM    148  O6  SGN d 302      83.491  30.883 107.800  0.00  0.00    -0.254 OA
ATOM    149  O1  SGN d 302      85.503  27.394 105.225  0.00  0.00    -0.348 OA
ATOM    150  H   SGN d 302      86.856  30.630 107.494  0.00  0.00     0.091 H 
ATOM    151  H   SGN d 302      90.766  29.390 102.841  0.00  0.00     0.231 HD
ATOM    152  H   SGN d 302      89.191  28.860 107.791  0.00  0.00     0.210 HD
ATOM    153  H   SGN d 302      88.944  30.892 102.396  0.00  0.00     0.231 HD
ATOM    154  H   SGN d 302      85.254  29.112 104.149  0.00  0.00     0.131 H 
ATOM    155  H   SGN d 302      85.081  28.188 107.679  0.00  0.00     0.090 H 
ATOM    156  H   SGN d 302      89.127  28.844 101.207  0.00  0.00     0.231 HD
ATOM    157  H   SGN d 302      85.032  30.612 109.091  0.00  0.00     0.080 H 
ATOM    158  H   SGN d 302      83.818  29.336 109.058  0.00  0.00     0.080 H 
ATOM    159  H   SGN d 302      88.479  27.740 104.989  0.00  0.00     0.140 HD
ATOM    160  H   SGN d 302      87.426  27.725 106.888  0.00  0.00     0.089 H 
ATOM    161  H   SGN d 302      87.255  30.197 105.148  0.00  0.00     0.076 H 
ENDROOT
TORSDOF 50
ENDMDL
MODEL 44
REMARK VINA RESULT:     -10.2      3.425     15.151
REMARK  0 active torsions:
REMARK  status: ('A' for Active; 'I' for Inactive)
REMARK       I    between atoms: S_1  and  O2_2 
REMARK       I    between atoms: O2_2  and  C2_99 
REMARK       I    between atoms: C3_3  and  O3_50 
REMARK       I    between atoms: C2_5  and  O2_57 
REMARK       I    between atoms: O1S_6  and  S1_33 
REMARK       I    between atoms: O3_7  and  C3_52 
REMARK       I    between atoms: O6_9  and  C6_34 
REMARK       I    between atoms: O6_9  and  S2_17 
REMARK       I    between atoms: C2_13  and  N_73 
REMARK       I    between atoms: S_16  and  O2_57 
REMARK       I    between atoms: C1_20  and  O4_43 
REMARK       I    between atoms: C6_21  and  C5_67 
REMARK       I    between atoms: C6_21  and  O6_75 
REMARK       I    between atoms: N_22  and  C2_66 
REMARK       I    between atoms: N_22  and  S1_69 
REMARK       I    between atoms: S2_23  and  O6_75 
REMARK       I    between atoms: C1_24  and  O4_78 
REMARK       I    between atoms: C4_25  and  O4_78 
REMARK       I    between atoms: O3_26  and  C3_81 
REMARK       I    between atoms: O1S_27  and  S1_60 
REMARK       I    between atoms: O3S_28  and  S1_69 
REMARK       I    between atoms: O3_29  and  C3_87 
REMARK       I    between atoms: C6_30  and  C5_80 
REMARK       I    between atoms: O2S_32  and  S1_60 
REMARK       I    between atoms: S1_33  and  N_73 
REMARK       I    between atoms: S1_33  and  O2S_94 
REMARK       I    between atoms: S1_33  and  O3S_35 
REMARK       I    between atoms: C6_34  and  C5_38 
REMARK       I    between atoms: C2_36  and  O2_93 
REMARK       I    between atoms: O3_37  and  C3_65 
REMARK       I    between atoms: C1_40  and  O1_105 
REMARK       I    between atoms: O2S_41  and  S1_69 
REMARK       I    between atoms: C5_42  and  C6_54 
REMARK       I    between atoms: O4_43  and  C4_92 
REMARK       I    between atoms: O1_44  and  C1_62 
REMARK       I    between atoms: O1_44  and  C4_83 
REMARK       I    between atoms: C1_45  and  O4_102 
REMARK       I    between atoms: C4_46  and  O1_105 
REMARK       I    between atoms: O3S_47  and  S1_60 
REMARK       I    between atoms: C5_53  and  C6_61 
REMARK       I    between atoms: C6_54  and  O6_98 
REMARK       I    between atoms: O3_56  and  C3_84 
REMARK       I    between atoms: C5_59  and  C6_63 
REMARK       I    between atoms: S1_60  and  N_86 
REMARK       I    between atoms: S1_69  and  O1S_91 
REMARK       I    between atoms: O1_70  and  C1_96 
REMARK       I    between atoms: S_82  and  O2_93 
REMARK       I    between atoms: N_86  and  C2_90 
REMARK       I    between atoms: S2_95  and  O6_98 
REMARK       I    between atoms: C4_100  and  O4_102 
ROOT
ATOM      1  S   IDS d 303      82.448  22.745 105.420  0.00  0.00     0.252 S 
ATOM      2  O2  IDS d 303      82.427  23.022 103.689  0.00  0.00    -0.244 OA
ATOM      3  O61 IDS d 303      80.266  23.452  98.417  0.00  0.00    -0.646 OA
ATOM      4  O3  IDS d 303      83.173  20.817 100.998  0.00  0.00    -0.390 OA
ATOM      5  O3S IDS d 303      83.450  21.737 105.666  0.00  0.00    -0.572 OA
ATOM      6  C1  IDS d 303      80.699  21.670 102.724  0.00  0.00     0.161 C 
ATOM      7  C4  IDS d 303      82.424  23.099 100.683  0.00  0.00     0.103 C 
ATOM      8  O2S IDS d 303      82.760  23.985 106.075  0.00  0.00    -0.572 OA
ATOM      9  C3  IDS d 303      83.033  22.037 101.627  0.00  0.00     0.094 C 
ATOM     10  C5  IDS d 303      80.916  22.875 100.610  0.00  0.00     0.152 C 
ATOM     11  C6  IDS d 303      80.260  23.779  99.606  0.00  0.00     0.206 C 
ATOM     12  O62 IDS d 303      79.566  24.703 100.073  0.00  0.00    -0.646 OA
ATOM     13  O5  IDS d 303      80.184  22.610 101.792  0.00  0.00    -0.340 OA
ATOM     14  C2  IDS d 303      82.215  21.883 102.920  0.00  0.00     0.134 C 
ATOM     15  O1S IDS d 303      81.149  22.293 105.799  0.00  0.00    -0.572 OA
ATOM     16  H   IDS d 303      83.690  20.928 100.186  0.00  0.00     0.210 HD
ATOM     17  H   IDS d 303      80.169  21.852 103.635  0.00  0.00     0.133 H 
ATOM     18  H   IDS d 303      82.900  23.018  99.727  0.00  0.00     0.092 H 
ATOM     19  H   IDS d 303      84.009  22.389 101.893  0.00  0.00     0.091 H 
ATOM     20  H   IDS d 303      80.856  21.877 100.231  0.00  0.00     0.104 H 
ATOM     21  H   IDS d 303      82.556  20.987 103.396  0.00  0.00     0.097 H 
ATOM     22  C3  SGN d 306      77.946  11.098 105.876  0.00  0.00     0.083 C 
ATOM     23  O1S SGN d 306      76.348  12.088 109.043  0.00  0.00    -0.296 OA
ATOM     24  O4S SGN d 306      85.136  11.648 104.750  0.00  0.00    -0.572 OA
ATOM     25  O5S SGN d 306      83.867  13.444 103.882  0.00  0.00    -0.572 OA
ATOM     26  C2  SGN d 306      78.514  10.774 107.250  0.00  0.00     0.081 C 
ATOM     27  O5  SGN d 306      80.710  10.490 106.264  0.00  0.00    -0.350 OA
ATOM     28  C6  SGN d 306      81.345  11.401 104.106  0.00  0.00     0.067 C 
ATOM     29  S2  SGN d 306      83.963  12.017 104.011  0.00  0.00     0.251 S 
ATOM     30  S1  SGN d 306      76.747  10.735 109.337  0.00  0.00     0.156 S 
ATOM     31  O3S SGN d 306      75.601   9.949 109.719  0.00  0.00    -0.296 OA
ATOM     32  O4  SGN d 306      78.498  12.102 103.749  0.00  0.00    -0.348 OA
ATOM     33  O3  SGN d 306      76.819  11.940 106.036  0.00  0.00    -0.391 OA
ATOM     34  O6S SGN d 306      83.970  11.410 102.704  0.00  0.00    -0.572 OA
ATOM     35  C5  SGN d 306      80.215  10.807 104.927  0.00  0.00     0.091 C 
ATOM     36  O1  SGN d 306      79.371   8.578 106.720  0.00  0.00    -0.369 OA
ATOM     37  N   SGN d 306      77.492  10.016 107.916  0.00  0.00    -0.210 NA
ATOM     38  O6  SGN d 306      82.533  11.463 104.865  0.00  0.00    -0.254 OA
ATOM     39  C4  SGN d 306      79.032  11.793 105.049  0.00  0.00     0.095 C 
ATOM     40  O2S SGN d 306      77.731  10.716 110.375  0.00  0.00    -0.296 OA
ATOM     41  C1  SGN d 306      79.758   9.876 107.161  0.00  0.00     0.147 C 
ATOM     42  H   SGN d 306      77.641  10.207 105.369  0.00  0.00     0.089 H 
ATOM     43  H   SGN d 306      77.127  12.607 108.788  0.00  0.00     0.231 HD
ATOM     44  H   SGN d 306      78.792  11.679 107.749  0.00  0.00     0.076 H 
ATOM     45  H   SGN d 306      81.073  12.388 103.797  0.00  0.00     0.080 H 
ATOM     46  H   SGN d 306      81.514  10.778 103.253  0.00  0.00     0.080 H 
ATOM     47  H   SGN d 306      74.942   9.971 109.008  0.00  0.00     0.231 HD
ATOM     48  H   SGN d 306      77.085  12.752 106.495  0.00  0.00     0.210 HD
ATOM     49  H   SGN d 306      79.868   9.922 104.435  0.00  0.00     0.090 H 
ATOM     50  H   SGN d 306      78.734   8.200 107.346  0.00  0.00     0.212 HD
ATOM     51  H   SGN d 306      77.907   9.130 108.203  0.00  0.00     0.140 HD
ATOM     52  H   SGN d 306      79.360  12.702 105.507  0.00  0.00     0.091 H 
ATOM     53  H   SGN d 306      78.496  11.247 110.105  0.00  0.00     0.231 HD
ATOM     54  H   SGN d 306      80.221   9.767 108.120  0.00  0.00     0.131 H 
ATOM     55  C2  UAP d 301      80.600  30.519  99.204  0.00  0.00     0.132 C 
ATOM     56  S   UAP d 301      80.900  31.937  97.018  0.00  0.00     0.252 S 
ATOM     57  O1S UAP d 301      80.439  33.237  96.719  0.00  0.00    -0.572 OA
ATOM     58  C1  UAP d 301      81.705  30.012 100.107  0.00  0.00     0.161 C 
ATOM     59  O61 UAP d 301      79.289  31.797 103.928  0.00  0.00    -0.646 OA
ATOM     60  C5  UAP d 301      80.419  30.925 101.991  0.00  0.00     0.127 C 
ATOM     61  O3  UAP d 301      78.557  29.369  99.463  0.00  0.00    -0.393 OA
ATOM     62  O2  UAP d 301      80.924  31.790  98.753  0.00  0.00    -0.244 OA
ATOM     63  O5  UAP d 301      81.667  30.613 101.397  0.00  0.00    -0.343 OA
ATOM     64  C6  UAP d 301      80.379  31.478 103.411  0.00  0.00     0.203 C 
ATOM     65  O62 UAP d 301      81.483  31.612 103.982  0.00  0.00    -0.646 OA
ATOM     66  O3S UAP d 301      82.253  31.750  96.592  0.00  0.00    -0.572 OA
ATOM     67  O2S UAP d 301      80.008  30.953  96.455  0.00  0.00    -0.572 OA
ATOM     68  C3  UAP d 301      79.169  30.585  99.759  0.00  0.00     0.069 C 
ATOM     69  C4  UAP d 301      79.064  30.875 101.282  0.00  0.00    -0.005 C 
ATOM     70  H   UAP d 301      80.562  29.768  98.443  0.00  0.00     0.097 H 
ATOM     71  H   UAP d 301      82.671  30.258  99.715  0.00  0.00     0.133 H 
ATOM     72  H   UAP d 301      80.690  29.977 101.576  0.00  0.00     0.100 H 
ATOM     73  H   UAP d 301      78.626  29.196  98.511  0.00  0.00     0.210 HD
ATOM     74  H   UAP d 301      78.684  31.419  99.295  0.00  0.00     0.087 H 
ATOM     75  H   UAP d 301      78.579  31.821 101.415  0.00  0.00     0.041 H 
ATOM     76  H   UAP d 301      78.512  30.070 101.718  0.00  0.00     0.041 H 
ATOM     77  O5  IDS d 305      78.583  14.510 103.903  0.00  0.00    -0.340 OA
ATOM     78  O62 IDS d 305      77.946  16.699 105.482  0.00  0.00    -0.646 OA
ATOM     79  C1  IDS d 305      78.846  13.343 103.121  0.00  0.00     0.161 C 
ATOM     80  O3  IDS d 305      75.842  13.591 101.491  0.00  0.00    -0.390 OA
ATOM     81  C6  IDS d 305      77.010  16.269 104.769  0.00  0.00     0.206 C 
ATOM     82  C2  IDS d 305      78.189  13.397 101.716  0.00  0.00     0.134 C 
ATOM     83  C5  IDS d 305      77.376  15.209 103.730  0.00  0.00     0.152 C 
ATOM     84  C3  IDS d 305      76.998  14.327 101.414  0.00  0.00     0.094 C 
ATOM     85  S   IDS d 305      80.378  14.330 100.338  0.00  0.00     0.252 S 
ATOM     86  C4  IDS d 305      76.909  15.566 102.326  0.00  0.00     0.103 C 
ATOM     87  O3S IDS d 305      81.120  13.830  99.239  0.00  0.00    -0.572 OA
ATOM     88  O1S IDS d 305      81.196  14.377 101.496  0.00  0.00    -0.572 OA
ATOM     89  O2  IDS d 305      79.055  13.184 100.609  0.00  0.00    -0.244 OA
ATOM     90  O61 IDS d 305      75.897  16.818 104.705  0.00  0.00    -0.646 OA
ATOM     91  O2S IDS d 305      79.839  15.610 100.052  0.00  0.00    -0.572 OA
ATOM     92  H   IDS d 305      79.911  13.362 103.021  0.00  0.00     0.133 H 
ATOM     93  H   IDS d 305      75.913  12.815 100.913  0.00  0.00     0.210 HD
ATOM     94  H   IDS d 305      77.631  12.495 101.865  0.00  0.00     0.097 H 
ATOM     95  H   IDS d 305      76.762  14.364 103.964  0.00  0.00     0.104 H 
ATOM     96  H   IDS d 305      77.147  14.718 100.430  0.00  0.00     0.091 H 
ATOM     97  H   IDS d 305      75.891  15.894 102.339  0.00  0.00     0.092 H 
ATOM     98  O6  SGN d 304      77.479  21.223 103.785  0.00  0.00    -0.254 OA
ATOM     99  S2  SGN d 304      77.147  22.510 104.920  0.00  0.00     0.251 S 
ATOM    100  O5S SGN d 304      76.624  23.627 104.178  0.00  0.00    -0.572 OA
ATOM    101  N   SGN d 304      78.157  17.493  99.322  0.00  0.00    -0.210 NA
ATOM    102  O3S SGN d 304      76.514  18.101  97.397  0.00  0.00    -0.296 OA
ATOM    103  C6  SGN d 304      78.182  20.078 104.260  0.00  0.00     0.067 C 
ATOM    104  O3  SGN d 304      79.986  19.577  99.701  0.00  0.00    -0.391 OA
ATOM    105  C5  SGN d 304      78.408  19.179 103.071  0.00  0.00     0.091 C 
ATOM    106  O2S SGN d 304      77.340  15.918  97.477  0.00  0.00    -0.296 OA
ATOM    107  O1  SGN d 304      77.756  16.612 101.834  0.00  0.00    -0.348 OA
ATOM    108  O4S SGN d 304      76.183  22.053 105.874  0.00  0.00    -0.572 OA
ATOM    109  C1  SGN d 304      77.136  17.848 101.471  0.00  0.00     0.150 C 
ATOM    110  C3  SGN d 304      79.315  18.950 100.777  0.00  0.00     0.083 C 
ATOM    111  C2  SGN d 304      77.921  18.512 100.315  0.00  0.00     0.081 C 
ATOM    112  S1  SGN d 304      76.849  17.007  98.251  0.00  0.00     0.156 S 
ATOM    113  O6S SGN d 304      78.386  22.875 105.568  0.00  0.00    -0.572 OA
ATOM    114  O1S SGN d 304      75.695  16.608  99.005  0.00  0.00    -0.296 OA
ATOM    115  O5  SGN d 304      77.106  18.762 102.583  0.00  0.00    -0.349 OA
ATOM    116  C4  SGN d 304      79.151  19.921 101.940  0.00  0.00     0.095 C 
ATOM    117  O4  SGN d 304      80.458  20.318 102.380  0.00  0.00    -0.348 OA
ATOM    118  H   SGN d 304      78.457  16.656  99.822  0.00  0.00     0.140 HD
ATOM    119  H   SGN d 304      77.298  18.366  96.890  0.00  0.00     0.231 HD
ATOM    120  H   SGN d 304      77.599  19.569 105.000  0.00  0.00     0.080 H 
ATOM    121  H   SGN d 304      79.111  20.358 104.711  0.00  0.00     0.080 H 
ATOM    122  H   SGN d 304      80.084  18.948  98.970  0.00  0.00     0.210 HD
ATOM    123  H   SGN d 304      79.008  18.343 103.366  0.00  0.00     0.090 H 
ATOM    124  H   SGN d 304      78.118  16.204  96.974  0.00  0.00     0.231 HD
ATOM    125  H   SGN d 304      76.132  17.632 101.167  0.00  0.00     0.131 H 
ATOM    126  H   SGN d 304      79.892  18.106 101.094  0.00  0.00     0.089 H 
ATOM    127  H   SGN d 304      77.363  19.352  99.959  0.00  0.00     0.076 H 
ATOM    128  H   SGN d 304      75.373  17.360  99.526  0.00  0.00     0.231 HD
ATOM    129  H   SGN d 304      78.596  20.790 101.654  0.00  0.00     0.091 H 
ATOM    130  O5S SGN d 302      84.421  26.663  94.732  0.00  0.00    -0.572 OA
ATOM    131  C4  SGN d 302      82.608  27.795 100.338  0.00  0.00     0.095 C 
ATOM    132  O1S SGN d 302      84.855  26.931 105.258  0.00  0.00    -0.296 OA
ATOM    133  O3  SGN d 302      82.740  28.313 102.672  0.00  0.00    -0.391 OA
ATOM    134  O2S SGN d 302      86.271  26.433 103.432  0.00  0.00    -0.296 OA
ATOM    135  C1  SGN d 302      83.738  25.180 100.859  0.00  0.00     0.150 C 
ATOM    136  C5  SGN d 302      82.481  26.643  99.351  0.00  0.00     0.091 C 
ATOM    137  O3S SGN d 302      85.539  24.700 104.833  0.00  0.00    -0.296 OA
ATOM    138  O5  SGN d 302      83.606  25.742  99.526  0.00  0.00    -0.349 OA
ATOM    139  C6  SGN d 302      82.437  27.193  97.932  0.00  0.00     0.067 C 
ATOM    140  S1  SGN d 302      85.186  25.966 104.240  0.00  0.00     0.156 S 
ATOM    141  O4S SGN d 302      82.779  25.067  95.316  0.00  0.00    -0.572 OA
ATOM    142  O6S SGN d 302      82.192  27.342  95.018  0.00  0.00    -0.572 OA
ATOM    143  O4  SGN d 302      81.498  28.631 100.186  0.00  0.00    -0.348 OA
ATOM    144  N   SGN d 302      83.790  25.754 103.175  0.00  0.00    -0.210 NA
ATOM    145  C3  SGN d 302      82.625  27.245 101.750  0.00  0.00     0.083 C 
ATOM    146  C2  SGN d 302      83.841  26.338 101.856  0.00  0.00     0.081 C 
ATOM    147  S2  SGN d 302      83.211  26.427  95.472  0.00  0.00     0.251 S 
ATOM    148  O6  SGN d 302      83.534  26.739  97.170  0.00  0.00    -0.254 OA
ATOM    149  O1  SGN d 302      82.598  24.409 101.236  0.00  0.00    -0.348 OA
ATOM    150  H   SGN d 302      83.511  28.339 100.156  0.00  0.00     0.091 H 
ATOM    151  H   SGN d 302      85.616  27.053 105.847  0.00  0.00     0.231 HD
ATOM    152  H   SGN d 302      81.962  28.888 102.601  0.00  0.00     0.210 HD
ATOM    153  H   SGN d 302      87.056  26.560 103.988  0.00  0.00     0.231 HD
ATOM    154  H   SGN d 302      84.601  24.548 100.861  0.00  0.00     0.131 H 
ATOM    155  H   SGN d 302      81.576  26.101  99.528  0.00  0.00     0.090 H 
ATOM    156  H   SGN d 302      86.304  24.818 105.416  0.00  0.00     0.231 HD
ATOM    157  H   SGN d 302      82.461  28.262  97.972  0.00  0.00     0.080 H 
ATOM    158  H   SGN d 302      81.538  26.850  97.466  0.00  0.00     0.080 H 
ATOM    159  H   SGN d 302      82.983  26.155 103.652  0.00  0.00     0.140 HD
ATOM    160  H   SGN d 302      81.727  26.706 101.968  0.00  0.00     0.089 H 
ATOM    161  H   SGN d 302      84.733  26.896 101.665  0.00  0.00     0.076 H 
ENDROOT
TORSDOF 50
ENDMDL
MODEL 45
REMARK VINA RESULT:     -10.2      6.114     12.143
REMARK  0 active torsions:
REMARK  status: ('A' for Active; 'I' for Inactive)
REMARK       I    between atoms: S_1  and  O2_2 
REMARK       I    between atoms: O2_2  and  C2_99 
REMARK       I    between atoms: C3_3  and  O3_50 
REMARK       I    between atoms: C2_5  and  O2_57 
REMARK       I    between atoms: O1S_6  and  S1_33 
REMARK       I    between atoms: O3_7  and  C3_52 
REMARK       I    between atoms: O6_9  and  C6_34 
REMARK       I    between atoms: O6_9  and  S2_17 
REMARK       I    between atoms: C2_13  and  N_73 
REMARK       I    between atoms: S_16  and  O2_57 
REMARK       I    between atoms: C1_20  and  O4_43 
REMARK       I    between atoms: C6_21  and  C5_67 
REMARK       I    between atoms: C6_21  and  O6_75 
REMARK       I    between atoms: N_22  and  C2_66 
REMARK       I    between atoms: N_22  and  S1_69 
REMARK       I    between atoms: S2_23  and  O6_75 
REMARK       I    between atoms: C1_24  and  O4_78 
REMARK       I    between atoms: C4_25  and  O4_78 
REMARK       I    between atoms: O3_26  and  C3_81 
REMARK       I    between atoms: O1S_27  and  S1_60 
REMARK       I    between atoms: O3S_28  and  S1_69 
REMARK       I    between atoms: O3_29  and  C3_87 
REMARK       I    between atoms: C6_30  and  C5_80 
REMARK       I    between atoms: O2S_32  and  S1_60 
REMARK       I    between atoms: S1_33  and  N_73 
REMARK       I    between atoms: S1_33  and  O2S_94 
REMARK       I    between atoms: S1_33  and  O3S_35 
REMARK       I    between atoms: C6_34  and  C5_38 
REMARK       I    between atoms: C2_36  and  O2_93 
REMARK       I    between atoms: O3_37  and  C3_65 
REMARK       I    between atoms: C1_40  and  O1_105 
REMARK       I    between atoms: O2S_41  and  S1_69 
REMARK       I    between atoms: C5_42  and  C6_54 
REMARK       I    between atoms: O4_43  and  C4_92 
REMARK       I    between atoms: O1_44  and  C1_62 
REMARK       I    between atoms: O1_44  and  C4_83 
REMARK       I    between atoms: C1_45  and  O4_102 
REMARK       I    between atoms: C4_46  and  O1_105 
REMARK       I    between atoms: O3S_47  and  S1_60 
REMARK       I    between atoms: C5_53  and  C6_61 
REMARK       I    between atoms: C6_54  and  O6_98 
REMARK       I    between atoms: O3_56  and  C3_84 
REMARK       I    between atoms: C5_59  and  C6_63 
REMARK       I    between atoms: S1_60  and  N_86 
REMARK       I    between atoms: S1_69  and  O1S_91 
REMARK       I    between atoms: O1_70  and  C1_96 
REMARK       I    between atoms: S_82  and  O2_93 
REMARK       I    between atoms: N_86  and  C2_90 
REMARK       I    between atoms: S2_95  and  O6_98 
REMARK       I    between atoms: C4_100  and  O4_102 
ROOT
ATOM      1  S   IDS d 303      79.956  21.580 104.858  0.00  0.00     0.252 S 
ATOM      2  O2  IDS d 303      80.179  19.974 104.193  0.00  0.00    -0.244 OA
ATOM      3  O61 IDS d 303      81.128  15.962 100.236  0.00  0.00    -0.646 OA
ATOM      4  O3  IDS d 303      77.780  17.583 103.104  0.00  0.00    -0.390 OA
ATOM      5  O3S IDS d 303      78.690  21.570 105.550  0.00  0.00    -0.572 OA
ATOM      6  C1  IDS d 303      79.416  19.980 101.920  0.00  0.00     0.161 C 
ATOM      7  C4  IDS d 303      80.173  17.234 102.954  0.00  0.00     0.103 C 
ATOM      8  O2S IDS d 303      81.051  21.861 105.744  0.00  0.00    -0.572 OA
ATOM      9  C3  IDS d 303      78.998  18.018 103.583  0.00  0.00     0.094 C 
ATOM     10  C5  IDS d 303      80.434  17.790 101.557  0.00  0.00     0.152 C 
ATOM     11  C6  IDS d 303      81.472  16.993 100.818  0.00  0.00     0.206 C 
ATOM     12  O62 IDS d 303      82.579  17.544 100.668  0.00  0.00    -0.646 OA
ATOM     13  O5  IDS d 303      80.446  19.189 101.344  0.00  0.00    -0.340 OA
ATOM     14  C2  IDS d 303      79.145  19.535 103.372  0.00  0.00     0.134 C 
ATOM     15  O1S IDS d 303      79.947  22.500 103.768  0.00  0.00    -0.572 OA
ATOM     16  H   IDS d 303      77.701  16.626 103.242  0.00  0.00     0.210 HD
ATOM     17  H   IDS d 303      79.781  20.986 101.893  0.00  0.00     0.133 H 
ATOM     18  H   IDS d 303      79.920  16.193 102.944  0.00  0.00     0.092 H 
ATOM     19  H   IDS d 303      79.031  17.826 104.635  0.00  0.00     0.091 H 
ATOM     20  H   IDS d 303      79.496  17.623 101.071  0.00  0.00     0.104 H 
ATOM     21  H   IDS d 303      78.200  19.974 103.619  0.00  0.00     0.097 H 
ATOM     22  C3  SGN d 306      70.341  25.554  97.937  0.00  0.00     0.083 C 
ATOM     23  O1S SGN d 306      71.869  28.898  98.152  0.00  0.00    -0.296 OA
ATOM     24  O4S SGN d 306      68.564  21.647 103.840  0.00  0.00    -0.572 OA
ATOM     25  O5S SGN d 306      70.645  21.074 102.875  0.00  0.00    -0.572 OA
ATOM     26  C2  SGN d 306      69.892  26.630  98.913  0.00  0.00     0.081 C 
ATOM     27  O5  SGN d 306      68.903  24.923 100.323  0.00  0.00    -0.350 OA
ATOM     28  C6  SGN d 306      69.509  22.576 100.222  0.00  0.00     0.067 C 
ATOM     29  S2  SGN d 306      69.265  21.375 102.617  0.00  0.00     0.251 S 
ATOM     30  S1  SGN d 306      70.467  29.219  98.247  0.00  0.00     0.156 S 
ATOM     31  O3S SGN d 306      70.095  30.134  97.197  0.00  0.00    -0.296 OA
ATOM     32  O4  SGN d 306      71.062  23.251  97.801  0.00  0.00    -0.348 OA
ATOM     33  O3  SGN d 306      71.499  26.007  97.261  0.00  0.00    -0.391 OA
ATOM     34  O6S SGN d 306      68.651  20.280 101.909  0.00  0.00    -0.572 OA
ATOM     35  C5  SGN d 306      69.324  23.854  99.423  0.00  0.00     0.091 C 
ATOM     36  O1  SGN d 306      67.524  26.155  98.827  0.00  0.00    -0.369 OA
ATOM     37  N   SGN d 306      69.513  27.750  98.098  0.00  0.00    -0.210 NA
ATOM     38  O6  SGN d 306      69.213  22.794 101.584  0.00  0.00    -0.254 OA
ATOM     39  C4  SGN d 306      70.635  24.272  98.723  0.00  0.00     0.095 C 
ATOM     40  O2S SGN d 306      70.166  29.781  99.527  0.00  0.00    -0.296 OA
ATOM     41  C1  SGN d 306      68.644  26.205  99.704  0.00  0.00     0.147 C 
ATOM     42  H   SGN d 306      69.579  25.350  97.214  0.00  0.00     0.089 H 
ATOM     43  H   SGN d 306      72.109  28.282  98.863  0.00  0.00     0.231 HD
ATOM     44  H   SGN d 306      70.676  26.835  99.612  0.00  0.00     0.076 H 
ATOM     45  H   SGN d 306      70.523  22.248 100.130  0.00  0.00     0.080 H 
ATOM     46  H   SGN d 306      68.842  21.832  99.839  0.00  0.00     0.080 H 
ATOM     47  H   SGN d 306      70.304  29.741  96.336  0.00  0.00     0.231 HD
ATOM     48  H   SGN d 306      72.198  26.194  97.907  0.00  0.00     0.210 HD
ATOM     49  H   SGN d 306      68.581  23.679  98.672  0.00  0.00     0.090 H 
ATOM     50  H   SGN d 306      67.383  27.031  98.433  0.00  0.00     0.212 HD
ATOM     51  H   SGN d 306      68.549  27.987  98.333  0.00  0.00     0.140 HD
ATOM     52  H   SGN d 306      71.407  24.419  99.448  0.00  0.00     0.091 H 
ATOM     53  H   SGN d 306      70.422  29.156 100.222  0.00  0.00     0.231 HD
ATOM     54  H   SGN d 306      68.421  26.912 100.476  0.00  0.00     0.131 H 
ATOM     55  C2  UAP d 301      87.747  15.450 102.806  0.00  0.00     0.132 C 
ATOM     56  S   UAP d 301      88.939  13.129 102.543  0.00  0.00     0.252 S 
ATOM     57  O1S UAP d 301      90.309  12.835 102.378  0.00  0.00    -0.572 OA
ATOM     58  C1  UAP d 301      86.941  15.918 104.000  0.00  0.00     0.161 C 
ATOM     59  O61 UAP d 301      89.499  20.052 104.000  0.00  0.00    -0.646 OA
ATOM     60  C5  UAP d 301      88.263  17.989 103.927  0.00  0.00     0.127 C 
ATOM     61  O3  UAP d 301      87.308  16.659 100.829  0.00  0.00    -0.393 OA
ATOM     62  O2  UAP d 301      88.838  14.718 103.249  0.00  0.00    -0.244 OA
ATOM     63  O5  UAP d 301      87.558  17.012 104.672  0.00  0.00    -0.343 OA
ATOM     64  C6  UAP d 301      88.838  19.208 104.638  0.00  0.00     0.203 C 
ATOM     65  O62 UAP d 301      88.633  19.275 105.870  0.00  0.00    -0.646 OA
ATOM     66  O3S UAP d 301      88.323  12.245 103.484  0.00  0.00    -0.572 OA
ATOM     67  O2S UAP d 301      88.272  13.118 101.264  0.00  0.00    -0.572 OA
ATOM     68  C3  UAP d 301      88.276  16.501 101.818  0.00  0.00     0.069 C 
ATOM     69  C4  UAP d 301      88.625  17.880 102.445  0.00  0.00    -0.005 C 
ATOM     70  H   UAP d 301      87.027  14.891 102.247  0.00  0.00     0.097 H 
ATOM     71  H   UAP d 301      86.860  15.149 104.740  0.00  0.00     0.133 H 
ATOM     72  H   UAP d 301      87.268  17.654 103.726  0.00  0.00     0.100 H 
ATOM     73  H   UAP d 301      87.096  15.795 100.443  0.00  0.00     0.210 HD
ATOM     74  H   UAP d 301      89.208  16.140 101.434  0.00  0.00     0.087 H 
ATOM     75  H   UAP d 301      89.678  18.042 102.341  0.00  0.00     0.041 H 
ATOM     76  H   UAP d 301      88.047  18.616 101.926  0.00  0.00     0.041 H 
ATOM     77  O5  IDS d 305      73.324  22.985  98.605  0.00  0.00    -0.340 OA
ATOM     78  O62 IDS d 305      75.644  24.327  99.318  0.00  0.00    -0.646 OA
ATOM     79  C1  IDS d 305      72.113  22.354  98.183  0.00  0.00     0.161 C 
ATOM     80  O3  IDS d 305      73.253  22.004  94.971  0.00  0.00    -0.390 OA
ATOM     81  C6  IDS d 305      75.512  24.111  98.092  0.00  0.00     0.206 C 
ATOM     82  C2  IDS d 305      72.334  21.325  97.042  0.00  0.00     0.134 C 
ATOM     83  C5  IDS d 305      74.364  23.189  97.681  0.00  0.00     0.152 C 
ATOM     84  C3  IDS d 305      73.584  21.371  96.142  0.00  0.00     0.094 C 
ATOM     85  S   IDS d 305      72.492  19.077  98.617  0.00  0.00     0.252 S 
ATOM     86  C4  IDS d 305      74.811  22.041  96.788  0.00  0.00     0.103 C 
ATOM     87  O3S IDS d 305      71.754  17.868  98.662  0.00  0.00    -0.572 OA
ATOM     88  O1S IDS d 305      72.309  19.803  99.823  0.00  0.00    -0.572 OA
ATOM     89  O2  IDS d 305      71.829  20.016  97.270  0.00  0.00    -0.244 OA
ATOM     90  O61 IDS d 305      76.382  24.400  97.253  0.00  0.00    -0.646 OA
ATOM     91  O2S IDS d 305      73.868  18.829  98.385  0.00  0.00    -0.572 OA
ATOM     92  H   IDS d 305      71.792  21.846  99.068  0.00  0.00     0.133 H 
ATOM     93  H   IDS d 305      72.479  21.572  94.576  0.00  0.00     0.210 HD
ATOM     94  H   IDS d 305      71.659  21.818  96.372  0.00  0.00     0.097 H 
ATOM     95  H   IDS d 305      73.762  23.772  97.015  0.00  0.00     0.104 H 
ATOM     96  H   IDS d 305      73.882  20.358  95.967  0.00  0.00     0.091 H 
ATOM     97  H   IDS d 305      75.444  22.399  96.003  0.00  0.00     0.092 H 
ATOM     98  O6  SGN d 304      80.037  22.266  99.454  0.00  0.00    -0.254 OA
ATOM     99  S2  SGN d 304      81.392  23.227  99.996  0.00  0.00     0.251 S 
ATOM    100  O5S SGN d 304      82.597  22.583  99.542  0.00  0.00    -0.572 OA
ATOM    101  N   SGN d 304      76.165  18.529  97.144  0.00  0.00    -0.210 NA
ATOM    102  O3S SGN d 304      77.209  17.326  95.086  0.00  0.00    -0.296 OA
ATOM    103  C6  SGN d 304      78.741  22.602  99.945  0.00  0.00     0.067 C 
ATOM    104  O3  SGN d 304      77.575  17.838  99.462  0.00  0.00    -0.391 OA
ATOM    105  C5  SGN d 304      77.785  21.573  99.395  0.00  0.00     0.091 C 
ATOM    106  O2S SGN d 304      74.880  17.416  95.231  0.00  0.00    -0.296 OA
ATOM    107  O1  SGN d 304      75.523  21.102  97.605  0.00  0.00    -0.348 OA
ATOM    108  O4S SGN d 304      81.289  24.540  99.435  0.00  0.00    -0.572 OA
ATOM    109  C1  SGN d 304      76.882  20.823  97.257  0.00  0.00     0.150 C 
ATOM    110  C3  SGN d 304      77.221  19.173  99.157  0.00  0.00     0.083 C 
ATOM    111  C2  SGN d 304      77.233  19.364  97.637  0.00  0.00     0.081 C 
ATOM    112  S1  SGN d 304      76.089  18.141  95.430  0.00  0.00     0.156 S 
ATOM    113  O6S SGN d 304      81.365  23.277 101.441  0.00  0.00    -0.572 OA
ATOM    114  O1S SGN d 304      76.095  19.337  94.637  0.00  0.00    -0.296 OA
ATOM    115  O5  SGN d 304      77.788  21.702  97.949  0.00  0.00    -0.349 OA
ATOM    116  C4  SGN d 304      78.224  20.142  99.770  0.00  0.00     0.095 C 
ATOM    117  O4  SGN d 304      78.200  19.972 101.194  0.00  0.00    -0.348 OA
ATOM    118  H   SGN d 304      75.290  18.996  97.381  0.00  0.00     0.140 HD
ATOM    119  H   SGN d 304      77.199  16.519  95.624  0.00  0.00     0.231 HD
ATOM    120  H   SGN d 304      78.462  23.579  99.609  0.00  0.00     0.080 H 
ATOM    121  H   SGN d 304      78.726  22.607 101.014  0.00  0.00     0.080 H 
ATOM    122  H   SGN d 304      76.928  17.233  99.066  0.00  0.00     0.210 HD
ATOM    123  H   SGN d 304      76.811  21.738  99.806  0.00  0.00     0.090 H 
ATOM    124  H   SGN d 304      74.893  16.612  95.773  0.00  0.00     0.231 HD
ATOM    125  H   SGN d 304      76.985  20.971  96.202  0.00  0.00     0.131 H 
ATOM    126  H   SGN d 304      76.247  19.367  99.555  0.00  0.00     0.089 H 
ATOM    127  H   SGN d 304      78.196  19.128  97.236  0.00  0.00     0.076 H 
ATOM    128  H   SGN d 304      76.924  19.818  94.784  0.00  0.00     0.231 HD
ATOM    129  H   SGN d 304      79.217  19.964  99.410  0.00  0.00     0.091 H 
ATOM    130  O5S SGN d 302      82.764  10.501 103.177  0.00  0.00    -0.572 OA
ATOM    131  C4  SGN d 302      84.560  16.121 104.265  0.00  0.00     0.095 C 
ATOM    132  O1S SGN d 302      83.162  19.847 108.029  0.00  0.00    -0.296 OA
ATOM    133  O3  SGN d 302      85.072  18.108 105.499  0.00  0.00    -0.391 OA
ATOM    134  O2S SGN d 302      82.194  17.716 108.353  0.00  0.00    -0.296 OA
ATOM    135  C1  SGN d 302      81.737  16.560 104.739  0.00  0.00     0.150 C 
ATOM    136  C5  SGN d 302      83.481  15.453 103.425  0.00  0.00     0.091 C 
ATOM    137  O3S SGN d 302      80.819  19.541 107.827  0.00  0.00    -0.296 OA
ATOM    138  O5  SGN d 302      82.276  15.313 104.223  0.00  0.00    -0.349 OA
ATOM    139  C6  SGN d 302      83.978  14.096 102.946  0.00  0.00     0.067 C 
ATOM    140  S1  SGN d 302      82.115  18.944 107.623  0.00  0.00     0.156 S 
ATOM    141  O4S SGN d 302      81.784  11.918 101.560  0.00  0.00    -0.572 OA
ATOM    142  O6S SGN d 302      84.119  11.523 101.556  0.00  0.00    -0.572 OA
ATOM    143  O4  SGN d 302      85.699  16.285 103.473  0.00  0.00    -0.348 OA
ATOM    144  N   SGN d 302      82.326  18.553 105.911  0.00  0.00    -0.210 NA
ATOM    145  C3  SGN d 302      84.070  17.482 104.719  0.00  0.00     0.083 C 
ATOM    146  C2  SGN d 302      82.829  17.245 105.564  0.00  0.00     0.081 C 
ATOM    147  S2  SGN d 302      82.942  11.680 102.375  0.00  0.00     0.251 S 
ATOM    148  O6  SGN d 302      83.182  13.048 103.450  0.00  0.00    -0.254 OA
ATOM    149  O1  SGN d 302      81.375  17.466 103.697  0.00  0.00    -0.348 OA
ATOM    150  H   SGN d 302      84.786  15.520 105.121  0.00  0.00     0.091 H 
ATOM    151  H   SGN d 302      83.054  20.067 108.968  0.00  0.00     0.231 HD
ATOM    152  H   SGN d 302      85.861  18.257 104.955  0.00  0.00     0.210 HD
ATOM    153  H   SGN d 302      82.082  17.895 109.300  0.00  0.00     0.231 HD
ATOM    154  H   SGN d 302      80.865  16.324 105.312  0.00  0.00     0.131 H 
ATOM    155  H   SGN d 302      83.257  16.050 102.566  0.00  0.00     0.090 H 
ATOM    156  H   SGN d 302      80.705  19.755 108.766  0.00  0.00     0.231 HD
ATOM    157  H   SGN d 302      84.986  13.958 103.278  0.00  0.00     0.080 H 
ATOM    158  H   SGN d 302      83.924  14.076 101.878  0.00  0.00     0.080 H 
ATOM    159  H   SGN d 302      82.975  19.238 105.523  0.00  0.00     0.140 HD
ATOM    160  H   SGN d 302      83.848  18.113 103.884  0.00  0.00     0.089 H 
ATOM    161  H   SGN d 302      83.072  16.637 106.412  0.00  0.00     0.076 H 
ENDROOT
TORSDOF 50
ENDMDL
MODEL 46
REMARK VINA RESULT:     -10.1      4.207     15.139
REMARK  0 active torsions:
REMARK  status: ('A' for Active; 'I' for Inactive)
REMARK       I    between atoms: S_1  and  O2_2 
REMARK       I    between atoms: O2_2  and  C2_99 
REMARK       I    between atoms: C3_3  and  O3_50 
REMARK       I    between atoms: C2_5  and  O2_57 
REMARK       I    between atoms: O1S_6  and  S1_33 
REMARK       I    between atoms: O3_7  and  C3_52 
REMARK       I    between atoms: O6_9  and  C6_34 
REMARK       I    between atoms: O6_9  and  S2_17 
REMARK       I    between atoms: C2_13  and  N_73 
REMARK       I    between atoms: S_16  and  O2_57 
REMARK       I    between atoms: C1_20  and  O4_43 
REMARK       I    between atoms: C6_21  and  C5_67 
REMARK       I    between atoms: C6_21  and  O6_75 
REMARK       I    between atoms: N_22  and  C2_66 
REMARK       I    between atoms: N_22  and  S1_69 
REMARK       I    between atoms: S2_23  and  O6_75 
REMARK       I    between atoms: C1_24  and  O4_78 
REMARK       I    between atoms: C4_25  and  O4_78 
REMARK       I    between atoms: O3_26  and  C3_81 
REMARK       I    between atoms: O1S_27  and  S1_60 
REMARK       I    between atoms: O3S_28  and  S1_69 
REMARK       I    between atoms: O3_29  and  C3_87 
REMARK       I    between atoms: C6_30  and  C5_80 
REMARK       I    between atoms: O2S_32  and  S1_60 
REMARK       I    between atoms: S1_33  and  N_73 
REMARK       I    between atoms: S1_33  and  O2S_94 
REMARK       I    between atoms: S1_33  and  O3S_35 
REMARK       I    between atoms: C6_34  and  C5_38 
REMARK       I    between atoms: C2_36  and  O2_93 
REMARK       I    between atoms: O3_37  and  C3_65 
REMARK       I    between atoms: C1_40  and  O1_105 
REMARK       I    between atoms: O2S_41  and  S1_69 
REMARK       I    between atoms: C5_42  and  C6_54 
REMARK       I    between atoms: O4_43  and  C4_92 
REMARK       I    between atoms: O1_44  and  C1_62 
REMARK       I    between atoms: O1_44  and  C4_83 
REMARK       I    between atoms: C1_45  and  O4_102 
REMARK       I    between atoms: C4_46  and  O1_105 
REMARK       I    between atoms: O3S_47  and  S1_60 
REMARK       I    between atoms: C5_53  and  C6_61 
REMARK       I    between atoms: C6_54  and  O6_98 
REMARK       I    between atoms: O3_56  and  C3_84 
REMARK       I    between atoms: C5_59  and  C6_63 
REMARK       I    between atoms: S1_60  and  N_86 
REMARK       I    between atoms: S1_69  and  O1S_91 
REMARK       I    between atoms: O1_70  and  C1_96 
REMARK       I    between atoms: S_82  and  O2_93 
REMARK       I    between atoms: N_86  and  C2_90 
REMARK       I    between atoms: S2_95  and  O6_98 
REMARK       I    between atoms: C4_100  and  O4_102 
ROOT
ATOM      1  S   IDS d 303      78.540  21.627 105.999  0.00  0.00     0.252 S 
ATOM      2  O2  IDS d 303      80.011  21.560 105.048  0.00  0.00    -0.244 OA
ATOM      3  O61 IDS d 303      83.452  22.316 100.550  0.00  0.00    -0.646 OA
ATOM      4  O3  IDS d 303      81.324  18.942 103.028  0.00  0.00    -0.390 OA
ATOM      5  O3S IDS d 303      78.258  20.278 106.422  0.00  0.00    -0.572 OA
ATOM      6  C1  IDS d 303      79.411  21.408 102.732  0.00  0.00     0.161 C 
ATOM      7  C4  IDS d 303      82.382  21.109 103.254  0.00  0.00     0.103 C 
ATOM      8  O2S IDS d 303      78.760  22.507 107.114  0.00  0.00    -0.572 OA
ATOM      9  C3  IDS d 303      81.375  20.077 103.810  0.00  0.00     0.094 C 
ATOM     10  C5  IDS d 303      81.727  21.846 102.089  0.00  0.00     0.152 C 
ATOM     11  C6  IDS d 303      82.686  22.775 101.399  0.00  0.00     0.206 C 
ATOM     12  O62 IDS d 303      82.496  23.992 101.585  0.00  0.00    -0.646 OA
ATOM     13  O5  IDS d 303      80.388  22.291 102.198  0.00  0.00    -0.340 OA
ATOM     14  C2  IDS d 303      79.968  20.679 103.973  0.00  0.00     0.134 C 
ATOM     15  O1S IDS d 303      77.507  22.137 105.157  0.00  0.00    -0.572 OA
ATOM     16  H   IDS d 303      82.216  18.573 102.934  0.00  0.00     0.210 HD
ATOM     17  H   IDS d 303      78.581  22.028 102.996  0.00  0.00     0.133 H 
ATOM     18  H   IDS d 303      83.275  20.593 102.967  0.00  0.00     0.092 H 
ATOM     19  H   IDS d 303      81.728  19.797 104.781  0.00  0.00     0.091 H 
ATOM     20  H   IDS d 303      81.512  21.047 101.411  0.00  0.00     0.104 H 
ATOM     21  H   IDS d 303      79.298  19.859 104.129  0.00  0.00     0.097 H 
ATOM     22  C3  SGN d 306      70.713  15.461  98.459  0.00  0.00     0.083 C 
ATOM     23  O1S SGN d 306      68.098  17.743  99.691  0.00  0.00    -0.296 OA
ATOM     24  O4S SGN d 306      74.726  11.296 102.911  0.00  0.00    -0.572 OA
ATOM     25  O5S SGN d 306      75.768  13.312 102.250  0.00  0.00    -0.572 OA
ATOM     26  C2  SGN d 306      69.715  15.098  99.548  0.00  0.00     0.081 C 
ATOM     27  O5  SGN d 306      71.220  13.367 100.334  0.00  0.00    -0.350 OA
ATOM     28  C6  SGN d 306      73.592  13.315  99.831  0.00  0.00     0.067 C 
ATOM     29  S2  SGN d 306      75.012  12.174 101.811  0.00  0.00     0.251 S 
ATOM     30  S1  SGN d 306      67.370  16.503  99.591  0.00  0.00     0.156 S 
ATOM     31  O3S SGN d 306      66.233  16.663  98.720  0.00  0.00    -0.296 OA
ATOM     32  O4  SGN d 306      73.075  15.537  97.954  0.00  0.00    -0.348 OA
ATOM     33  O3  SGN d 306      70.549  16.828  98.129  0.00  0.00    -0.391 OA
ATOM     34  O6S SGN d 306      75.734  11.477 100.777  0.00  0.00    -0.572 OA
ATOM     35  C5  SGN d 306      72.214  13.687  99.314  0.00  0.00     0.091 C 
ATOM     36  O1  SGN d 306      69.399  12.787  98.918  0.00  0.00    -0.369 OA
ATOM     37  N   SGN d 306      68.421  15.251  98.945  0.00  0.00    -0.210 NA
ATOM     38  O6  SGN d 306      73.507  12.766 101.127  0.00  0.00    -0.254 OA
ATOM     39  C4  SGN d 306      72.128  15.192  98.982  0.00  0.00     0.095 C 
ATOM     40  O2S SGN d 306      66.947  16.063 100.885  0.00  0.00    -0.296 OA
ATOM     41  C1  SGN d 306      69.843  13.628  99.978  0.00  0.00     0.147 C 
ATOM     42  H   SGN d 306      70.551  14.873  97.580  0.00  0.00     0.089 H 
ATOM     43  H   SGN d 306      68.860  17.624 100.280  0.00  0.00     0.231 HD
ATOM     44  H   SGN d 306      69.879  15.712 100.409  0.00  0.00     0.076 H 
ATOM     45  H   SGN d 306      74.205  14.191  99.860  0.00  0.00     0.080 H 
ATOM     46  H   SGN d 306      74.019  12.585  99.175  0.00  0.00     0.080 H 
ATOM     47  H   SGN d 306      66.533  16.961  97.847  0.00  0.00     0.231 HD
ATOM     48  H   SGN d 306      70.695  17.371  98.920  0.00  0.00     0.210 HD
ATOM     49  H   SGN d 306      72.027  13.132  98.419  0.00  0.00     0.090 H 
ATOM     50  H   SGN d 306      68.474  12.991  98.709  0.00  0.00     0.212 HD
ATOM     51  H   SGN d 306      67.931  14.361  99.042  0.00  0.00     0.140 HD
ATOM     52  H   SGN d 306      72.346  15.773  99.853  0.00  0.00     0.091 H 
ATOM     53  H   SGN d 306      67.721  15.960 101.460  0.00  0.00     0.231 HD
ATOM     54  H   SGN d 306      69.230  13.424 100.831  0.00  0.00     0.131 H 
ATOM     55  C2  UAP d 301      86.418  27.705 104.132  0.00  0.00     0.132 C 
ATOM     56  S   UAP d 301      88.926  28.245 103.589  0.00  0.00     0.252 S 
ATOM     57  O1S UAP d 301      89.608  29.480 103.622  0.00  0.00    -0.572 OA
ATOM     58  C1  UAP d 301      85.911  26.791 105.228  0.00  0.00     0.161 C 
ATOM     59  O61 UAP d 301      82.848  30.299 106.622  0.00  0.00    -0.646 OA
ATOM     60  C5  UAP d 301      84.379  28.604 105.864  0.00  0.00     0.127 C 
ATOM     61  O3  UAP d 301      84.841  28.111 102.426  0.00  0.00    -0.393 OA
ATOM     62  O2  UAP d 301      87.517  28.412 104.598  0.00  0.00    -0.244 OA
ATOM     63  O5  UAP d 301      85.186  27.499 106.228  0.00  0.00    -0.343 OA
ATOM     64  C6  UAP d 301      83.529  29.298 106.922  0.00  0.00     0.203 C 
ATOM     65  O62 UAP d 301      83.592  28.824 108.077  0.00  0.00    -0.646 OA
ATOM     66  O3S UAP d 301      89.706  27.201 104.178  0.00  0.00    -0.572 OA
ATOM     67  O2S UAP d 301      88.528  27.934 102.238  0.00  0.00    -0.572 OA
ATOM     68  C3  UAP d 301      85.448  28.726 103.518  0.00  0.00     0.069 C 
ATOM     69  C4  UAP d 301      84.364  29.274 104.489  0.00  0.00    -0.005 C 
ATOM     70  H   UAP d 301      86.628  27.019 103.339  0.00  0.00     0.097 H 
ATOM     71  H   UAP d 301      86.720  26.324 105.751  0.00  0.00     0.133 H 
ATOM     72  H   UAP d 301      84.347  27.636 105.411  0.00  0.00     0.100 H 
ATOM     73  H   UAP d 301      85.523  27.773 101.825  0.00  0.00     0.210 HD
ATOM     74  H   UAP d 301      86.021  29.588 103.245  0.00  0.00     0.087 H 
ATOM     75  H   UAP d 301      84.529  30.323 104.622  0.00  0.00     0.041 H 
ATOM     76  H   UAP d 301      83.413  29.063 104.047  0.00  0.00     0.041 H 
ATOM     77  O5  IDS d 305      74.163  17.372  99.086  0.00  0.00    -0.340 OA
ATOM     78  O62 IDS d 305      73.749  19.722 100.500  0.00  0.00    -0.646 OA
ATOM     79  C1  IDS d 305      74.306  16.176  98.317  0.00  0.00     0.161 C 
ATOM     80  O3  IDS d 305      74.494  17.927  95.378  0.00  0.00    -0.390 OA
ATOM     81  C6  IDS d 305      73.719  19.840  99.253  0.00  0.00     0.206 C 
ATOM     82  C2  IDS d 305      75.161  16.380  97.038  0.00  0.00     0.134 C 
ATOM     83  C5  IDS d 305      74.156  18.621  98.442  0.00  0.00     0.152 C 
ATOM     84  C3  IDS d 305      75.374  17.775  96.420  0.00  0.00     0.094 C 
ATOM     85  S   IDS d 305      77.561  15.527  98.077  0.00  0.00     0.252 S 
ATOM     86  C4  IDS d 305      75.234  18.942  97.416  0.00  0.00     0.103 C 
ATOM     87  O3S IDS d 305      78.466  14.500  97.715  0.00  0.00    -0.572 OA
ATOM     88  O1S IDS d 305      77.011  15.260  99.358  0.00  0.00    -0.572 OA
ATOM     89  O2  IDS d 305      76.263  15.498  96.871  0.00  0.00    -0.244 OA
ATOM     90  O61 IDS d 305      73.593  20.934  98.678  0.00  0.00    -0.646 OA
ATOM     91  O2S IDS d 305      78.191  16.797  98.057  0.00  0.00    -0.572 OA
ATOM     92  H   IDS d 305      74.818  15.522  98.991  0.00  0.00     0.133 H 
ATOM     93  H   IDS d 305      74.594  17.186  94.760  0.00  0.00     0.210 HD
ATOM     94  H   IDS d 305      74.384  16.050  96.380  0.00  0.00     0.097 H 
ATOM     95  H   IDS d 305      73.318  18.383  97.820  0.00  0.00     0.104 H 
ATOM     96  H   IDS d 305      76.389  17.819  96.084  0.00  0.00     0.091 H 
ATOM     97  H   IDS d 305      74.977  19.821  96.862  0.00  0.00     0.092 H 
ATOM     98  O6  SGN d 304      77.085  23.213 100.994  0.00  0.00    -0.254 OA
ATOM     99  S2  SGN d 304      76.697  24.604 101.979  0.00  0.00     0.251 S 
ATOM    100  O5S SGN d 304      77.610  25.659 101.627  0.00  0.00    -0.572 OA
ATOM    101  N   SGN d 304      79.004  19.157  97.232  0.00  0.00    -0.210 NA
ATOM    102  O3S SGN d 304      80.140  20.303  95.190  0.00  0.00    -0.296 OA
ATOM    103  C6  SGN d 304      76.438  21.979 101.296  0.00  0.00     0.067 C 
ATOM    104  O3  SGN d 304      80.455  19.712  99.560  0.00  0.00    -0.391 OA
ATOM    105  C5  SGN d 304      77.014  20.943 100.363  0.00  0.00     0.091 C 
ATOM    106  O2S SGN d 304      79.344  18.125  94.914  0.00  0.00    -0.296 OA
ATOM    107  O1  SGN d 304      76.464  19.149  98.123  0.00  0.00    -0.348 OA
ATOM    108  O4S SGN d 304      75.349  25.003 101.713  0.00  0.00    -0.572 OA
ATOM    109  C1  SGN d 304      77.100  20.422  97.982  0.00  0.00     0.150 C 
ATOM    110  C3  SGN d 304      79.046  19.821  99.498  0.00  0.00     0.083 C 
ATOM    111  C2  SGN d 304      78.636  20.257  98.088  0.00  0.00     0.081 C 
ATOM    112  S1  SGN d 304      79.077  19.399  95.491  0.00  0.00     0.156 S 
ATOM    113  O6S SGN d 304      76.866  24.238 103.367  0.00  0.00    -0.572 OA
ATOM    114  O1S SGN d 304      77.836  19.925  94.998  0.00  0.00    -0.296 OA
ATOM    115  O5  SGN d 304      76.670  21.335  99.008  0.00  0.00    -0.349 OA
ATOM    116  C4  SGN d 304      78.551  20.870 100.487  0.00  0.00     0.095 C 
ATOM    117  O4  SGN d 304      78.924  20.452 101.808  0.00  0.00    -0.348 OA
ATOM    118  H   SGN d 304      78.328  18.411  97.399  0.00  0.00     0.140 HD
ATOM    119  H   SGN d 304      80.976  19.942  95.525  0.00  0.00     0.231 HD
ATOM    120  H   SGN d 304      75.383  22.069 101.139  0.00  0.00     0.080 H 
ATOM    121  H   SGN d 304      76.595  21.705 102.318  0.00  0.00     0.080 H 
ATOM    122  H   SGN d 304      80.756  19.042  98.926  0.00  0.00     0.210 HD
ATOM    123  H   SGN d 304      76.617  19.982 100.612  0.00  0.00     0.090 H 
ATOM    124  H   SGN d 304      80.184  17.785  95.257  0.00  0.00     0.231 HD
ATOM    125  H   SGN d 304      76.830  20.817  97.025  0.00  0.00     0.131 H 
ATOM    126  H   SGN d 304      78.619  18.871  99.741  0.00  0.00     0.089 H 
ATOM    127  H   SGN d 304      79.098  21.187  97.832  0.00  0.00     0.076 H 
ATOM    128  H   SGN d 304      77.670  20.791  95.401  0.00  0.00     0.231 HD
ATOM    129  H   SGN d 304      78.975  21.832 100.289  0.00  0.00     0.091 H 
ATOM    130  O5S SGN d 302      89.538  21.628 102.460  0.00  0.00    -0.572 OA
ATOM    131  C4  SGN d 302      85.011  24.566 105.082  0.00  0.00     0.095 C 
ATOM    132  O1S SGN d 302      81.666  23.362 109.249  0.00  0.00    -0.296 OA
ATOM    133  O3  SGN d 302      83.504  25.283 106.799  0.00  0.00    -0.391 OA
ATOM    134  O2S SGN d 302      83.406  21.800 108.906  0.00  0.00    -0.296 OA
ATOM    135  C1  SGN d 302      83.784  21.944 105.105  0.00  0.00     0.150 C 
ATOM    136  C5  SGN d 302      85.166  23.586 103.928  0.00  0.00     0.091 C 
ATOM    137  O3S SGN d 302      81.182  21.147 108.549  0.00  0.00    -0.296 OA
ATOM    138  O5  SGN d 302      85.040  22.231 104.436  0.00  0.00    -0.349 OA
ATOM    139  C6  SGN d 302      86.519  23.795 103.262  0.00  0.00     0.067 C 
ATOM    140  S1  SGN d 302      82.118  22.240 108.464  0.00  0.00     0.156 S 
ATOM    141  O4S SGN d 302      87.651  21.498 101.043  0.00  0.00    -0.572 OA
ATOM    142  O6S SGN d 302      88.756  23.564 101.388  0.00  0.00    -0.572 OA
ATOM    143  O4  SGN d 302      85.094  25.865 104.573  0.00  0.00    -0.348 OA
ATOM    144  N   SGN d 302      82.285  22.749 106.779  0.00  0.00    -0.210 NA
ATOM    145  C3  SGN d 302      83.653  24.371 105.726  0.00  0.00     0.083 C 
ATOM    146  C2  SGN d 302      83.614  22.944 106.251  0.00  0.00     0.081 C 
ATOM    147  S2  SGN d 302      88.365  22.311 101.986  0.00  0.00     0.251 S 
ATOM    148  O6  SGN d 302      87.327  22.644 103.363  0.00  0.00    -0.254 OA
ATOM    149  O1  SGN d 302      82.659  22.109 104.241  0.00  0.00    -0.348 OA
ATOM    150  H   SGN d 302      85.778  24.403 105.810  0.00  0.00     0.091 H 
ATOM    151  H   SGN d 302      81.571  23.091 110.176  0.00  0.00     0.231 HD
ATOM    152  H   SGN d 302      83.529  26.190 106.458  0.00  0.00     0.210 HD
ATOM    153  H   SGN d 302      83.350  21.513 109.831  0.00  0.00     0.231 HD
ATOM    154  H   SGN d 302      83.818  20.927 105.438  0.00  0.00     0.131 H 
ATOM    155  H   SGN d 302      84.403  23.751 103.197  0.00  0.00     0.090 H 
ATOM    156  H   SGN d 302      81.092  20.870 109.474  0.00  0.00     0.231 HD
ATOM    157  H   SGN d 302      87.018  24.614 103.737  0.00  0.00     0.080 H 
ATOM    158  H   SGN d 302      86.354  24.001 102.225  0.00  0.00     0.080 H 
ATOM    159  H   SGN d 302      81.788  23.634 106.680  0.00  0.00     0.140 HD
ATOM    160  H   SGN d 302      82.863  24.541 105.025  0.00  0.00     0.089 H 
ATOM    161  H   SGN d 302      84.391  22.797 106.973  0.00  0.00     0.076 H 
ENDROOT
TORSDOF 50
ENDMDL
MODEL 47
REMARK VINA RESULT:     -10.1      3.284      6.124
REMARK  0 active torsions:
REMARK  status: ('A' for Active; 'I' for Inactive)
REMARK       I    between atoms: S_1  and  O2_2 
REMARK       I    between atoms: O2_2  and  C2_99 
REMARK       I    between atoms: C3_3  and  O3_50 
REMARK       I    between atoms: C2_5  and  O2_57 
REMARK       I    between atoms: O1S_6  and  S1_33 
REMARK       I    between atoms: O3_7  and  C3_52 
REMARK       I    between atoms: O6_9  and  C6_34 
REMARK       I    between atoms: O6_9  and  S2_17 
REMARK       I    between atoms: C2_13  and  N_73 
REMARK       I    between atoms: S_16  and  O2_57 
REMARK       I    between atoms: C1_20  and  O4_43 
REMARK       I    between atoms: C6_21  and  C5_67 
REMARK       I    between atoms: C6_21  and  O6_75 
REMARK       I    between atoms: N_22  and  C2_66 
REMARK       I    between atoms: N_22  and  S1_69 
REMARK       I    between atoms: S2_23  and  O6_75 
REMARK       I    between atoms: C1_24  and  O4_78 
REMARK       I    between atoms: C4_25  and  O4_78 
REMARK       I    between atoms: O3_26  and  C3_81 
REMARK       I    between atoms: O1S_27  and  S1_60 
REMARK       I    between atoms: O3S_28  and  S1_69 
REMARK       I    between atoms: O3_29  and  C3_87 
REMARK       I    between atoms: C6_30  and  C5_80 
REMARK       I    between atoms: O2S_32  and  S1_60 
REMARK       I    between atoms: S1_33  and  N_73 
REMARK       I    between atoms: S1_33  and  O2S_94 
REMARK       I    between atoms: S1_33  and  O3S_35 
REMARK       I    between atoms: C6_34  and  C5_38 
REMARK       I    between atoms: C2_36  and  O2_93 
REMARK       I    between atoms: O3_37  and  C3_65 
REMARK       I    between atoms: C1_40  and  O1_105 
REMARK       I    between atoms: O2S_41  and  S1_69 
REMARK       I    between atoms: C5_42  and  C6_54 
REMARK       I    between atoms: O4_43  and  C4_92 
REMARK       I    between atoms: O1_44  and  C1_62 
REMARK       I    between atoms: O1_44  and  C4_83 
REMARK       I    between atoms: C1_45  and  O4_102 
REMARK       I    between atoms: C4_46  and  O1_105 
REMARK       I    between atoms: O3S_47  and  S1_60 
REMARK       I    between atoms: C5_53  and  C6_61 
REMARK       I    between atoms: C6_54  and  O6_98 
REMARK       I    between atoms: O3_56  and  C3_84 
REMARK       I    between atoms: C5_59  and  C6_63 
REMARK       I    between atoms: S1_60  and  N_86 
REMARK       I    between atoms: S1_69  and  O1S_91 
REMARK       I    between atoms: O1_70  and  C1_96 
REMARK       I    between atoms: S_82  and  O2_93 
REMARK       I    between atoms: N_86  and  C2_90 
REMARK       I    between atoms: S2_95  and  O6_98 
REMARK       I    between atoms: C4_100  and  O4_102 
ROOT
ATOM      1  S   IDS d 303      81.507  19.133 105.873  0.00  0.00     0.252 S 
ATOM      2  O2  IDS d 303      80.502  19.436 104.469  0.00  0.00    -0.244 OA
ATOM      3  O61 IDS d 303      79.196  20.311  98.976  0.00  0.00    -0.646 OA
ATOM      4  O3  IDS d 303      79.287  22.500 103.130  0.00  0.00    -0.390 OA
ATOM      5  O3S IDS d 303      81.231  20.189 106.816  0.00  0.00    -0.572 OA
ATOM      6  C1  IDS d 303      81.797  20.643 102.854  0.00  0.00     0.161 C 
ATOM      7  C4  IDS d 303      78.875  20.342 102.108  0.00  0.00     0.103 C 
ATOM      8  O2S IDS d 303      81.173  17.839 106.400  0.00  0.00    -0.572 OA
ATOM      9  C3  IDS d 303      79.291  21.141 103.365  0.00  0.00     0.094 C 
ATOM     10  C5  IDS d 303      80.073  20.263 101.166  0.00  0.00     0.152 C 
ATOM     11  C6  IDS d 303      79.716  19.621  99.855  0.00  0.00     0.206 C 
ATOM     12  O62 IDS d 303      80.166  18.474  99.668  0.00  0.00    -0.646 OA
ATOM     13  O5  IDS d 303      81.359  19.973 101.680  0.00  0.00    -0.340 OA
ATOM     14  C2  IDS d 303      80.663  20.694 103.899  0.00  0.00     0.134 C 
ATOM     15  O1S IDS d 303      82.867  19.160 105.442  0.00  0.00    -0.572 OA
ATOM     16  H   IDS d 303      78.417  22.768 102.794  0.00  0.00     0.210 HD
ATOM     17  H   IDS d 303      82.624  20.069 103.217  0.00  0.00     0.133 H 
ATOM     18  H   IDS d 303      78.030  20.826 101.663  0.00  0.00     0.092 H 
ATOM     19  H   IDS d 303      78.560  20.929 104.117  0.00  0.00     0.091 H 
ATOM     20  H   IDS d 303      80.274  21.296 100.972  0.00  0.00     0.104 H 
ATOM     21  H   IDS d 303      80.977  21.436 104.603  0.00  0.00     0.097 H 
ATOM     22  C3  SGN d 306      89.376  28.810 105.121  0.00  0.00     0.083 C 
ATOM     23  O1S SGN d 306      91.933  26.538 106.485  0.00  0.00    -0.296 OA
ATOM     24  O4S SGN d 306      83.067  30.146 108.539  0.00  0.00    -0.572 OA
ATOM     25  O5S SGN d 306      82.933  28.509 106.838  0.00  0.00    -0.572 OA
ATOM     26  C2  SGN d 306      89.788  28.779 106.585  0.00  0.00     0.081 C 
ATOM     27  O5  SGN d 306      87.681  29.813 107.191  0.00  0.00    -0.350 OA
ATOM     28  C6  SGN d 306      85.718  29.805 105.764  0.00  0.00     0.067 C 
ATOM     29  S2  SGN d 306      83.440  29.804 107.196  0.00  0.00     0.251 S 
ATOM     30  S1  SGN d 306      92.269  27.773 107.147  0.00  0.00     0.156 S 
ATOM     31  O3S SGN d 306      93.633  28.138 106.857  0.00  0.00    -0.296 OA
ATOM     32  O4  SGN d 306      87.460  28.689 103.654  0.00  0.00    -0.348 OA
ATOM     33  O3  SGN d 306      90.023  27.750 104.443  0.00  0.00    -0.391 OA
ATOM     34  O6S SGN d 306      82.955  30.792 106.265  0.00  0.00    -0.572 OA
ATOM     35  C5  SGN d 306      87.236  29.854 105.801  0.00  0.00     0.091 C 
ATOM     36  O1  SGN d 306      89.636  31.154 107.000  0.00  0.00    -0.369 OA
ATOM     37  N   SGN d 306      91.198  29.052 106.590  0.00  0.00    -0.210 NA
ATOM     38  O6  SGN d 306      85.190  29.744 107.071  0.00  0.00    -0.254 OA
ATOM     39  C4  SGN d 306      87.853  28.661 105.039  0.00  0.00     0.095 C 
ATOM     40  O2S SGN d 306      92.074  27.655 108.559  0.00  0.00    -0.296 OA
ATOM     41  C1  SGN d 306      89.110  29.892 107.398  0.00  0.00     0.147 C 
ATOM     42  H   SGN d 306      89.659  29.735 104.664  0.00  0.00     0.089 H 
ATOM     43  H   SGN d 306      91.014  26.301 106.687  0.00  0.00     0.231 HD
ATOM     44  H   SGN d 306      89.517  27.838 107.018  0.00  0.00     0.076 H 
ATOM     45  H   SGN d 306      85.408  28.938 105.219  0.00  0.00     0.080 H 
ATOM     46  H   SGN d 306      85.357  30.692 105.287  0.00  0.00     0.080 H 
ATOM     47  H   SGN d 306      93.751  28.215 105.898  0.00  0.00     0.231 HD
ATOM     48  H   SGN d 306      89.773  26.906 104.850  0.00  0.00     0.210 HD
ATOM     49  H   SGN d 306      87.556  30.759 105.329  0.00  0.00     0.090 H 
ATOM     50  H   SGN d 306      90.593  31.169 107.155  0.00  0.00     0.212 HD
ATOM     51  H   SGN d 306      91.351  29.862 107.191  0.00  0.00     0.140 HD
ATOM     52  H   SGN d 306      87.521  27.740 105.468  0.00  0.00     0.091 H 
ATOM     53  H   SGN d 306      91.153  27.410 108.738  0.00  0.00     0.231 HD
ATOM     54  H   SGN d 306      89.304  29.776 108.444  0.00  0.00     0.131 H 
ATOM     55  C2  UAP d 301      76.826  13.600  98.804  0.00  0.00     0.132 C 
ATOM     56  S   UAP d 301      74.924  13.064  97.081  0.00  0.00     0.252 S 
ATOM     57  O1S UAP d 301      74.651  11.867  96.385  0.00  0.00    -0.572 OA
ATOM     58  C1  UAP d 301      76.641  14.001 100.253  0.00  0.00     0.161 C 
ATOM     59  O61 UAP d 301      79.890  10.614 101.518  0.00  0.00    -0.646 OA
ATOM     60  C5  UAP d 301      78.305  12.282 100.815  0.00  0.00     0.127 C 
ATOM     61  O3  UAP d 301      78.942  14.158  97.925  0.00  0.00    -0.393 OA
ATOM     62  O2  UAP d 301      75.882  12.640  98.472  0.00  0.00    -0.244 OA
ATOM     63  O5  UAP d 301      77.143  13.019 101.153  0.00  0.00    -0.343 OA
ATOM     64  C6  UAP d 301      78.894  11.301 101.822  0.00  0.00     0.203 C 
ATOM     65  O62 UAP d 301      78.303  11.218 102.920  0.00  0.00    -0.646 OA
ATOM     66  O3S UAP d 301      73.727  13.653  97.597  0.00  0.00    -0.572 OA
ATOM     67  O2S UAP d 301      75.660  13.973  96.236  0.00  0.00    -0.572 OA
ATOM     68  C3  UAP d 301      78.195  13.065  98.358  0.00  0.00     0.069 C 
ATOM     69  C4  UAP d 301      78.983  12.280  99.444  0.00  0.00    -0.005 C 
ATOM     70  H   UAP d 301      76.719  14.533  98.292  0.00  0.00     0.097 H 
ATOM     71  H   UAP d 301      75.605  14.100 100.500  0.00  0.00     0.133 H 
ATOM     72  H   UAP d 301      78.216  13.347 100.788  0.00  0.00     0.100 H 
ATOM     73  H   UAP d 301      78.445  14.641  97.248  0.00  0.00     0.210 HD
ATOM     74  H   UAP d 301      78.022  12.346  97.584  0.00  0.00     0.087 H 
ATOM     75  H   UAP d 301      79.087  11.265  99.119  0.00  0.00     0.041 H 
ATOM     76  H   UAP d 301      79.928  12.768  99.561  0.00  0.00     0.041 H 
ATOM     77  O5  IDS d 305      86.613  26.433 103.489  0.00  0.00    -0.340 OA
ATOM     78  O62 IDS d 305      87.158  23.768 104.029  0.00  0.00    -0.646 OA
ATOM     79  C1  IDS d 305      86.414  27.819 103.202  0.00  0.00     0.161 C 
ATOM     80  O3  IDS d 305      87.759  27.504 100.067  0.00  0.00    -0.390 OA
ATOM     81  C6  IDS d 305      87.650  24.205 102.963  0.00  0.00     0.206 C 
ATOM     82  C2  IDS d 305      86.149  28.092 101.697  0.00  0.00     0.134 C 
ATOM     83  C5  IDS d 305      87.195  25.597 102.522  0.00  0.00     0.152 C 
ATOM     84  C3  IDS d 305      86.568  27.087 100.607  0.00  0.00     0.094 C 
ATOM     85  S   IDS d 305      83.402  28.129 101.821  0.00  0.00     0.252 S 
ATOM     86  C4  IDS d 305      86.678  25.629 101.091  0.00  0.00     0.103 C 
ATOM     87  O3S IDS d 305      82.427  29.100 101.485  0.00  0.00    -0.572 OA
ATOM     88  O1S IDS d 305      83.375  27.876 103.218  0.00  0.00    -0.572 OA
ATOM     89  O2  IDS d 305      84.972  28.826 101.389  0.00  0.00    -0.244 OA
ATOM     90  O61 IDS d 305      88.272  23.491 102.159  0.00  0.00    -0.646 OA
ATOM     91  O2S IDS d 305      83.204  26.930 101.092  0.00  0.00    -0.572 OA
ATOM     92  H   IDS d 305      85.537  28.053 103.769  0.00  0.00     0.133 H 
ATOM     93  H   IDS d 305      87.674  28.423  99.767  0.00  0.00     0.210 HD
ATOM     94  H   IDS d 305      86.979  28.761 101.600  0.00  0.00     0.097 H 
ATOM     95  H   IDS d 305      88.094  26.174 102.450  0.00  0.00     0.104 H 
ATOM     96  H   IDS d 305      85.789  27.077  99.873  0.00  0.00     0.091 H 
ATOM     97  H   IDS d 305      87.348  25.113 100.436  0.00  0.00     0.092 H 
ATOM     98  O6  SGN d 304      84.991  20.049 101.786  0.00  0.00    -0.254 OA
ATOM     99  S2  SGN d 304      85.390  18.424 102.290  0.00  0.00     0.251 S 
ATOM    100  O5S SGN d 304      84.994  17.527 101.236  0.00  0.00    -0.572 OA
ATOM    101  N   SGN d 304      83.430  25.083  99.234  0.00  0.00    -0.210 NA
ATOM    102  O3S SGN d 304      83.446  24.811  96.646  0.00  0.00    -0.296 OA
ATOM    103  C6  SGN d 304      85.116  21.096 102.745  0.00  0.00     0.067 C 
ATOM    104  O3  SGN d 304      81.483  23.412 100.352  0.00  0.00    -0.391 OA
ATOM    105  C5  SGN d 304      84.630  22.359 102.079  0.00  0.00     0.091 C 
ATOM    106  O2S SGN d 304      83.638  26.970  97.516  0.00  0.00    -0.296 OA
ATOM    107  O1  SGN d 304      85.392  24.997 101.076  0.00  0.00    -0.348 OA
ATOM    108  O4S SGN d 304      86.801  18.337 102.513  0.00  0.00    -0.572 OA
ATOM    109  C1  SGN d 304      85.231  23.846 100.242  0.00  0.00     0.150 C 
ATOM    110  C3  SGN d 304      82.795  23.503 100.871  0.00  0.00     0.083 C 
ATOM    111  C2  SGN d 304      83.774  23.771  99.724  0.00  0.00     0.081 C 
ATOM    112  S1  SGN d 304      84.037  25.612  97.670  0.00  0.00     0.156 S 
ATOM    113  O6S SGN d 304      84.654  18.130 103.499  0.00  0.00    -0.572 OA
ATOM    114  O1S SGN d 304      85.466  25.498  97.613  0.00  0.00    -0.296 OA
ATOM    115  O5  SGN d 304      85.519  22.635 100.965  0.00  0.00    -0.349 OA
ATOM    116  C4  SGN d 304      83.193  22.195 101.544  0.00  0.00     0.095 C 
ATOM    117  O4  SGN d 304      82.283  21.954 102.628  0.00  0.00    -0.348 OA
ATOM    118  H   SGN d 304      83.767  25.755  99.924  0.00  0.00     0.140 HD
ATOM    119  H   SGN d 304      82.480  24.893  96.689  0.00  0.00     0.231 HD
ATOM    120  H   SGN d 304      86.139  21.205 103.039  0.00  0.00     0.080 H 
ATOM    121  H   SGN d 304      84.544  20.881 103.623  0.00  0.00     0.080 H 
ATOM    122  H   SGN d 304      81.244  24.251  99.927  0.00  0.00     0.210 HD
ATOM    123  H   SGN d 304      84.628  23.158 102.792  0.00  0.00     0.090 H 
ATOM    124  H   SGN d 304      82.671  27.029  97.557  0.00  0.00     0.231 HD
ATOM    125  H   SGN d 304      85.916  23.939  99.424  0.00  0.00     0.131 H 
ATOM    126  H   SGN d 304      82.825  24.297 101.588  0.00  0.00     0.089 H 
ATOM    127  H   SGN d 304      83.712  22.998  98.988  0.00  0.00     0.076 H 
ATOM    128  H   SGN d 304      85.720  24.568  97.719  0.00  0.00     0.231 HD
ATOM    129  H   SGN d 304      83.154  21.371 100.862  0.00  0.00     0.091 H 
ATOM    130  O5S SGN d 302      72.896  19.399  98.175  0.00  0.00    -0.572 OA
ATOM    131  C4  SGN d 302      76.868  16.158 101.293  0.00  0.00     0.095 C 
ATOM    132  O1S SGN d 302      78.076  15.816 106.625  0.00  0.00    -0.296 OA
ATOM    133  O3  SGN d 302      77.824  14.947 103.125  0.00  0.00    -0.391 OA
ATOM    134  O2S SGN d 302      76.196  17.161 106.130  0.00  0.00    -0.296 OA
ATOM    135  C1  SGN d 302      77.216  18.634 102.753  0.00  0.00     0.150 C 
ATOM    136  C5  SGN d 302      76.852  17.516 100.606  0.00  0.00     0.091 C 
ATOM    137  O3S SGN d 302      78.125  18.154 107.021  0.00  0.00    -0.296 OA
ATOM    138  O5  SGN d 302      76.405  18.522 101.554  0.00  0.00    -0.349 OA
ATOM    139  C6  SGN d 302      75.932  17.461  99.394  0.00  0.00     0.067 C 
ATOM    140  S1  SGN d 302      77.626  17.106 106.166  0.00  0.00     0.156 S 
ATOM    141  O4S SGN d 302      75.038  20.345  97.857  0.00  0.00    -0.572 OA
ATOM    142  O6S SGN d 302      74.514  18.222  96.948  0.00  0.00    -0.572 OA
ATOM    143  O4  SGN d 302      77.337  15.208 100.382  0.00  0.00    -0.348 OA
ATOM    144  N   SGN d 302      78.204  17.362 104.514  0.00  0.00    -0.210 NA
ATOM    145  C3  SGN d 302      77.804  16.210 102.484  0.00  0.00     0.083 C 
ATOM    146  C2  SGN d 302      77.253  17.262 103.433  0.00  0.00     0.081 C 
ATOM    147  S2  SGN d 302      74.302  19.127  98.050  0.00  0.00     0.251 S 
ATOM    148  O6  SGN d 302      74.848  18.353  99.529  0.00  0.00    -0.254 OA
ATOM    149  O1  SGN d 302      78.567  18.989 102.463  0.00  0.00    -0.348 OA
ATOM    150  H   SGN d 302      75.884  15.901 101.624  0.00  0.00     0.091 H 
ATOM    151  H   SGN d 302      77.763  15.668 107.531  0.00  0.00     0.231 HD
ATOM    152  H   SGN d 302      78.176  14.280 102.515  0.00  0.00     0.210 HD
ATOM    153  H   SGN d 302      75.845  17.023 107.024  0.00  0.00     0.231 HD
ATOM    154  H   SGN d 302      76.782  19.394 103.369  0.00  0.00     0.131 H 
ATOM    155  H   SGN d 302      77.834  17.773 100.270  0.00  0.00     0.090 H 
ATOM    156  H   SGN d 302      77.806  18.012 107.926  0.00  0.00     0.231 HD
ATOM    157  H   SGN d 302      75.552  16.466  99.290  0.00  0.00     0.080 H 
ATOM    158  H   SGN d 302      76.496  17.745  98.531  0.00  0.00     0.080 H 
ATOM    159  H   SGN d 302      78.933  16.670 104.339  0.00  0.00     0.140 HD
ATOM    160  H   SGN d 302      78.801  16.452 102.183  0.00  0.00     0.089 H 
ATOM    161  H   SGN d 302      76.267  16.992 103.749  0.00  0.00     0.076 H 
ENDROOT
TORSDOF 50
ENDMDL
MODEL 48
REMARK VINA RESULT:     -10.1      6.419      9.508
REMARK  0 active torsions:
REMARK  status: ('A' for Active; 'I' for Inactive)
REMARK       I    between atoms: S_1  and  O2_2 
REMARK       I    between atoms: O2_2  and  C2_99 
REMARK       I    between atoms: C3_3  and  O3_50 
REMARK       I    between atoms: C2_5  and  O2_57 
REMARK       I    between atoms: O1S_6  and  S1_33 
REMARK       I    between atoms: O3_7  and  C3_52 
REMARK       I    between atoms: O6_9  and  C6_34 
REMARK       I    between atoms: O6_9  and  S2_17 
REMARK       I    between atoms: C2_13  and  N_73 
REMARK       I    between atoms: S_16  and  O2_57 
REMARK       I    between atoms: C1_20  and  O4_43 
REMARK       I    between atoms: C6_21  and  C5_67 
REMARK       I    between atoms: C6_21  and  O6_75 
REMARK       I    between atoms: N_22  and  C2_66 
REMARK       I    between atoms: N_22  and  S1_69 
REMARK       I    between atoms: S2_23  and  O6_75 
REMARK       I    between atoms: C1_24  and  O4_78 
REMARK       I    between atoms: C4_25  and  O4_78 
REMARK       I    between atoms: O3_26  and  C3_81 
REMARK       I    between atoms: O1S_27  and  S1_60 
REMARK       I    between atoms: O3S_28  and  S1_69 
REMARK       I    between atoms: O3_29  and  C3_87 
REMARK       I    between atoms: C6_30  and  C5_80 
REMARK       I    between atoms: O2S_32  and  S1_60 
REMARK       I    between atoms: S1_33  and  N_73 
REMARK       I    between atoms: S1_33  and  O2S_94 
REMARK       I    between atoms: S1_33  and  O3S_35 
REMARK       I    between atoms: C6_34  and  C5_38 
REMARK       I    between atoms: C2_36  and  O2_93 
REMARK       I    between atoms: O3_37  and  C3_65 
REMARK       I    between atoms: C1_40  and  O1_105 
REMARK       I    between atoms: O2S_41  and  S1_69 
REMARK       I    between atoms: C5_42  and  C6_54 
REMARK       I    between atoms: O4_43  and  C4_92 
REMARK       I    between atoms: O1_44  and  C1_62 
REMARK       I    between atoms: O1_44  and  C4_83 
REMARK       I    between atoms: C1_45  and  O4_102 
REMARK       I    between atoms: C4_46  and  O1_105 
REMARK       I    between atoms: O3S_47  and  S1_60 
REMARK       I    between atoms: C5_53  and  C6_61 
REMARK       I    between atoms: C6_54  and  O6_98 
REMARK       I    between atoms: O3_56  and  C3_84 
REMARK       I    between atoms: C5_59  and  C6_63 
REMARK       I    between atoms: S1_60  and  N_86 
REMARK       I    between atoms: S1_69  and  O1S_91 
REMARK       I    between atoms: O1_70  and  C1_96 
REMARK       I    between atoms: S_82  and  O2_93 
REMARK       I    between atoms: N_86  and  C2_90 
REMARK       I    between atoms: S2_95  and  O6_98 
REMARK       I    between atoms: C4_100  and  O4_102 
ROOT
ATOM      1  S   IDS d 303      83.484  20.559 100.884  0.00  0.00     0.252 S 
ATOM      2  O2  IDS d 303      84.296  21.217  99.477  0.00  0.00    -0.244 OA
ATOM      3  O61 IDS d 303      88.452  23.682  96.427  0.00  0.00    -0.646 OA
ATOM      4  O3  IDS d 303      84.099  24.454  98.014  0.00  0.00    -0.390 OA
ATOM      5  O3S IDS d 303      82.218  21.242 100.990  0.00  0.00    -0.572 OA
ATOM      6  C1  IDS d 303      85.776  22.959 100.200  0.00  0.00     0.161 C 
ATOM      7  C4  IDS d 303      85.556  22.704  97.188  0.00  0.00     0.103 C 
ATOM      8  O2S IDS d 303      83.317  19.145 100.692  0.00  0.00    -0.572 OA
ATOM      9  C3  IDS d 303      84.326  23.094  98.039  0.00  0.00     0.094 C 
ATOM     10  C5  IDS d 303      86.818  23.009  97.991  0.00  0.00     0.152 C 
ATOM     11  C6  IDS d 303      88.066  22.789  97.184  0.00  0.00     0.206 C 
ATOM     12  O62 IDS d 303      88.748  21.793  97.494  0.00  0.00    -0.646 OA
ATOM     13  O5  IDS d 303      86.884  22.662  99.361  0.00  0.00    -0.340 OA
ATOM     14  C2  IDS d 303      84.454  22.599  99.490  0.00  0.00     0.134 C 
ATOM     15  O1S IDS d 303      84.312  20.815 102.017  0.00  0.00    -0.572 OA
ATOM     16  H   IDS d 303      84.021  24.753  97.095  0.00  0.00     0.210 HD
ATOM     17  H   IDS d 303      85.913  22.358 101.075  0.00  0.00     0.133 H 
ATOM     18  H   IDS d 303      85.515  23.243  96.263  0.00  0.00     0.092 H 
ATOM     19  H   IDS d 303      83.482  22.606  97.597  0.00  0.00     0.091 H 
ATOM     20  H   IDS d 303      86.727  24.062  98.159  0.00  0.00     0.104 H 
ATOM     21  H   IDS d 303      83.697  23.101 100.055  0.00  0.00     0.097 H 
ATOM     22  C3  SGN d 306      83.691  30.505 108.445  0.00  0.00     0.083 C 
ATOM     23  O1S SGN d 306      84.062  28.102 111.212  0.00  0.00    -0.296 OA
ATOM     24  O4S SGN d 306      78.125  30.254 103.730  0.00  0.00    -0.572 OA
ATOM     25  O5S SGN d 306      80.111  29.231 102.958  0.00  0.00    -0.572 OA
ATOM     26  C2  SGN d 306      82.541  30.043 109.327  0.00  0.00     0.081 C 
ATOM     27  O5  SGN d 306      80.969  30.685 107.596  0.00  0.00    -0.350 OA
ATOM     28  C6  SGN d 306      81.581  30.989 105.268  0.00  0.00     0.067 C 
ATOM     29  S2  SGN d 306      79.550  30.380 103.611  0.00  0.00     0.251 S 
ATOM     30  S1  SGN d 306      83.193  29.087 111.805  0.00  0.00     0.156 S 
ATOM     31  O3S SGN d 306      83.789  29.619 113.005  0.00  0.00    -0.296 OA
ATOM     32  O4  SGN d 306      84.390  30.718 106.142  0.00  0.00    -0.348 OA
ATOM     33  O3  SGN d 306      84.847  29.759 108.778  0.00  0.00    -0.391 OA
ATOM     34  O6S SGN d 306      79.898  31.574 102.883  0.00  0.00    -0.572 OA
ATOM     35  C5  SGN d 306      82.039  31.130 106.709  0.00  0.00     0.091 C 
ATOM     36  O1  SGN d 306      81.363  32.151 109.427  0.00  0.00    -0.369 OA
ATOM     37  N   SGN d 306      82.920  30.399 110.666  0.00  0.00    -0.210 NA
ATOM     38  O6  SGN d 306      80.265  30.484 105.212  0.00  0.00    -0.254 OA
ATOM     39  C4  SGN d 306      83.303  30.284 106.980  0.00  0.00     0.095 C 
ATOM     40  O2S SGN d 306      81.913  28.518 112.095  0.00  0.00    -0.296 OA
ATOM     41  C1  SGN d 306      81.237  30.794 109.013  0.00  0.00     0.147 C 
ATOM     42  H   SGN d 306      83.896  31.544 108.596  0.00  0.00     0.089 H 
ATOM     43  H   SGN d 306      83.651  27.751 110.406  0.00  0.00     0.231 HD
ATOM     44  H   SGN d 306      82.367  28.998 109.178  0.00  0.00     0.076 H 
ATOM     45  H   SGN d 306      82.237  30.318 104.755  0.00  0.00     0.080 H 
ATOM     46  H   SGN d 306      81.600  31.954 104.806  0.00  0.00     0.080 H 
ATOM     47  H   SGN d 306      84.654  30.001 112.794  0.00  0.00     0.231 HD
ATOM     48  H   SGN d 306      84.672  28.815 108.644  0.00  0.00     0.210 HD
ATOM     49  H   SGN d 306      82.276  32.157 106.889  0.00  0.00     0.090 H 
ATOM     50  H   SGN d 306      81.541  32.182 110.380  0.00  0.00     0.212 HD
ATOM     51  H   SGN d 306      82.180  30.987 111.048  0.00  0.00     0.140 HD
ATOM     52  H   SGN d 306      83.105  29.253 106.772  0.00  0.00     0.091 H 
ATOM     53  H   SGN d 306      81.524  28.165 111.280  0.00  0.00     0.231 HD
ATOM     54  H   SGN d 306      80.412  30.368 109.545  0.00  0.00     0.131 H 
ATOM     55  C2  UAP d 301      89.954  17.218  93.851  0.00  0.00     0.132 C 
ATOM     56  S   UAP d 301      91.017  17.121  91.456  0.00  0.00     0.252 S 
ATOM     57  O1S UAP d 301      91.926  16.188  90.912  0.00  0.00    -0.572 OA
ATOM     58  C1  UAP d 301      88.480  17.130  94.185  0.00  0.00     0.161 C 
ATOM     59  O61 UAP d 301      89.525  13.751  97.520  0.00  0.00    -0.646 OA
ATOM     60  C5  UAP d 301      89.086  15.441  95.864  0.00  0.00     0.127 C 
ATOM     61  O3  UAP d 301      91.263  18.170  95.566  0.00  0.00    -0.393 OA
ATOM     62  O2  UAP d 301      90.240  16.348  92.809  0.00  0.00    -0.244 OA
ATOM     63  O5  UAP d 301      88.163  15.952  94.919  0.00  0.00    -0.343 OA
ATOM     64  C6  UAP d 301      88.703  14.237  96.716  0.00  0.00     0.203 C 
ATOM     65  O62 UAP d 301      87.558  13.771  96.530  0.00  0.00    -0.646 OA
ATOM     66  O3S UAP d 301      89.972  17.432  90.531  0.00  0.00    -0.572 OA
ATOM     67  O2S UAP d 301      91.723  18.297  91.902  0.00  0.00    -0.572 OA
ATOM     68  C3  UAP d 301      90.978  16.947  94.964  0.00  0.00     0.069 C 
ATOM     69  C4  UAP d 301      90.529  15.917  96.038  0.00  0.00    -0.005 C 
ATOM     70  H   UAP d 301      90.075  18.255  93.617  0.00  0.00     0.097 H 
ATOM     71  H   UAP d 301      87.882  17.073  93.299  0.00  0.00     0.133 H 
ATOM     72  H   UAP d 301      88.740  16.452  95.818  0.00  0.00     0.100 H 
ATOM     73  H   UAP d 301      91.543  18.806  94.890  0.00  0.00     0.210 HD
ATOM     74  H   UAP d 301      91.836  16.499  94.507  0.00  0.00     0.087 H 
ATOM     75  H   UAP d 301      91.175  15.066  95.981  0.00  0.00     0.041 H 
ATOM     76  H   UAP d 301      90.585  16.409  96.986  0.00  0.00     0.041 H 
ATOM     77  O5  IDS d 305      84.973  28.575 105.193  0.00  0.00    -0.340 OA
ATOM     78  O62 IDS d 305      85.528  25.921 105.772  0.00  0.00    -0.646 OA
ATOM     79  C1  IDS d 305      84.719  29.964 104.968  0.00  0.00     0.161 C 
ATOM     80  O3  IDS d 305      88.049  30.745 105.157  0.00  0.00    -0.390 OA
ATOM     81  C6  IDS d 305      86.498  26.704 105.893  0.00  0.00     0.206 C 
ATOM     82  C2  IDS d 305      85.878  30.677 104.222  0.00  0.00     0.134 C 
ATOM     83  C5  IDS d 305      86.293  28.128 105.376  0.00  0.00     0.152 C 
ATOM     84  C3  IDS d 305      87.306  30.098 104.203  0.00  0.00     0.094 C 
ATOM     85  S   IDS d 305      84.838  30.481 101.684  0.00  0.00     0.252 S 
ATOM     86  C4  IDS d 305      87.379  28.572 104.407  0.00  0.00     0.103 C 
ATOM     87  O3S IDS d 305      84.500  31.438 100.695  0.00  0.00    -0.572 OA
ATOM     88  O1S IDS d 305      83.671  29.801 102.120  0.00  0.00    -0.572 OA
ATOM     89  O2  IDS d 305      85.523  31.387 103.043  0.00  0.00    -0.244 OA
ATOM     90  O61 IDS d 305      87.647  26.324 106.174  0.00  0.00    -0.646 OA
ATOM     91  O2S IDS d 305      85.802  29.562 101.198  0.00  0.00    -0.572 OA
ATOM     92  H   IDS d 305      83.848  29.946 104.346  0.00  0.00     0.133 H 
ATOM     93  H   IDS d 305      87.994  31.704 105.015  0.00  0.00     0.210 HD
ATOM     94  H   IDS d 305      86.028  31.399 104.998  0.00  0.00     0.097 H 
ATOM     95  H   IDS d 305      86.473  28.760 106.221  0.00  0.00     0.104 H 
ATOM     96  H   IDS d 305      87.699  30.264 103.222  0.00  0.00     0.091 H 
ATOM     97  H   IDS d 305      88.348  28.337 104.793  0.00  0.00     0.092 H 
ATOM     98  O6  SGN d 304      87.980  22.954 102.814  0.00  0.00    -0.254 OA
ATOM     99  S2  SGN d 304      88.185  21.285 103.289  0.00  0.00     0.251 S 
ATOM    100  O5S SGN d 304      89.274  20.740 102.522  0.00  0.00    -0.572 OA
ATOM    101  N   SGN d 304      88.114  28.414 100.702  0.00  0.00    -0.210 NA
ATOM    102  O3S SGN d 304      90.501  28.972  99.828  0.00  0.00    -0.296 OA
ATOM    103  C6  SGN d 304      86.837  23.652 103.302  0.00  0.00     0.067 C 
ATOM    104  O3  SGN d 304      87.006  26.344  99.177  0.00  0.00    -0.391 OA
ATOM    105  C5  SGN d 304      86.862  25.024 102.675  0.00  0.00     0.091 C 
ATOM    106  O2S SGN d 304      89.105  30.755 100.397  0.00  0.00    -0.296 OA
ATOM    107  O1  SGN d 304      87.164  27.890 103.165  0.00  0.00    -0.348 OA
ATOM    108  O4S SGN d 304      88.486  21.231 104.687  0.00  0.00    -0.572 OA
ATOM    109  C1  SGN d 304      88.217  27.051 102.682  0.00  0.00     0.150 C 
ATOM    110  C3  SGN d 304      86.954  26.359 100.591  0.00  0.00     0.083 C 
ATOM    111  C2  SGN d 304      88.214  27.042 101.134  0.00  0.00     0.081 C 
ATOM    112  S1  SGN d 304      89.535  29.449 100.765  0.00  0.00     0.156 S 
ATOM    113  O6S SGN d 304      86.960  20.575 102.995  0.00  0.00    -0.572 OA
ATOM    114  O1S SGN d 304      90.100  29.458 102.084  0.00  0.00    -0.296 OA
ATOM    115  O5  SGN d 304      88.059  25.698 103.145  0.00  0.00    -0.349 OA
ATOM    116  C4  SGN d 304      86.908  24.937 101.135  0.00  0.00     0.095 C 
ATOM    117  O4  SGN d 304      85.720  24.304 100.637  0.00  0.00    -0.348 OA
ATOM    118  H   SGN d 304      87.400  28.857 101.280  0.00  0.00     0.140 HD
ATOM    119  H   SGN d 304      90.114  28.968  98.938  0.00  0.00     0.231 HD
ATOM    120  H   SGN d 304      86.883  23.734 104.368  0.00  0.00     0.080 H 
ATOM    121  H   SGN d 304      85.936  23.133 103.052  0.00  0.00     0.080 H 
ATOM    122  H   SGN d 304      87.034  27.256  98.845  0.00  0.00     0.210 HD
ATOM    123  H   SGN d 304      85.974  25.555 102.949  0.00  0.00     0.090 H 
ATOM    124  H   SGN d 304      88.727  30.731  99.504  0.00  0.00     0.231 HD
ATOM    125  H   SGN d 304      89.141  27.444 103.053  0.00  0.00     0.131 H 
ATOM    126  H   SGN d 304      86.076  26.888 100.895  0.00  0.00     0.089 H 
ATOM    127  H   SGN d 304      89.093  26.537 100.793  0.00  0.00     0.076 H 
ATOM    128  H   SGN d 304      90.388  28.562 102.319  0.00  0.00     0.231 HD
ATOM    129  H   SGN d 304      87.764  24.369 100.832  0.00  0.00     0.091 H 
ATOM    130  O5S SGN d 302      87.347  22.632  90.196  0.00  0.00    -0.572 OA
ATOM    131  C4  SGN d 302      86.944  18.860  94.844  0.00  0.00     0.095 C 
ATOM    132  O1S SGN d 302      82.729  16.943  97.770  0.00  0.00    -0.296 OA
ATOM    133  O3  SGN d 302      86.026  17.204  96.310  0.00  0.00    -0.391 OA
ATOM    134  O2S SGN d 302      82.111  18.241  95.894  0.00  0.00    -0.296 OA
ATOM    135  C1  SGN d 302      84.975  20.769  95.773  0.00  0.00     0.150 C 
ATOM    136  C5  SGN d 302      87.115  20.360  94.655  0.00  0.00     0.091 C 
ATOM    137  O3S SGN d 302      81.648  19.036  98.052  0.00  0.00    -0.296 OA
ATOM    138  O5  SGN d 302      85.804  20.984  94.600  0.00  0.00    -0.349 OA
ATOM    139  C6  SGN d 302      87.899  20.626  93.377  0.00  0.00     0.067 C 
ATOM    140  S1  SGN d 302      82.574  18.278  97.247  0.00  0.00     0.156 S 
ATOM    141  O4S SGN d 302      88.044  23.777  92.142  0.00  0.00    -0.572 OA
ATOM    142  O6S SGN d 302      89.352  22.016  91.250  0.00  0.00    -0.572 OA
ATOM    143  O4  SGN d 302      88.212  18.279  94.935  0.00  0.00    -0.348 OA
ATOM    144  N   SGN d 302      84.150  19.079  97.243  0.00  0.00    -0.210 NA
ATOM    145  C3  SGN d 302      86.185  18.600  96.129  0.00  0.00     0.083 C 
ATOM    146  C2  SGN d 302      84.823  19.259  95.979  0.00  0.00     0.081 C 
ATOM    147  S2  SGN d 302      88.015  22.512  91.463  0.00  0.00     0.251 S 
ATOM    148  O6  SGN d 302      87.133  21.352  92.443  0.00  0.00    -0.254 OA
ATOM    149  O1  SGN d 302      85.571  21.290  96.960  0.00  0.00    -0.348 OA
ATOM    150  H   SGN d 302      86.404  18.443  94.020  0.00  0.00     0.091 H 
ATOM    151  H   SGN d 302      81.868  16.496  97.776  0.00  0.00     0.231 HD
ATOM    152  H   SGN d 302      86.897  16.789  96.406  0.00  0.00     0.210 HD
ATOM    153  H   SGN d 302      81.244  17.805  95.860  0.00  0.00     0.231 HD
ATOM    154  H   SGN d 302      84.042  21.265  95.606  0.00  0.00     0.131 H 
ATOM    155  H   SGN d 302      87.659  20.778  95.475  0.00  0.00     0.090 H 
ATOM    156  H   SGN d 302      80.784  18.594  98.052  0.00  0.00     0.231 HD
ATOM    157  H   SGN d 302      88.183  19.690  92.942  0.00  0.00     0.080 H 
ATOM    158  H   SGN d 302      88.763  21.205  93.628  0.00  0.00     0.080 H 
ATOM    159  H   SGN d 302      84.770  18.530  97.839  0.00  0.00     0.140 HD
ATOM    160  H   SGN d 302      86.708  18.993  96.975  0.00  0.00     0.089 H 
ATOM    161  H   SGN d 302      84.300  18.835  95.147  0.00  0.00     0.076 H 
ENDROOT
TORSDOF 50
ENDMDL
MODEL 49
REMARK VINA RESULT:     -10.0      2.898     15.295
REMARK  0 active torsions:
REMARK  status: ('A' for Active; 'I' for Inactive)
REMARK       I    between atoms: S_1  and  O2_2 
REMARK       I    between atoms: O2_2  and  C2_99 
REMARK       I    between atoms: C3_3  and  O3_50 
REMARK       I    between atoms: C2_5  and  O2_57 
REMARK       I    between atoms: O1S_6  and  S1_33 
REMARK       I    between atoms: O3_7  and  C3_52 
REMARK       I    between atoms: O6_9  and  C6_34 
REMARK       I    between atoms: O6_9  and  S2_17 
REMARK       I    between atoms: C2_13  and  N_73 
REMARK       I    between atoms: S_16  and  O2_57 
REMARK       I    between atoms: C1_20  and  O4_43 
REMARK       I    between atoms: C6_21  and  C5_67 
REMARK       I    between atoms: C6_21  and  O6_75 
REMARK       I    between atoms: N_22  and  C2_66 
REMARK       I    between atoms: N_22  and  S1_69 
REMARK       I    between atoms: S2_23  and  O6_75 
REMARK       I    between atoms: C1_24  and  O4_78 
REMARK       I    between atoms: C4_25  and  O4_78 
REMARK       I    between atoms: O3_26  and  C3_81 
REMARK       I    between atoms: O1S_27  and  S1_60 
REMARK       I    between atoms: O3S_28  and  S1_69 
REMARK       I    between atoms: O3_29  and  C3_87 
REMARK       I    between atoms: C6_30  and  C5_80 
REMARK       I    between atoms: O2S_32  and  S1_60 
REMARK       I    between atoms: S1_33  and  N_73 
REMARK       I    between atoms: S1_33  and  O2S_94 
REMARK       I    between atoms: S1_33  and  O3S_35 
REMARK       I    between atoms: C6_34  and  C5_38 
REMARK       I    between atoms: C2_36  and  O2_93 
REMARK       I    between atoms: O3_37  and  C3_65 
REMARK       I    between atoms: C1_40  and  O1_105 
REMARK       I    between atoms: O2S_41  and  S1_69 
REMARK       I    between atoms: C5_42  and  C6_54 
REMARK       I    between atoms: O4_43  and  C4_92 
REMARK       I    between atoms: O1_44  and  C1_62 
REMARK       I    between atoms: O1_44  and  C4_83 
REMARK       I    between atoms: C1_45  and  O4_102 
REMARK       I    between atoms: C4_46  and  O1_105 
REMARK       I    between atoms: O3S_47  and  S1_60 
REMARK       I    between atoms: C5_53  and  C6_61 
REMARK       I    between atoms: C6_54  and  O6_98 
REMARK       I    between atoms: O3_56  and  C3_84 
REMARK       I    between atoms: C5_59  and  C6_63 
REMARK       I    between atoms: S1_60  and  N_86 
REMARK       I    between atoms: S1_69  and  O1S_91 
REMARK       I    between atoms: O1_70  and  C1_96 
REMARK       I    between atoms: S_82  and  O2_93 
REMARK       I    between atoms: N_86  and  C2_90 
REMARK       I    between atoms: S2_95  and  O6_98 
REMARK       I    between atoms: C4_100  and  O4_102 
ROOT
ATOM      1  S   IDS d 303      82.100  21.495 106.571  0.00  0.00     0.252 S 
ATOM      2  O2  IDS d 303      82.584  21.739 104.904  0.00  0.00    -0.244 OA
ATOM      3  O61 IDS d 303      81.996  22.501  99.272  0.00  0.00    -0.646 OA
ATOM      4  O3  IDS d 303      83.541  19.378 102.421  0.00  0.00    -0.390 OA
ATOM      5  O3S IDS d 303      82.779  20.309 107.031  0.00  0.00    -0.572 OA
ATOM      6  C1  IDS d 303      80.929  20.749 103.480  0.00  0.00     0.161 C 
ATOM      7  C4  IDS d 303      83.376  21.758 102.004  0.00  0.00     0.103 C 
ATOM      8  O2S IDS d 303      82.474  22.658 107.327  0.00  0.00    -0.572 OA
ATOM      9  C3  IDS d 303      83.493  20.612 103.034  0.00  0.00     0.094 C 
ATOM     10  C5  IDS d 303      81.925  21.845 101.537  0.00  0.00     0.152 C 
ATOM     11  C6  IDS d 303      81.748  22.845 100.430  0.00  0.00     0.206 C 
ATOM     12  O62 IDS d 303      81.158  23.899 100.735  0.00  0.00    -0.646 OA
ATOM     13  O5  IDS d 303      80.874  21.757 102.481  0.00  0.00    -0.340 OA
ATOM     14  C2  IDS d 303      82.353  20.652 104.067  0.00  0.00     0.134 C 
ATOM     15  O1S IDS d 303      80.683  21.325 106.587  0.00  0.00    -0.572 OA
ATOM     16  H   IDS d 303      84.263  19.366 101.773  0.00  0.00     0.210 HD
ATOM     17  H   IDS d 303      80.229  21.053 104.230  0.00  0.00     0.133 H 
ATOM     18  H   IDS d 303      84.057  21.564 101.200  0.00  0.00     0.092 H 
ATOM     19  H   IDS d 303      84.416  20.763 103.555  0.00  0.00     0.091 H 
ATOM     20  H   IDS d 303      81.766  20.873 101.120  0.00  0.00     0.104 H 
ATOM     21  H   IDS d 303      82.371  19.715 104.583  0.00  0.00     0.097 H 
ATOM     22  C3  SGN d 306      75.380  11.021 105.443  0.00  0.00     0.083 C 
ATOM     23  O1S SGN d 306      73.250  12.375 108.125  0.00  0.00    -0.296 OA
ATOM     24  O4S SGN d 306      82.574  10.072 106.226  0.00  0.00    -0.572 OA
ATOM     25  O5S SGN d 306      81.963  12.073 105.125  0.00  0.00    -0.572 OA
ATOM     26  C2  SGN d 306      75.495  10.614 106.904  0.00  0.00     0.081 C 
ATOM     27  O5  SGN d 306      77.768   9.870 106.507  0.00  0.00    -0.350 OA
ATOM     28  C6  SGN d 306      79.111  10.591 104.620  0.00  0.00     0.067 C 
ATOM     29  S2  SGN d 306      81.732  10.660 105.223  0.00  0.00     0.251 S 
ATOM     30  S1  SGN d 306      73.278  10.974 108.464  0.00  0.00     0.156 S 
ATOM     31  O3S SGN d 306      71.937  10.446 108.510  0.00  0.00    -0.296 OA
ATOM     32  O4  SGN d 306      76.655  11.851 103.566  0.00  0.00    -0.348 OA
ATOM     33  O3  SGN d 306      74.444  12.077 105.337  0.00  0.00    -0.391 OA
ATOM     34  O6S SGN d 306      81.956  10.039 103.942  0.00  0.00    -0.572 OA
ATOM     35  C5  SGN d 306      77.710  10.256 105.101  0.00  0.00     0.091 C 
ATOM     36  O1  SGN d 306      76.000   8.280 106.536  0.00  0.00    -0.369 OA
ATOM     37  N   SGN d 306      74.204  10.093 107.258  0.00  0.00    -0.210 NA
ATOM     38  O6  SGN d 306      80.048  10.424 105.661  0.00  0.00    -0.254 OA
ATOM     39  C4  SGN d 306      76.761  11.464 104.948  0.00  0.00     0.095 C 
ATOM     40  O2S SGN d 306      73.934  10.774 109.719  0.00  0.00    -0.296 OA
ATOM     41  C1  SGN d 306      76.512   9.479 107.107  0.00  0.00     0.147 C 
ATOM     42  H   SGN d 306      75.044  10.201 104.843  0.00  0.00     0.089 H 
ATOM     43  H   SGN d 306      74.156  12.720 108.097  0.00  0.00     0.231 HD
ATOM     44  H   SGN d 306      75.811  11.452 107.490  0.00  0.00     0.076 H 
ATOM     45  H   SGN d 306      79.133  11.608 104.286  0.00  0.00     0.080 H 
ATOM     46  H   SGN d 306      79.366   9.932 103.817  0.00  0.00     0.080 H 
ATOM     47  H   SGN d 306      71.504  10.589 107.654  0.00  0.00     0.231 HD
ATOM     48  H   SGN d 306      74.740  12.827 105.877  0.00  0.00     0.210 HD
ATOM     49  H   SGN d 306      77.332   9.451 104.505  0.00  0.00     0.090 H 
ATOM     50  H   SGN d 306      75.159   8.051 106.963  0.00  0.00     0.212 HD
ATOM     51  H   SGN d 306      74.344   9.146 107.611  0.00  0.00     0.140 HD
ATOM     52  H   SGN d 306      77.135  12.296 105.507  0.00  0.00     0.091 H 
ATOM     53  H   SGN d 306      74.834  11.134 109.673  0.00  0.00     0.231 HD
ATOM     54  H   SGN d 306      76.679   9.297 108.148  0.00  0.00     0.131 H 
ATOM     55  C2  UAP d 301      83.533  29.365 100.367  0.00  0.00     0.132 C 
ATOM     56  S   UAP d 301      84.668  30.651  98.383  0.00  0.00     0.252 S 
ATOM     57  O1S UAP d 301      84.573  32.012  98.021  0.00  0.00    -0.572 OA
ATOM     58  C1  UAP d 301      84.241  28.661 101.505  0.00  0.00     0.161 C 
ATOM     59  O61 UAP d 301      81.328  30.972 104.636  0.00  0.00    -0.646 OA
ATOM     60  C5  UAP d 301      82.721  29.851 103.026  0.00  0.00     0.127 C 
ATOM     61  O3  UAP d 301      81.304  28.661 100.050  0.00  0.00    -0.393 OA
ATOM     62  O2  UAP d 301      84.212  30.535 100.060  0.00  0.00    -0.244 OA
ATOM     63  O5  UAP d 301      83.990  29.280 102.762  0.00  0.00    -0.343 OA
ATOM     64  C6  UAP d 301      82.427  30.427 104.406  0.00  0.00     0.203 C 
ATOM     65  O62 UAP d 301      83.349  30.345 105.246  0.00  0.00    -0.646 OA
ATOM     66  O3S UAP d 301      86.019  30.185  98.313  0.00  0.00    -0.572 OA
ATOM     67  O2S UAP d 301      83.773  29.859  97.576  0.00  0.00    -0.572 OA
ATOM     68  C3  UAP d 301      82.050  29.732 100.537  0.00  0.00     0.069 C 
ATOM     69  C4  UAP d 301      81.615  30.066 101.991  0.00  0.00    -0.005 C 
ATOM     70  H   UAP d 301      83.542  28.624  99.596  0.00  0.00     0.097 H 
ATOM     71  H   UAP d 301      85.304  28.697 101.385  0.00  0.00     0.133 H 
ATOM     72  H   UAP d 301      82.893  28.861 102.661  0.00  0.00     0.100 H 
ATOM     73  H   UAP d 301      81.581  28.460  99.143  0.00  0.00     0.210 HD
ATOM     74  H   UAP d 301      81.880  30.638  99.993  0.00  0.00     0.087 H 
ATOM     75  H   UAP d 301      81.313  31.092 102.027  0.00  0.00     0.041 H 
ATOM     76  H   UAP d 301      80.818  29.398 102.241  0.00  0.00     0.041 H 
ATOM     77  O5  IDS d 305      77.181  14.194 103.822  0.00  0.00    -0.340 OA
ATOM     78  O62 IDS d 305      76.612  16.496 105.259  0.00  0.00    -0.646 OA
ATOM     79  C1  IDS d 305      77.397  12.984 103.093  0.00  0.00     0.161 C 
ATOM     80  O3  IDS d 305      75.033  13.808 100.755  0.00  0.00    -0.390 OA
ATOM     81  C6  IDS d 305      75.826  16.253 104.315  0.00  0.00     0.206 C 
ATOM     82  C2  IDS d 305      77.151  13.144 101.569  0.00  0.00     0.134 C 
ATOM     83  C5  IDS d 305      76.228  15.121 103.368  0.00  0.00     0.152 C 
ATOM     84  C3  IDS d 305      76.292  14.291 101.004  0.00  0.00     0.094 C 
ATOM     85  S   IDS d 305      79.764  13.585 100.834  0.00  0.00     0.252 S 
ATOM     86  C4  IDS d 305      76.222  15.539 101.905  0.00  0.00     0.103 C 
ATOM     87  O3S IDS d 305      80.650  12.924  99.948  0.00  0.00    -0.572 OA
ATOM     88  O1S IDS d 305      80.247  13.486 102.166  0.00  0.00    -0.572 OA
ATOM     89  O2  IDS d 305      78.213  12.738 100.716  0.00  0.00    -0.244 OA
ATOM     90  O61 IDS d 305      74.902  17.016 103.985  0.00  0.00    -0.646 OA
ATOM     91  O2S IDS d 305      79.588  14.942 100.465  0.00  0.00    -0.572 OA
ATOM     92  H   IDS d 305      78.432  12.783 103.272  0.00  0.00     0.133 H 
ATOM     93  H   IDS d 305      75.093  13.023 100.187  0.00  0.00     0.210 HD
ATOM     94  H   IDS d 305      76.404  12.378 101.538  0.00  0.00     0.097 H 
ATOM     95  H   IDS d 305      75.417  14.424 103.407  0.00  0.00     0.104 H 
ATOM     96  H   IDS d 305      76.767  14.626 100.105  0.00  0.00     0.091 H 
ATOM     97  H   IDS d 305      75.323  16.068 101.667  0.00  0.00     0.092 H 
ATOM     98  O6  SGN d 304      77.523  20.988 103.660  0.00  0.00    -0.254 OA
ATOM     99  S2  SGN d 304      77.174  22.336 104.716  0.00  0.00     0.251 S 
ATOM    100  O5S SGN d 304      77.098  23.522 103.903  0.00  0.00    -0.572 OA
ATOM    101  N   SGN d 304      78.567  17.115  99.393  0.00  0.00    -0.210 NA
ATOM    102  O3S SGN d 304      77.638  18.009  97.133  0.00  0.00    -0.296 OA
ATOM    103  C6  SGN d 304      77.833  19.732 104.259  0.00  0.00     0.067 C 
ATOM    104  O3  SGN d 304      80.618  18.790 100.304  0.00  0.00    -0.391 OA
ATOM    105  C5  SGN d 304      78.174  18.784 103.137  0.00  0.00     0.091 C 
ATOM    106  O2S SGN d 304      77.957  15.706  97.346  0.00  0.00    -0.296 OA
ATOM    107  O1  SGN d 304      77.360  16.381 101.685  0.00  0.00    -0.348 OA
ATOM    108  O4S SGN d 304      75.924  22.103 105.373  0.00  0.00    -0.572 OA
ATOM    109  C1  SGN d 304      77.118  17.711 101.218  0.00  0.00     0.150 C 
ATOM    110  C3  SGN d 304      79.578  18.332 101.148  0.00  0.00     0.083 C 
ATOM    111  C2  SGN d 304      78.294  18.179 100.327  0.00  0.00     0.081 C 
ATOM    112  S1  SGN d 304      77.512  16.886  98.005  0.00  0.00     0.156 S 
ATOM    113  O6S SGN d 304      78.250  22.453 105.674  0.00  0.00    -0.572 OA
ATOM    114  O1S SGN d 304      76.146  16.745  98.422  0.00  0.00    -0.296 OA
ATOM    115  O5  SGN d 304      76.985  18.632 102.317  0.00  0.00    -0.349 OA
ATOM    116  C4  SGN d 304      79.318  19.338 102.263  0.00  0.00     0.095 C 
ATOM    117  O4  SGN d 304      80.518  19.468 103.038  0.00  0.00    -0.348 OA
ATOM    118  H   SGN d 304      78.553  16.244  99.923  0.00  0.00     0.140 HD
ATOM    119  H   SGN d 304      78.563  18.099  96.854  0.00  0.00     0.231 HD
ATOM    120  H   SGN d 304      76.988  19.367 104.806  0.00  0.00     0.080 H 
ATOM    121  H   SGN d 304      78.649  19.826 104.944  0.00  0.00     0.080 H 
ATOM    122  H   SGN d 304      80.772  18.140  99.600  0.00  0.00     0.210 HD
ATOM    123  H   SGN d 304      78.494  17.849 103.548  0.00  0.00     0.090 H 
ATOM    124  H   SGN d 304      78.880  15.818  97.071  0.00  0.00     0.231 HD
ATOM    125  H   SGN d 304      76.205  17.698 100.659  0.00  0.00     0.131 H 
ATOM    126  H   SGN d 304      79.871  17.395 101.572  0.00  0.00     0.089 H 
ATOM    127  H   SGN d 304      78.027  19.108  99.869  0.00  0.00     0.076 H 
ATOM    128  H   SGN d 304      75.859  17.556  98.869  0.00  0.00     0.231 HD
ATOM    129  H   SGN d 304      79.043  20.297 101.875  0.00  0.00     0.091 H 
ATOM    130  O5S SGN d 302      87.523  24.728  96.896  0.00  0.00    -0.572 OA
ATOM    131  C4  SGN d 302      84.586  26.311 101.883  0.00  0.00     0.095 C 
ATOM    132  O1S SGN d 302      85.259  25.099 107.182  0.00  0.00    -0.296 OA
ATOM    133  O3  SGN d 302      84.210  26.834 104.189  0.00  0.00    -0.391 OA
ATOM    134  O2S SGN d 302      86.969  24.289 105.766  0.00  0.00    -0.296 OA
ATOM    135  C1  SGN d 302      84.991  23.531 102.585  0.00  0.00     0.150 C 
ATOM    136  C5  SGN d 302      84.489  25.191 100.856  0.00  0.00     0.091 C 
ATOM    137  O3S SGN d 302      85.565  22.768 106.869  0.00  0.00    -0.296 OA
ATOM    138  O5  SGN d 302      85.325  24.083 101.284  0.00  0.00    -0.349 OA
ATOM    139  C6  SGN d 302      84.927  25.711  99.495  0.00  0.00     0.067 C 
ATOM    140  S1  SGN d 302      85.641  24.067 106.250  0.00  0.00     0.156 S 
ATOM    141  O4S SGN d 302      85.499  23.511  96.982  0.00  0.00    -0.572 OA
ATOM    142  O6S SGN d 302      85.481  25.852  96.623  0.00  0.00    -0.572 OA
ATOM    143  O4  SGN d 302      83.746  27.353 101.480  0.00  0.00    -0.348 OA
ATOM    144  N   SGN d 302      84.556  24.125 104.855  0.00  0.00    -0.210 NA
ATOM    145  C3  SGN d 302      84.125  25.795 103.231  0.00  0.00     0.083 C 
ATOM    146  C2  SGN d 302      85.063  24.661 103.615  0.00  0.00     0.081 C 
ATOM    147  S2  SGN d 302      86.141  24.758  97.291  0.00  0.00     0.251 S 
ATOM    148  O6  SGN d 302      86.068  25.029  99.025  0.00  0.00    -0.254 OA
ATOM    149  O1  SGN d 302      83.661  23.015 102.629  0.00  0.00    -0.348 OA
ATOM    150  H   SGN d 302      85.595  26.656 101.959  0.00  0.00     0.091 H 
ATOM    151  H   SGN d 302      85.850  25.074 107.951  0.00  0.00     0.231 HD
ATOM    152  H   SGN d 302      83.610  27.554 103.940  0.00  0.00     0.210 HD
ATOM    153  H   SGN d 302      87.592  24.264 106.509  0.00  0.00     0.231 HD
ATOM    154  H   SGN d 302      85.678  22.736 102.787  0.00  0.00     0.131 H 
ATOM    155  H   SGN d 302      83.480  24.848 100.776  0.00  0.00     0.090 H 
ATOM    156  H   SGN d 302      86.161  22.738 107.634  0.00  0.00     0.231 HD
ATOM    157  H   SGN d 302      85.154  26.754  99.577  0.00  0.00     0.080 H 
ATOM    158  H   SGN d 302      84.129  25.550  98.801  0.00  0.00     0.080 H 
ATOM    159  H   SGN d 302      83.750  24.691 105.122  0.00  0.00     0.140 HD
ATOM    160  H   SGN d 302      83.112  25.455 103.192  0.00  0.00     0.089 H 
ATOM    161  H   SGN d 302      86.068  25.023 103.680  0.00  0.00     0.076 H 
ENDROOT
TORSDOF 50
ENDMDL
MODEL 50
REMARK VINA RESULT:     -10.0      4.295     16.125
REMARK  0 active torsions:
REMARK  status: ('A' for Active; 'I' for Inactive)
REMARK       I    between atoms: S_1  and  O2_2 
REMARK       I    between atoms: O2_2  and  C2_99 
REMARK       I    between atoms: C3_3  and  O3_50 
REMARK       I    between atoms: C2_5  and  O2_57 
REMARK       I    between atoms: O1S_6  and  S1_33 
REMARK       I    between atoms: O3_7  and  C3_52 
REMARK       I    between atoms: O6_9  and  C6_34 
REMARK       I    between atoms: O6_9  and  S2_17 
REMARK       I    between atoms: C2_13  and  N_73 
REMARK       I    between atoms: S_16  and  O2_57 
REMARK       I    between atoms: C1_20  and  O4_43 
REMARK       I    between atoms: C6_21  and  C5_67 
REMARK       I    between atoms: C6_21  and  O6_75 
REMARK       I    between atoms: N_22  and  C2_66 
REMARK       I    between atoms: N_22  and  S1_69 
REMARK       I    between atoms: S2_23  and  O6_75 
REMARK       I    between atoms: C1_24  and  O4_78 
REMARK       I    between atoms: C4_25  and  O4_78 
REMARK       I    between atoms: O3_26  and  C3_81 
REMARK       I    between atoms: O1S_27  and  S1_60 
REMARK       I    between atoms: O3S_28  and  S1_69 
REMARK       I    between atoms: O3_29  and  C3_87 
REMARK       I    between atoms: C6_30  and  C5_80 
REMARK       I    between atoms: O2S_32  and  S1_60 
REMARK       I    between atoms: S1_33  and  N_73 
REMARK       I    between atoms: S1_33  and  O2S_94 
REMARK       I    between atoms: S1_33  and  O3S_35 
REMARK       I    between atoms: C6_34  and  C5_38 
REMARK       I    between atoms: C2_36  and  O2_93 
REMARK       I    between atoms: O3_37  and  C3_65 
REMARK       I    between atoms: C1_40  and  O1_105 
REMARK       I    between atoms: O2S_41  and  S1_69 
REMARK       I    between atoms: C5_42  and  C6_54 
REMARK       I    between atoms: O4_43  and  C4_92 
REMARK       I    between atoms: O1_44  and  C1_62 
REMARK       I    between atoms: O1_44  and  C4_83 
REMARK       I    between atoms: C1_45  and  O4_102 
REMARK       I    between atoms: C4_46  and  O1_105 
REMARK       I    between atoms: O3S_47  and  S1_60 
REMARK       I    between atoms: C5_53  and  C6_61 
REMARK       I    between atoms: C6_54  and  O6_98 
REMARK       I    between atoms: O3_56  and  C3_84 
REMARK       I    between atoms: C5_59  and  C6_63 
REMARK       I    between atoms: S1_60  and  N_86 
REMARK       I    between atoms: S1_69  and  O1S_91 
REMARK       I    between atoms: O1_70  and  C1_96 
REMARK       I    between atoms: S_82  and  O2_93 
REMARK       I    between atoms: N_86  and  C2_90 
REMARK       I    between atoms: S2_95  and  O6_98 
REMARK       I    between atoms: C4_100  and  O4_102 
ROOT
ATOM      1  S   IDS d 303      78.178  19.134 105.956  0.00  0.00     0.252 S 
ATOM      2  O2  IDS d 303      79.688  18.422 105.421  0.00  0.00    -0.244 OA
ATOM      3  O61 IDS d 303      83.434  16.001 101.849  0.00  0.00    -0.646 OA
ATOM      4  O3  IDS d 303      80.865  15.073 105.669  0.00  0.00    -0.390 OA
ATOM      5  O3S IDS d 303      77.749  18.379 107.107  0.00  0.00    -0.572 OA
ATOM      6  C1  IDS d 303      79.209  16.843 103.682  0.00  0.00     0.161 C 
ATOM      7  C4  IDS d 303      82.105  16.844 104.577  0.00  0.00     0.103 C 
ATOM      8  O2S IDS d 303      78.415  20.514 106.275  0.00  0.00    -0.572 OA
ATOM      9  C3  IDS d 303      80.976  16.443 105.554  0.00  0.00     0.094 C 
ATOM     10  C5  IDS d 303      81.588  16.687 103.149  0.00  0.00     0.152 C 
ATOM     11  C6  IDS d 303      82.667  16.924 102.130  0.00  0.00     0.206 C 
ATOM     12  O62 IDS d 303      82.581  17.984 101.481  0.00  0.00    -0.646 OA
ATOM     13  O5  IDS d 303      80.292  17.144 102.813  0.00  0.00    -0.340 OA
ATOM     14  C2  IDS d 303      79.625  17.058 105.152  0.00  0.00     0.134 C 
ATOM     15  O1S IDS d 303      77.246  19.023 104.881  0.00  0.00    -0.572 OA
ATOM     16  H   IDS d 303      81.723  14.698 105.923  0.00  0.00     0.210 HD
ATOM     17  H   IDS d 303      78.426  17.518 103.405  0.00  0.00     0.133 H 
ATOM     18  H   IDS d 303      82.961  16.233 104.776  0.00  0.00     0.092 H 
ATOM     19  H   IDS d 303      81.247  16.838 106.512  0.00  0.00     0.091 H 
ATOM     20  H   IDS d 303      81.339  15.647 103.115  0.00  0.00     0.104 H 
ATOM     21  H   IDS d 303      78.874  16.553 105.723  0.00  0.00     0.097 H 
ATOM     22  C3  SGN d 306      70.253   9.849 103.286  0.00  0.00     0.083 C 
ATOM     23  O1S SGN d 306      67.795  12.481 102.514  0.00  0.00    -0.296 OA
ATOM     24  O4S SGN d 306      73.604   9.362 109.751  0.00  0.00    -0.572 OA
ATOM     25  O5S SGN d 306      74.865  10.449 108.073  0.00  0.00    -0.572 OA
ATOM     26  C2  SGN d 306      69.166  10.302 104.248  0.00  0.00     0.081 C 
ATOM     27  O5  SGN d 306      70.457   9.425 106.103  0.00  0.00    -0.350 OA
ATOM     28  C6  SGN d 306      72.839   8.979 105.994  0.00  0.00     0.067 C 
ATOM     29  S2  SGN d 306      74.032   9.321 108.382  0.00  0.00     0.251 S 
ATOM     30  S1  SGN d 306      66.962  11.491 103.148  0.00  0.00     0.156 S 
ATOM     31  O3S SGN d 306      65.896  11.096 102.262  0.00  0.00    -0.296 OA
ATOM     32  O4  SGN d 306      72.637   9.501 103.094  0.00  0.00    -0.348 OA
ATOM     33  O3  SGN d 306      70.236  10.693 102.149  0.00  0.00    -0.391 OA
ATOM     34  O6S SGN d 306      74.744   8.099 108.105  0.00  0.00    -0.572 OA
ATOM     35  C5  SGN d 306      71.532   8.983 105.221  0.00  0.00     0.091 C 
ATOM     36  O1  SGN d 306      68.673   8.137 105.199  0.00  0.00    -0.369 OA
ATOM     37  N   SGN d 306      67.927  10.079 103.556  0.00  0.00    -0.210 NA
ATOM     38  O6  SGN d 306      72.630   9.391 107.327  0.00  0.00    -0.254 OA
ATOM     39  C4  SGN d 306      71.605   9.928 104.002  0.00  0.00     0.095 C 
ATOM     40  O2S SGN d 306      66.428  11.996 104.375  0.00  0.00    -0.296 OA
ATOM     41  C1  SGN d 306      69.132   9.445 105.523  0.00  0.00     0.147 C 
ATOM     42  H   SGN d 306      70.088   8.841 102.968  0.00  0.00     0.089 H 
ATOM     43  H   SGN d 306      68.509  12.740 103.118  0.00  0.00     0.231 HD
ATOM     44  H   SGN d 306      69.337  11.319 104.535  0.00  0.00     0.076 H 
ATOM     45  H   SGN d 306      73.527   9.649 105.524  0.00  0.00     0.080 H 
ATOM     46  H   SGN d 306      73.233   7.984 105.999  0.00  0.00     0.080 H 
ATOM     47  H   SGN d 306      66.272  10.756 101.436  0.00  0.00     0.231 HD
ATOM     48  H   SGN d 306      70.386  11.610 102.425  0.00  0.00     0.210 HD
ATOM     49  H   SGN d 306      71.346   7.990 104.867  0.00  0.00     0.090 H 
ATOM     50  H   SGN d 306      67.784   8.192 104.814  0.00  0.00     0.212 HD
ATOM     51  H   SGN d 306      67.353   9.476 104.145  0.00  0.00     0.140 HD
ATOM     52  H   SGN d 306      71.826  10.924 104.324  0.00  0.00     0.091 H 
ATOM     53  H   SGN d 306      67.156  12.258 104.960  0.00  0.00     0.231 HD
ATOM     54  H   SGN d 306      68.456   9.856 106.243  0.00  0.00     0.131 H 
ATOM     55  C2  UAP d 301      86.679  22.327 101.480  0.00  0.00     0.132 C 
ATOM     56  S   UAP d 301      89.253  22.305 100.979  0.00  0.00     0.252 S 
ATOM     57  O1S UAP d 301      90.044  23.250 100.291  0.00  0.00    -0.572 OA
ATOM     58  C1  UAP d 301      86.028  22.345 102.847  0.00  0.00     0.161 C 
ATOM     59  O61 UAP d 301      83.230  26.036 101.375  0.00  0.00    -0.646 OA
ATOM     60  C5  UAP d 301      84.637  24.197 102.027  0.00  0.00     0.127 C 
ATOM     61  O3  UAP d 301      85.246  21.601  99.753  0.00  0.00    -0.393 OA
ATOM     62  O2  UAP d 301      87.810  23.129 101.501  0.00  0.00    -0.244 OA
ATOM     63  O5  UAP d 301      85.316  23.553 103.090  0.00  0.00    -0.343 OA
ATOM     64  C6  UAP d 301      83.797  25.436 102.311  0.00  0.00     0.203 C 
ATOM     65  O62 UAP d 301      83.750  25.810 103.503  0.00  0.00    -0.646 OA
ATOM     66  O3S UAP d 301      89.898  21.854 102.173  0.00  0.00    -0.572 OA
ATOM     67  O2S UAP d 301      88.905  21.216 100.100  0.00  0.00    -0.572 OA
ATOM     68  C3  UAP d 301      85.844  22.752 100.262  0.00  0.00     0.069 C 
ATOM     69  C4  UAP d 301      84.763  23.831 100.547  0.00  0.00    -0.005 C 
ATOM     70  H   UAP d 301      86.869  21.285 101.329  0.00  0.00     0.097 H 
ATOM     71  H   UAP d 301      86.760  22.292 103.627  0.00  0.00     0.133 H 
ATOM     72  H   UAP d 301      84.541  23.165 102.291  0.00  0.00     0.100 H 
ATOM     73  H   UAP d 301      85.926  20.933  99.578  0.00  0.00     0.210 HD
ATOM     74  H   UAP d 301      86.509  23.218  99.565  0.00  0.00     0.087 H 
ATOM     75  H   UAP d 301      85.016  24.716 100.000  0.00  0.00     0.041 H 
ATOM     76  H   UAP d 301      83.822  23.420 100.245  0.00  0.00     0.041 H 
ATOM     77  O5  IDS d 305      73.824  11.596 102.909  0.00  0.00    -0.340 OA
ATOM     78  O62 IDS d 305      73.550  14.319 102.459  0.00  0.00    -0.646 OA
ATOM     79  C1  IDS d 305      73.900  10.181 103.092  0.00  0.00     0.161 C 
ATOM     80  O3  IDS d 305      74.415   9.637  99.750  0.00  0.00    -0.390 OA
ATOM     81  C6  IDS d 305      73.602  13.613 101.426  0.00  0.00     0.206 C 
ATOM     82  C2  IDS d 305      74.841   9.489 102.071  0.00  0.00     0.134 C 
ATOM     83  C5  IDS d 305      73.970  12.142 101.622  0.00  0.00     0.152 C 
ATOM     84  C3  IDS d 305      75.216  10.157 100.735  0.00  0.00     0.094 C 
ATOM     85  S   IDS d 305      77.088   9.415 103.655  0.00  0.00     0.252 S 
ATOM     86  C4  IDS d 305      75.129  11.695 100.743  0.00  0.00     0.103 C 
ATOM     87  O3S IDS d 305      77.914   8.363 104.122  0.00  0.00    -0.572 OA
ATOM     88  O1S IDS d 305      76.444  10.049 104.749  0.00  0.00    -0.572 OA
ATOM     89  O2  IDS d 305      75.864   8.666 102.617  0.00  0.00    -0.244 OA
ATOM     90  O61 IDS d 305      73.611  14.089 100.278  0.00  0.00    -0.646 OA
ATOM     91  O2S IDS d 305      77.834  10.355 102.899  0.00  0.00    -0.572 OA
ATOM     92  H   IDS d 305      74.309  10.093 104.077  0.00  0.00     0.133 H 
ATOM     93  H   IDS d 305      74.481   8.669  99.757  0.00  0.00     0.210 HD
ATOM     94  H   IDS d 305      74.075   8.842 101.696  0.00  0.00     0.097 H 
ATOM     95  H   IDS d 305      73.150  11.592 101.211  0.00  0.00     0.104 H 
ATOM     96  H   IDS d 305      76.248   9.940 100.554  0.00  0.00     0.091 H 
ATOM     97  H   IDS d 305      74.986  12.024  99.735  0.00  0.00     0.092 H 
ATOM     98  O6  SGN d 304      77.162  17.197 100.966  0.00  0.00    -0.254 OA
ATOM     99  S2  SGN d 304      76.850  18.909 100.798  0.00  0.00     0.251 S 
ATOM    100  O5S SGN d 304      77.875  19.462  99.952  0.00  0.00    -0.572 OA
ATOM    101  N   SGN d 304      78.907  11.609 100.854  0.00  0.00    -0.210 NA
ATOM    102  O3S SGN d 304      80.258  11.142  98.679  0.00  0.00    -0.296 OA
ATOM    103  C6  SGN d 304      76.388  16.467 101.913  0.00  0.00     0.067 C 
ATOM    104  O3  SGN d 304      80.270  13.475 102.434  0.00  0.00    -0.391 OA
ATOM    105  C5  SGN d 304      76.918  15.055 101.915  0.00  0.00     0.091 C 
ATOM    106  O2S SGN d 304      79.281   9.322  99.767  0.00  0.00    -0.296 OA
ATOM    107  O1  SGN d 304      76.331  12.262 101.280  0.00  0.00    -0.348 OA
ATOM    108  O4S SGN d 304      75.562  19.093 100.203  0.00  0.00    -0.572 OA
ATOM    109  C1  SGN d 304      77.090  13.127 100.430  0.00  0.00     0.150 C 
ATOM    110  C3  SGN d 304      78.882  13.568 102.173  0.00  0.00     0.083 C 
ATOM    111  C2  SGN d 304      78.594  13.014 100.774  0.00  0.00     0.081 C 
ATOM    112  S1  SGN d 304      79.101  10.678  99.374  0.00  0.00     0.156 S 
ATOM    113  O6S SGN d 304      76.906  19.511 102.111  0.00  0.00    -0.572 OA
ATOM    114  O1S SGN d 304      77.944  10.809  98.535  0.00  0.00    -0.296 OA
ATOM    115  O5  SGN d 304      76.688  14.500 100.593  0.00  0.00    -0.349 OA
ATOM    116  C4  SGN d 304      78.431  15.023 102.214  0.00  0.00     0.095 C 
ATOM    117  O4  SGN d 304      78.688  15.535 103.530  0.00  0.00    -0.348 OA
ATOM    118  H   SGN d 304      78.157  11.168 101.385  0.00  0.00     0.140 HD
ATOM    119  H   SGN d 304      81.037  11.050  99.251  0.00  0.00     0.231 HD
ATOM    120  H   SGN d 304      75.356  16.472 101.628  0.00  0.00     0.080 H 
ATOM    121  H   SGN d 304      76.460  16.905 102.886  0.00  0.00     0.080 H 
ATOM    122  H   SGN d 304      80.542  12.544 102.405  0.00  0.00     0.210 HD
ATOM    123  H   SGN d 304      76.419  14.489 102.674  0.00  0.00     0.090 H 
ATOM    124  H   SGN d 304      80.065   9.251 100.332  0.00  0.00     0.231 HD
ATOM    125  H   SGN d 304      76.912  12.827  99.418  0.00  0.00     0.131 H 
ATOM    126  H   SGN d 304      78.356  13.009 102.918  0.00  0.00     0.089 H 
ATOM    127  H   SGN d 304      79.155  13.548 100.035  0.00  0.00     0.076 H 
ATOM    128  H   SGN d 304      77.836  11.738  98.276  0.00  0.00     0.231 HD
ATOM    129  H   SGN d 304      78.953  15.620 101.496  0.00  0.00     0.091 H 
ATOM    130  O5S SGN d 302      89.311  16.483 104.375  0.00  0.00    -0.572 OA
ATOM    131  C4  SGN d 302      84.935  20.575 104.055  0.00  0.00     0.095 C 
ATOM    132  O1S SGN d 302      81.262  22.435 107.667  0.00  0.00    -0.296 OA
ATOM    133  O3  SGN d 302      83.406  22.277 104.761  0.00  0.00    -0.391 OA
ATOM    134  O2S SGN d 302      82.867  20.956 108.574  0.00  0.00    -0.296 OA
ATOM    135  C1  SGN d 302      83.471  18.620 105.610  0.00  0.00     0.150 C 
ATOM    136  C5  SGN d 302      85.064  19.078 103.808  0.00  0.00     0.091 C 
ATOM    137  O3S SGN d 302      80.615  20.305 108.486  0.00  0.00    -0.296 OA
ATOM    138  O5  SGN d 302      84.784  18.368 105.044  0.00  0.00    -0.349 OA
ATOM    139  C6  SGN d 302      86.466  18.765 103.304  0.00  0.00     0.067 C 
ATOM    140  S1  SGN d 302      81.653  21.057 107.824  0.00  0.00     0.156 S 
ATOM    141  O4S SGN d 302      87.504  15.543 103.178  0.00  0.00    -0.572 OA
ATOM    142  O6S SGN d 302      88.775  17.310 102.245  0.00  0.00    -0.572 OA
ATOM    143  O4  SGN d 302      85.167  21.243 102.849  0.00  0.00    -0.348 OA
ATOM    144  N   SGN d 302      81.961  20.362 106.227  0.00  0.00    -0.210 NA
ATOM    145  C3  SGN d 302      83.531  20.885 104.532  0.00  0.00     0.083 C 
ATOM    146  C2  SGN d 302      83.330  20.128 105.835  0.00  0.00     0.081 C 
ATOM    147  S2  SGN d 302      88.236  16.745 103.458  0.00  0.00     0.251 S 
ATOM    148  O6  SGN d 302      87.157  17.919 104.195  0.00  0.00    -0.254 OA
ATOM    149  O1  SGN d 302      82.417  18.234 104.727  0.00  0.00    -0.348 OA
ATOM    150  H   SGN d 302      85.641  20.889 104.795  0.00  0.00     0.091 H 
ATOM    151  H   SGN d 302      81.091  22.824 108.539  0.00  0.00     0.231 HD
ATOM    152  H   SGN d 302      83.535  22.755 103.926  0.00  0.00     0.210 HD
ATOM    153  H   SGN d 302      82.732  21.330 109.459  0.00  0.00     0.231 HD
ATOM    154  H   SGN d 302      83.392  18.052 106.513  0.00  0.00     0.131 H 
ATOM    155  H   SGN d 302      84.362  18.764 103.065  0.00  0.00     0.090 H 
ATOM    156  H   SGN d 302      80.448  20.688 109.361  0.00  0.00     0.231 HD
ATOM    157  H   SGN d 302      87.011  19.681 103.200  0.00  0.00     0.080 H 
ATOM    158  H   SGN d 302      86.380  18.265 102.362  0.00  0.00     0.080 H 
ATOM    159  H   SGN d 302      81.555  20.996 105.539  0.00  0.00     0.140 HD
ATOM    160  H   SGN d 302      82.801  20.595 103.806  0.00  0.00     0.089 H 
ATOM    161  H   SGN d 302      84.048  20.450 106.561  0.00  0.00     0.076 H 
ENDROOT
TORSDOF 50
ENDMDL
MODEL 51
REMARK VINA RESULT:     -10.0      1.851      2.113
REMARK  0 active torsions:
REMARK  status: ('A' for Active; 'I' for Inactive)
REMARK       I    between atoms: S_1  and  O2_2 
REMARK       I    between atoms: O2_2  and  C2_99 
REMARK       I    between atoms: C3_3  and  O3_50 
REMARK       I    between atoms: C2_5  and  O2_57 
REMARK       I    between atoms: O1S_6  and  S1_33 
REMARK       I    between atoms: O3_7  and  C3_52 
REMARK       I    between atoms: O6_9  and  C6_34 
REMARK       I    between atoms: O6_9  and  S2_17 
REMARK       I    between atoms: C2_13  and  N_73 
REMARK       I    between atoms: S_16  and  O2_57 
REMARK       I    between atoms: C1_20  and  O4_43 
REMARK       I    between atoms: C6_21  and  C5_67 
REMARK       I    between atoms: C6_21  and  O6_75 
REMARK       I    between atoms: N_22  and  C2_66 
REMARK       I    between atoms: N_22  and  S1_69 
REMARK       I    between atoms: S2_23  and  O6_75 
REMARK       I    between atoms: C1_24  and  O4_78 
REMARK       I    between atoms: C4_25  and  O4_78 
REMARK       I    between atoms: O3_26  and  C3_81 
REMARK       I    between atoms: O1S_27  and  S1_60 
REMARK       I    between atoms: O3S_28  and  S1_69 
REMARK       I    between atoms: O3_29  and  C3_87 
REMARK       I    between atoms: C6_30  and  C5_80 
REMARK       I    between atoms: O2S_32  and  S1_60 
REMARK       I    between atoms: S1_33  and  N_73 
REMARK       I    between atoms: S1_33  and  O2S_94 
REMARK       I    between atoms: S1_33  and  O3S_35 
REMARK       I    between atoms: C6_34  and  C5_38 
REMARK       I    between atoms: C2_36  and  O2_93 
REMARK       I    between atoms: O3_37  and  C3_65 
REMARK       I    between atoms: C1_40  and  O1_105 
REMARK       I    between atoms: O2S_41  and  S1_69 
REMARK       I    between atoms: C5_42  and  C6_54 
REMARK       I    between atoms: O4_43  and  C4_92 
REMARK       I    between atoms: O1_44  and  C1_62 
REMARK       I    between atoms: O1_44  and  C4_83 
REMARK       I    between atoms: C1_45  and  O4_102 
REMARK       I    between atoms: C4_46  and  O1_105 
REMARK       I    between atoms: O3S_47  and  S1_60 
REMARK       I    between atoms: C5_53  and  C6_61 
REMARK       I    between atoms: C6_54  and  O6_98 
REMARK       I    between atoms: O3_56  and  C3_84 
REMARK       I    between atoms: C5_59  and  C6_63 
REMARK       I    between atoms: S1_60  and  N_86 
REMARK       I    between atoms: S1_69  and  O1S_91 
REMARK       I    between atoms: O1_70  and  C1_96 
REMARK       I    between atoms: S_82  and  O2_93 
REMARK       I    between atoms: N_86  and  C2_90 
REMARK       I    between atoms: S2_95  and  O6_98 
REMARK       I    between atoms: C4_100  and  O4_102 
ROOT
ATOM      1  S   IDS d 303      78.165  21.559 102.745  0.00  0.00     0.252 S 
ATOM      2  O2  IDS d 303      79.105  20.282 101.997  0.00  0.00    -0.244 OA
ATOM      3  O61 IDS d 303      83.030  16.152 101.560  0.00  0.00    -0.646 OA
ATOM      4  O3  IDS d 303      82.030  20.461  99.980  0.00  0.00    -0.390 OA
ATOM      5  O3S IDS d 303      78.302  22.722 101.903  0.00  0.00    -0.572 OA
ATOM      6  C1  IDS d 303      81.275  20.242 103.014  0.00  0.00     0.161 C 
ATOM      7  C4  IDS d 303      80.994  18.374 100.644  0.00  0.00     0.103 C 
ATOM      8  O2S IDS d 303      76.800  21.121 102.841  0.00  0.00    -0.572 OA
ATOM      9  C3  IDS d 303      80.864  19.904 100.464  0.00  0.00     0.094 C 
ATOM     10  C5  IDS d 303      81.755  18.102 101.939  0.00  0.00     0.152 C 
ATOM     11  C6  IDS d 303      82.047  16.640 102.124  0.00  0.00     0.206 C 
ATOM     12  O62 IDS d 303      81.391  16.059 103.009  0.00  0.00    -0.646 OA
ATOM     13  O5  IDS d 303      81.443  18.834 103.109  0.00  0.00    -0.340 OA
ATOM     14  C2  IDS d 303      80.439  20.600 101.768  0.00  0.00     0.134 C 
ATOM     15  O1S IDS d 303      78.708  21.788 104.044  0.00  0.00    -0.572 OA
ATOM     16  H   IDS d 303      82.287  20.013  99.159  0.00  0.00     0.210 HD
ATOM     17  H   IDS d 303      80.764  20.528 103.910  0.00  0.00     0.133 H 
ATOM     18  H   IDS d 303      81.487  17.970  99.783  0.00  0.00     0.092 H 
ATOM     19  H   IDS d 303      80.093  20.061  99.739  0.00  0.00     0.091 H 
ATOM     20  H   IDS d 303      82.687  18.594 101.759  0.00  0.00     0.104 H 
ATOM     21  H   IDS d 303      80.601  21.648 101.625  0.00  0.00     0.097 H 
ATOM     22  C3  SGN d 306      87.312  29.322 106.237  0.00  0.00     0.083 C 
ATOM     23  O1S SGN d 306      85.207  30.117 109.153  0.00  0.00    -0.296 OA
ATOM     24  O4S SGN d 306      84.979  30.101  99.365  0.00  0.00    -0.572 OA
ATOM     25  O5S SGN d 306      84.818  27.899 100.212  0.00  0.00    -0.572 OA
ATOM     26  C2  SGN d 306      86.429  30.557 106.334  0.00  0.00     0.081 C 
ATOM     27  O5  SGN d 306      86.431  30.735 103.916  0.00  0.00    -0.350 OA
ATOM     28  C6  SGN d 306      86.979  28.897 102.431  0.00  0.00     0.067 C 
ATOM     29  S2  SGN d 306      85.650  29.064 100.097  0.00  0.00     0.251 S 
ATOM     30  S1  SGN d 306      85.770  31.409 108.848  0.00  0.00     0.156 S 
ATOM     31  O3S SGN d 306      86.476  31.928 109.992  0.00  0.00    -0.296 OA
ATOM     32  O4  SGN d 306      87.810  27.411 104.845  0.00  0.00    -0.348 OA
ATOM     33  O3  SGN d 306      87.070  28.500 107.364  0.00  0.00    -0.391 OA
ATOM     34  O6S SGN d 306      86.895  28.713  99.461  0.00  0.00    -0.572 OA
ATOM     35  C5  SGN d 306      87.268  29.548 103.772  0.00  0.00     0.091 C 
ATOM     36  O1  SGN d 306      87.912  32.087 105.196  0.00  0.00    -0.369 OA
ATOM     37  N   SGN d 306      86.886  31.263 107.498  0.00  0.00    -0.210 NA
ATOM     38  O6  SGN d 306      86.003  29.628 101.722  0.00  0.00    -0.254 OA
ATOM     39  C4  SGN d 306      86.976  28.581 104.939  0.00  0.00     0.095 C 
ATOM     40  O2S SGN d 306      84.744  32.319 108.441  0.00  0.00    -0.296 OA
ATOM     41  C1  SGN d 306      86.618  31.495 105.132  0.00  0.00     0.147 C 
ATOM     42  H   SGN d 306      88.347  29.592 106.224  0.00  0.00     0.089 H 
ATOM     43  H   SGN d 306      84.735  29.778 108.377  0.00  0.00     0.231 HD
ATOM     44  H   SGN d 306      85.400  30.264 106.369  0.00  0.00     0.076 H 
ATOM     45  H   SGN d 306      86.623  27.901 102.594  0.00  0.00     0.080 H 
ATOM     46  H   SGN d 306      87.881  28.878 101.856  0.00  0.00     0.080 H 
ATOM     47  H   SGN d 306      87.167  31.302 110.257  0.00  0.00     0.231 HD
ATOM     48  H   SGN d 306      86.134  28.248 107.385  0.00  0.00     0.210 HD
ATOM     49  H   SGN d 306      88.305  29.812 103.803  0.00  0.00     0.090 H 
ATOM     50  H   SGN d 306      87.998  32.587 106.023  0.00  0.00     0.212 HD
ATOM     51  H   SGN d 306      87.136  32.207 107.203  0.00  0.00     0.140 HD
ATOM     52  H   SGN d 306      85.953  28.272 104.912  0.00  0.00     0.091 H 
ATOM     53  H   SGN d 306      84.278  31.957 107.671  0.00  0.00     0.231 HD
ATOM     54  H   SGN d 306      85.898  32.287 105.147  0.00  0.00     0.131 H 
ATOM     55  C2  UAP d 301      77.691  11.470 102.056  0.00  0.00     0.132 C 
ATOM     56  S   UAP d 301      78.045   9.149 100.887  0.00  0.00     0.252 S 
ATOM     57  O1S UAP d 301      77.546   7.878 101.242  0.00  0.00    -0.572 OA
ATOM     58  C1  UAP d 301      77.032  12.691 101.450  0.00  0.00     0.161 C 
ATOM     59  O61 UAP d 301      74.283  13.084 105.439  0.00  0.00    -0.646 OA
ATOM     60  C5  UAP d 301      75.691  12.836 103.503  0.00  0.00     0.127 C 
ATOM     61  O3  UAP d 301      79.055  11.950 103.919  0.00  0.00    -0.393 OA
ATOM     62  O2  UAP d 301      77.014  10.332 101.642  0.00  0.00    -0.244 OA
ATOM     63  O5  UAP d 301      75.815  13.029 102.105  0.00  0.00    -0.343 OA
ATOM     64  C6  UAP d 301      74.421  13.288 104.216  0.00  0.00     0.203 C 
ATOM     65  O62 UAP d 301      73.550  13.828 103.501  0.00  0.00    -0.646 OA
ATOM     66  O3S UAP d 301      77.938   9.379  99.479  0.00  0.00    -0.572 OA
ATOM     67  O2S UAP d 301      79.398   9.301 101.365  0.00  0.00    -0.572 OA
ATOM     68  C3  UAP d 301      77.825  11.388 103.584  0.00  0.00     0.069 C 
ATOM     69  C4  UAP d 301      76.688  12.082 104.385  0.00  0.00    -0.005 C 
ATOM     70  H   UAP d 301      78.697  11.550 101.699  0.00  0.00     0.097 H 
ATOM     71  H   UAP d 301      76.759  12.520 100.429  0.00  0.00     0.133 H 
ATOM     72  H   UAP d 301      76.488  13.356 103.016  0.00  0.00     0.100 H 
ATOM     73  H   UAP d 301      79.759  11.511 103.416  0.00  0.00     0.210 HD
ATOM     74  H   UAP d 301      77.751  10.356 103.857  0.00  0.00     0.087 H 
ATOM     75  H   UAP d 301      76.155  11.334 104.934  0.00  0.00     0.041 H 
ATOM     76  H   UAP d 301      77.151  12.805 105.023  0.00  0.00     0.041 H 
ATOM     77  O5  IDS d 305      86.075  25.737 104.988  0.00  0.00    -0.340 OA
ATOM     78  O62 IDS d 305      83.837  24.914 106.405  0.00  0.00    -0.646 OA
ATOM     79  C1  IDS d 305      87.258  26.192 104.328  0.00  0.00     0.161 C 
ATOM     80  O3  IDS d 305      89.269  24.219 106.278  0.00  0.00    -0.390 OA
ATOM     81  C6  IDS d 305      84.934  24.551 106.888  0.00  0.00     0.206 C 
ATOM     82  C2  IDS d 305      88.375  25.116 104.280  0.00  0.00     0.134 C 
ATOM     83  C5  IDS d 305      86.173  24.795 106.026  0.00  0.00     0.152 C 
ATOM     84  C3  IDS d 305      88.396  23.927 105.260  0.00  0.00     0.094 C 
ATOM     85  S   IDS d 305      87.823  24.146 101.767  0.00  0.00     0.252 S 
ATOM     86  C4  IDS d 305      87.016  23.544 105.829  0.00  0.00     0.103 C 
ATOM     87  O3S IDS d 305      88.586  24.036 100.578  0.00  0.00    -0.572 OA
ATOM     88  O1S IDS d 305      86.737  25.038 101.566  0.00  0.00    -0.572 OA
ATOM     89  O2  IDS d 305      88.906  24.819 102.996  0.00  0.00    -0.244 OA
ATOM     90  O61 IDS d 305      85.027  23.812 107.883  0.00  0.00    -0.646 OA
ATOM     91  O2S IDS d 305      87.357  22.878 102.195  0.00  0.00    -0.572 OA
ATOM     92  H   IDS d 305      86.911  26.396 103.337  0.00  0.00     0.133 H 
ATOM     93  H   IDS d 305      90.133  24.459 105.905  0.00  0.00     0.210 HD
ATOM     94  H   IDS d 305      89.088  25.732 104.788  0.00  0.00     0.097 H 
ATOM     95  H   IDS d 305      86.814  25.407 106.626  0.00  0.00     0.104 H 
ATOM     96  H   IDS d 305      88.715  23.069 104.706  0.00  0.00     0.091 H 
ATOM     97  H   IDS d 305      87.171  23.042 106.761  0.00  0.00     0.092 H 
ATOM     98  O6  SGN d 304      82.094  20.384 106.331  0.00  0.00    -0.254 OA
ATOM     99  S2  SGN d 304      80.630  20.040 107.220  0.00  0.00     0.251 S 
ATOM    100  O5S SGN d 304      80.561  18.616 107.418  0.00  0.00    -0.572 OA
ATOM    101  N   SGN d 304      87.204  20.589 103.478  0.00  0.00    -0.210 NA
ATOM    102  O3S SGN d 304      88.656  18.522 104.105  0.00  0.00    -0.296 OA
ATOM    103  C6  SGN d 304      82.287  21.712 105.851  0.00  0.00     0.067 C 
ATOM    104  O3  SGN d 304      84.886  19.751 102.151  0.00  0.00    -0.391 OA
ATOM    105  C5  SGN d 304      83.568  21.708 105.055  0.00  0.00     0.091 C 
ATOM    106  O2S SGN d 304      89.749  20.410 103.272  0.00  0.00    -0.296 OA
ATOM    107  O1  SGN d 304      86.320  22.685 104.917  0.00  0.00    -0.348 OA
ATOM    108  O4S SGN d 304      80.679  20.715 108.482  0.00  0.00    -0.572 OA
ATOM    109  C1  SGN d 304      85.963  21.380 105.381  0.00  0.00     0.150 C 
ATOM    110  C3  SGN d 304      84.861  20.704 103.196  0.00  0.00     0.083 C 
ATOM    111  C2  SGN d 304      85.973  20.380 104.200  0.00  0.00     0.081 C 
ATOM    112  S1  SGN d 304      88.709  19.949 104.127  0.00  0.00     0.156 S 
ATOM    113  O6S SGN d 304      79.504  20.491 106.434  0.00  0.00    -0.572 OA
ATOM    114  O1S SGN d 304      88.920  20.408 105.470  0.00  0.00    -0.296 OA
ATOM    115  O5  SGN d 304      84.648  21.377 105.967  0.00  0.00    -0.349 OA
ATOM    116  C4  SGN d 304      83.526  20.655 103.928  0.00  0.00     0.095 C 
ATOM    117  O4  SGN d 304      82.488  20.973 102.990  0.00  0.00    -0.348 OA
ATOM    118  H   SGN d 304      87.327  21.597 103.386  0.00  0.00     0.140 HD
ATOM    119  H   SGN d 304      88.514  18.218 103.195  0.00  0.00     0.231 HD
ATOM    120  H   SGN d 304      82.367  22.393 106.672  0.00  0.00     0.080 H 
ATOM    121  H   SGN d 304      81.461  22.025 105.246  0.00  0.00     0.080 H 
ATOM    122  H   SGN d 304      85.741  19.794 101.694  0.00  0.00     0.210 HD
ATOM    123  H   SGN d 304      83.710  22.668 104.604  0.00  0.00     0.090 H 
ATOM    124  H   SGN d 304      89.591  20.092 102.370  0.00  0.00     0.231 HD
ATOM    125  H   SGN d 304      86.679  21.091 106.123  0.00  0.00     0.131 H 
ATOM    126  H   SGN d 304      85.003  21.677 102.774  0.00  0.00     0.089 H 
ATOM    127  H   SGN d 304      85.853  19.391 104.587  0.00  0.00     0.076 H 
ATOM    128  H   SGN d 304      88.203  20.085 106.038  0.00  0.00     0.231 HD
ATOM    129  H   SGN d 304      83.339  19.687 104.346  0.00  0.00     0.091 H 
ATOM    130  O5S SGN d 302      81.714  12.584  96.395  0.00  0.00    -0.572 OA
ATOM    131  C4  SGN d 302      78.022  14.718 100.615  0.00  0.00     0.095 C 
ATOM    132  O1S SGN d 302      74.580  18.977 100.789  0.00  0.00    -0.296 OA
ATOM    133  O3  SGN d 302      76.121  15.804 101.585  0.00  0.00    -0.391 OA
ATOM    134  O2S SGN d 302      75.560  18.594  98.673  0.00  0.00    -0.296 OA
ATOM    135  C1  SGN d 302      79.003  17.278  99.684  0.00  0.00     0.150 C 
ATOM    136  C5  SGN d 302      79.473  14.934 100.210  0.00  0.00     0.091 C 
ATOM    137  O3S SGN d 302      76.085  20.553  99.851  0.00  0.00    -0.296 OA
ATOM    138  O5  SGN d 302      79.539  16.006  99.232  0.00  0.00    -0.349 OA
ATOM    139  C6  SGN d 302      80.038  13.640  99.640  0.00  0.00     0.067 C 
ATOM    140  S1  SGN d 302      75.756  19.154  99.974  0.00  0.00     0.156 S 
ATOM    141  O4S SGN d 302      83.014  13.701  98.021  0.00  0.00    -0.572 OA
ATOM    142  O6S SGN d 302      81.911  11.673  98.548  0.00  0.00    -0.572 OA
ATOM    143  O4  SGN d 302      77.978  13.713 101.585  0.00  0.00    -0.348 OA
ATOM    144  N   SGN d 302      77.107  18.291 100.721  0.00  0.00    -0.210 NA
ATOM    145  C3  SGN d 302      77.471  16.001 101.205  0.00  0.00     0.083 C 
ATOM    146  C2  SGN d 302      77.551  17.058 100.115  0.00  0.00     0.081 C 
ATOM    147  S2  SGN d 302      81.846  12.898  97.791  0.00  0.00     0.251 S 
ATOM    148  O6  SGN d 302      80.422  13.795  98.292  0.00  0.00    -0.254 OA
ATOM    149  O1  SGN d 302      79.700  17.787 100.821  0.00  0.00    -0.348 OA
ATOM    150  H   SGN d 302      77.439  14.438  99.763  0.00  0.00     0.091 H 
ATOM    151  H   SGN d 302      73.834  19.447 100.387  0.00  0.00     0.231 HD
ATOM    152  H   SGN d 302      76.076  15.129 102.281  0.00  0.00     0.210 HD
ATOM    153  H   SGN d 302      74.822  19.046  98.234  0.00  0.00     0.231 HD
ATOM    154  H   SGN d 302      79.100  17.976  98.878  0.00  0.00     0.131 H 
ATOM    155  H   SGN d 302      80.058  15.209 101.061  0.00  0.00     0.090 H 
ATOM    156  H   SGN d 302      75.343  21.024  99.441  0.00  0.00     0.231 HD
ATOM    157  H   SGN d 302      79.292  12.876  99.704  0.00  0.00     0.080 H 
ATOM    158  H   SGN d 302      80.905  13.374 100.208  0.00  0.00     0.080 H 
ATOM    159  H   SGN d 302      76.835  18.075 101.680  0.00  0.00     0.140 HD
ATOM    160  H   SGN d 302      78.025  16.301 102.069  0.00  0.00     0.089 H 
ATOM    161  H   SGN d 302      76.968  16.759  99.269  0.00  0.00     0.076 H 
ENDROOT
TORSDOF 50
ENDMDL
MODEL 52
REMARK VINA RESULT:     -10.0      3.421     15.411
REMARK  0 active torsions:
REMARK  status: ('A' for Active; 'I' for Inactive)
REMARK       I    between atoms: S_1  and  O2_2 
REMARK       I    between atoms: O2_2  and  C2_99 
REMARK       I    between atoms: C3_3  and  O3_50 
REMARK       I    between atoms: C2_5  and  O2_57 
REMARK       I    between atoms: O1S_6  and  S1_33 
REMARK       I    between atoms: O3_7  and  C3_52 
REMARK       I    between atoms: O6_9  and  C6_34 
REMARK       I    between atoms: O6_9  and  S2_17 
REMARK       I    between atoms: C2_13  and  N_73 
REMARK       I    between atoms: S_16  and  O2_57 
REMARK       I    between atoms: C1_20  and  O4_43 
REMARK       I    between atoms: C6_21  and  C5_67 
REMARK       I    between atoms: C6_21  and  O6_75 
REMARK       I    between atoms: N_22  and  C2_66 
REMARK       I    between atoms: N_22  and  S1_69 
REMARK       I    between atoms: S2_23  and  O6_75 
REMARK       I    between atoms: C1_24  and  O4_78 
REMARK       I    between atoms: C4_25  and  O4_78 
REMARK       I    between atoms: O3_26  and  C3_81 
REMARK       I    between atoms: O1S_27  and  S1_60 
REMARK       I    between atoms: O3S_28  and  S1_69 
REMARK       I    between atoms: O3_29  and  C3_87 
REMARK       I    between atoms: C6_30  and  C5_80 
REMARK       I    between atoms: O2S_32  and  S1_60 
REMARK       I    between atoms: S1_33  and  N_73 
REMARK       I    between atoms: S1_33  and  O2S_94 
REMARK       I    between atoms: S1_33  and  O3S_35 
REMARK       I    between atoms: C6_34  and  C5_38 
REMARK       I    between atoms: C2_36  and  O2_93 
REMARK       I    between atoms: O3_37  and  C3_65 
REMARK       I    between atoms: C1_40  and  O1_105 
REMARK       I    between atoms: O2S_41  and  S1_69 
REMARK       I    between atoms: C5_42  and  C6_54 
REMARK       I    between atoms: O4_43  and  C4_92 
REMARK       I    between atoms: O1_44  and  C1_62 
REMARK       I    between atoms: O1_44  and  C4_83 
REMARK       I    between atoms: C1_45  and  O4_102 
REMARK       I    between atoms: C4_46  and  O1_105 
REMARK       I    between atoms: O3S_47  and  S1_60 
REMARK       I    between atoms: C5_53  and  C6_61 
REMARK       I    between atoms: C6_54  and  O6_98 
REMARK       I    between atoms: O3_56  and  C3_84 
REMARK       I    between atoms: C5_59  and  C6_63 
REMARK       I    between atoms: S1_60  and  N_86 
REMARK       I    between atoms: S1_69  and  O1S_91 
REMARK       I    between atoms: O1_70  and  C1_96 
REMARK       I    between atoms: S_82  and  O2_93 
REMARK       I    between atoms: N_86  and  C2_90 
REMARK       I    between atoms: S2_95  and  O6_98 
REMARK       I    between atoms: C4_100  and  O4_102 
ROOT
ATOM      1  S   IDS d 303      80.625  19.203 106.967  0.00  0.00     0.252 S 
ATOM      2  O2  IDS d 303      81.645  19.684 105.625  0.00  0.00    -0.244 OA
ATOM      3  O61 IDS d 303      83.019  21.926 100.552  0.00  0.00    -0.646 OA
ATOM      4  O3  IDS d 303      82.776  17.818 102.815  0.00  0.00    -0.390 OA
ATOM      5  O3S IDS d 303      80.847  17.793 107.172  0.00  0.00    -0.572 OA
ATOM      6  C1  IDS d 303      80.337  19.617 103.616  0.00  0.00     0.161 C 
ATOM      7  C4  IDS d 303      83.282  20.163 103.149  0.00  0.00     0.103 C 
ATOM      8  O2S IDS d 303      80.994  19.979 108.119  0.00  0.00    -0.572 OA
ATOM      9  C3  IDS d 303      82.815  18.822 103.760  0.00  0.00     0.094 C 
ATOM     10  C5  IDS d 303      82.105  20.795 102.410  0.00  0.00     0.152 C 
ATOM     11  C6  IDS d 303      82.507  22.038 101.668  0.00  0.00     0.206 C 
ATOM     12  O62 IDS d 303      82.101  23.115 102.146  0.00  0.00    -0.646 OA
ATOM     13  O5  IDS d 303      80.820  20.804 103.005  0.00  0.00    -0.340 OA
ATOM     14  C2  IDS d 303      81.450  18.955 104.457  0.00  0.00     0.134 C 
ATOM     15  O1S IDS d 303      79.273  19.471 106.598  0.00  0.00    -0.572 OA
ATOM     16  H   IDS d 303      83.642  17.745 102.384  0.00  0.00     0.210 HD
ATOM     17  H   IDS d 303      79.525  19.928 104.239  0.00  0.00     0.133 H 
ATOM     18  H   IDS d 303      84.117  19.972 102.507  0.00  0.00     0.092 H 
ATOM     19  H   IDS d 303      83.539  18.556 104.501  0.00  0.00     0.091 H 
ATOM     20  H   IDS d 303      81.871  20.048 101.681  0.00  0.00     0.104 H 
ATOM     21  H   IDS d 303      81.098  17.960 104.637  0.00  0.00     0.097 H 
ATOM     22  C3  SGN d 306      72.438  11.854 101.043  0.00  0.00     0.083 C 
ATOM     23  O1S SGN d 306      69.937  13.100 103.443  0.00  0.00    -0.296 OA
ATOM     24  O4S SGN d 306      78.633   8.612 103.135  0.00  0.00    -0.572 OA
ATOM     25  O5S SGN d 306      78.855  10.908 102.616  0.00  0.00    -0.572 OA
ATOM     26  C2  SGN d 306      72.000  11.091 102.284  0.00  0.00     0.081 C 
ATOM     27  O5  SGN d 306      74.059   9.813 102.212  0.00  0.00    -0.350 OA
ATOM     28  C6  SGN d 306      76.046  10.528 101.017  0.00  0.00     0.067 C 
ATOM     29  S2  SGN d 306      78.297   9.651 102.204  0.00  0.00     0.251 S 
ATOM     30  S1  SGN d 306      69.546  11.718 103.316  0.00  0.00     0.156 S 
ATOM     31  O3S SGN d 306      68.176  11.627 102.879  0.00  0.00    -0.296 OA
ATOM     32  O4  SGN d 306      74.384  12.687  99.877  0.00  0.00    -0.348 OA
ATOM     33  O3  SGN d 306      71.841  13.138 101.063  0.00  0.00    -0.391 OA
ATOM     34  O6S SGN d 306      78.763   9.321 100.881  0.00  0.00    -0.572 OA
ATOM     35  C5  SGN d 306      74.527  10.526 101.027  0.00  0.00     0.091 C 
ATOM     36  O1  SGN d 306      72.062   8.876 101.322  0.00  0.00    -0.369 OA
ATOM     37  N   SGN d 306      70.581  10.916 102.143  0.00  0.00    -0.210 NA
ATOM     38  O6  SGN d 306      76.552   9.839 102.140  0.00  0.00    -0.254 OA
ATOM     39  C4  SGN d 306      73.966  11.964 101.050  0.00  0.00     0.095 C 
ATOM     40  O2S SGN d 306      69.719  11.032 104.559  0.00  0.00    -0.296 OA
ATOM     41  C1  SGN d 306      72.624   9.688 102.347  0.00  0.00     0.147 C 
ATOM     42  H   SGN d 306      72.131  11.346 100.153  0.00  0.00     0.089 H 
ATOM     43  H   SGN d 306      70.860  13.150 103.737  0.00  0.00     0.231 HD
ATOM     44  H   SGN d 306      72.296  11.627 103.162  0.00  0.00     0.076 H 
ATOM     45  H   SGN d 306      76.396  11.538 101.039  0.00  0.00     0.080 H 
ATOM     46  H   SGN d 306      76.385  10.036 100.130  0.00  0.00     0.080 H 
ATOM     47  H   SGN d 306      68.073  12.096 102.036  0.00  0.00     0.231 HD
ATOM     48  H   SGN d 306      72.113  13.608 101.866  0.00  0.00     0.210 HD
ATOM     49  H   SGN d 306      74.184  10.043 100.136  0.00  0.00     0.090 H 
ATOM     50  H   SGN d 306      71.102   8.816 101.447  0.00  0.00     0.212 HD
ATOM     51  H   SGN d 306      70.390   9.916 102.199  0.00  0.00     0.140 HD
ATOM     52  H   SGN d 306      74.323  12.483 101.914  0.00  0.00     0.091 H 
ATOM     53  H   SGN d 306      70.644  11.102 104.840  0.00  0.00     0.231 HD
ATOM     54  H   SGN d 306      72.415   9.218 103.285  0.00  0.00     0.131 H 
ATOM     55  C2  UAP d 301      85.625  27.524 104.094  0.00  0.00     0.132 C 
ATOM     56  S   UAP d 301      87.576  28.845 102.943  0.00  0.00     0.252 S 
ATOM     57  O1S UAP d 301      87.903  30.216 103.020  0.00  0.00    -0.572 OA
ATOM     58  C1  UAP d 301      85.769  26.385 105.082  0.00  0.00     0.161 C 
ATOM     59  O61 UAP d 301      82.618  28.641 108.016  0.00  0.00    -0.646 OA
ATOM     60  C5  UAP d 301      84.157  27.575 106.505  0.00  0.00     0.127 C 
ATOM     61  O3  UAP d 301      83.507  27.626 103.062  0.00  0.00    -0.393 OA
ATOM     62  O2  UAP d 301      86.608  28.471 104.341  0.00  0.00    -0.244 OA
ATOM     63  O5  UAP d 301      85.285  26.729 106.376  0.00  0.00    -0.343 OA
ATOM     64  C6  UAP d 301      83.584  27.862 107.888  0.00  0.00     0.203 C 
ATOM     65  O62 UAP d 301      84.157  27.304 108.848  0.00  0.00    -0.646 OA
ATOM     66  O3S UAP d 301      88.742  28.023 103.045  0.00  0.00    -0.572 OA
ATOM     67  O2S UAP d 301      86.824  28.581 101.741  0.00  0.00    -0.572 OA
ATOM     68  C3  UAP d 301      84.283  28.270 104.022  0.00  0.00     0.069 C 
ATOM     69  C4  UAP d 301      83.504  28.358 105.364  0.00  0.00    -0.005 C 
ATOM     70  H   UAP d 301      85.708  27.024 103.153  0.00  0.00     0.097 H 
ATOM     71  H   UAP d 301      86.797  26.126 105.230  0.00  0.00     0.133 H 
ATOM     72  H   UAP d 301      84.209  26.698 105.895  0.00  0.00     0.100 H 
ATOM     73  H   UAP d 301      84.000  27.576 102.228  0.00  0.00     0.210 HD
ATOM     74  H   UAP d 301      84.496  29.289 103.771  0.00  0.00     0.087 H 
ATOM     75  H   UAP d 301      83.442  29.387 105.652  0.00  0.00     0.041 H 
ATOM     76  H   UAP d 301      82.541  27.923 105.196  0.00  0.00     0.041 H 
ATOM     77  O5  IDS d 305      75.311  14.627 100.978  0.00  0.00    -0.340 OA
ATOM     78  O62 IDS d 305      74.850  16.574 102.898  0.00  0.00    -0.646 OA
ATOM     79  C1  IDS d 305      75.468  13.621  99.975  0.00  0.00     0.161 C 
ATOM     80  O3  IDS d 305      74.192  15.662  97.536  0.00  0.00    -0.390 OA
ATOM     81  C6  IDS d 305      74.362  16.815 101.770  0.00  0.00     0.206 C 
ATOM     82  C2  IDS d 305      75.750  14.211  98.567  0.00  0.00     0.134 C 
ATOM     83  C5  IDS d 305      74.776  15.880 100.634  0.00  0.00     0.152 C 
ATOM     84  C3  IDS d 305      75.386  15.666  98.212  0.00  0.00     0.094 C 
ATOM     85  S   IDS d 305      78.491  14.005  98.640  0.00  0.00     0.252 S 
ATOM     86  C4  IDS d 305      75.318  16.620  99.420  0.00  0.00     0.103 C 
ATOM     87  O3S IDS d 305      79.438  13.342  97.821  0.00  0.00    -0.572 OA
ATOM     88  O1S IDS d 305      78.501  13.446  99.944  0.00  0.00    -0.572 OA
ATOM     89  O2  IDS d 305      76.906  13.722  97.901  0.00  0.00    -0.244 OA
ATOM     90  O61 IDS d 305      73.781  17.878 101.494  0.00  0.00    -0.646 OA
ATOM     91  O2S IDS d 305      78.744  15.399  98.690  0.00  0.00    -0.572 OA
ATOM     92  H   IDS d 305      76.325  13.079 100.316  0.00  0.00     0.133 H 
ATOM     93  H   IDS d 305      74.250  15.058  96.780  0.00  0.00     0.210 HD
ATOM     94  H   IDS d 305      74.899  13.739  98.121  0.00  0.00     0.097 H 
ATOM     95  H   IDS d 305      73.860  15.473 100.259  0.00  0.00     0.104 H 
ATOM     96  H   IDS d 305      76.179  16.048  97.602  0.00  0.00     0.091 H 
ATOM     97  H   IDS d 305      74.679  17.437  99.160  0.00  0.00     0.092 H 
ATOM     98  O6  SGN d 304      77.187  20.825 103.065  0.00  0.00    -0.254 OA
ATOM     99  S2  SGN d 304      76.836  21.919 104.382  0.00  0.00     0.251 S 
ATOM    100  O5S SGN d 304      77.282  23.231 103.994  0.00  0.00    -0.572 OA
ATOM    101  N   SGN d 304      78.616  17.970  98.157  0.00  0.00    -0.210 NA
ATOM    102  O3S SGN d 304      78.658  19.621  96.146  0.00  0.00    -0.296 OA
ATOM    103  C6  SGN d 304      77.007  19.429 103.290  0.00  0.00     0.067 C 
ATOM    104  O3  SGN d 304      80.601  18.672 100.002  0.00  0.00    -0.391 OA
ATOM    105  C5  SGN d 304      77.461  18.723 102.037  0.00  0.00     0.091 C 
ATOM    106  O2S SGN d 304      78.375  17.350  95.685  0.00  0.00    -0.296 OA
ATOM    107  O1  SGN d 304      76.626  17.105  99.750  0.00  0.00    -0.348 OA
ATOM    108  O4S SGN d 304      75.425  21.924 104.622  0.00  0.00    -0.572 OA
ATOM    109  C1  SGN d 304      76.842  18.517  99.686  0.00  0.00     0.150 C 
ATOM    110  C3  SGN d 304      79.276  18.361 100.391  0.00  0.00     0.083 C 
ATOM    111  C2  SGN d 304      78.310  18.808  99.289  0.00  0.00     0.081 C 
ATOM    112  S1  SGN d 304      78.021  18.413  96.562  0.00  0.00     0.156 S 
ATOM    113  O6S SGN d 304      77.559  21.469 105.551  0.00  0.00    -0.572 OA
ATOM    114  O1S SGN d 304      76.598  18.596  96.583  0.00  0.00    -0.296 OA
ATOM    115  O5  SGN d 304      76.583  19.141 100.958  0.00  0.00    -0.349 OA
ATOM    116  C4  SGN d 304      78.913  19.098 101.674  0.00  0.00     0.095 C 
ATOM    117  O4  SGN d 304      79.810  18.667 102.708  0.00  0.00    -0.348 OA
ATOM    118  H   SGN d 304      78.245  17.043  98.364  0.00  0.00     0.140 HD
ATOM    119  H   SGN d 304      79.619  19.492  96.133  0.00  0.00     0.231 HD
ATOM    120  H   SGN d 304      75.976  19.216 103.479  0.00  0.00     0.080 H 
ATOM    121  H   SGN d 304      77.571  19.103 104.139  0.00  0.00     0.080 H 
ATOM    122  H   SGN d 304      80.818  18.196  99.185  0.00  0.00     0.210 HD
ATOM    123  H   SGN d 304      77.422  17.665 102.192  0.00  0.00     0.090 H 
ATOM    124  H   SGN d 304      79.338  17.240  95.683  0.00  0.00     0.231 HD
ATOM    125  H   SGN d 304      76.170  18.917  98.956  0.00  0.00     0.131 H 
ATOM    126  H   SGN d 304      79.206  17.306 100.552  0.00  0.00     0.089 H 
ATOM    127  H   SGN d 304      78.412  19.856  99.101  0.00  0.00     0.076 H 
ATOM    128  H   SGN d 304      76.374  19.323  97.185  0.00  0.00     0.231 HD
ATOM    129  H   SGN d 304      78.992  20.159 101.558  0.00  0.00     0.091 H 
ATOM    130  O5S SGN d 302      89.360  22.880 100.361  0.00  0.00    -0.572 OA
ATOM    131  C4  SGN d 302      85.448  24.023 104.764  0.00  0.00     0.095 C 
ATOM    132  O1S SGN d 302      84.156  21.421 109.408  0.00  0.00    -0.296 OA
ATOM    133  O3  SGN d 302      84.502  24.062 106.963  0.00  0.00    -0.391 OA
ATOM    134  O2S SGN d 302      85.996  20.499 108.247  0.00  0.00    -0.296 OA
ATOM    135  C1  SGN d 302      84.987  21.168 104.621  0.00  0.00     0.150 C 
ATOM    136  C5  SGN d 302      85.429  23.268 103.442  0.00  0.00     0.091 C 
ATOM    137  O3S SGN d 302      84.017  19.255 108.451  0.00  0.00    -0.296 OA
ATOM    138  O5  SGN d 302      85.823  21.890 103.678  0.00  0.00    -0.349 OA
ATOM    139  C6  SGN d 302      86.373  23.944 102.457  0.00  0.00     0.067 C 
ATOM    140  S1  SGN d 302      84.569  20.580 108.312  0.00  0.00     0.156 S 
ATOM    141  O4S SGN d 302      87.193  22.350  99.583  0.00  0.00    -0.572 OA
ATOM    142  O6S SGN d 302      87.808  24.600  99.991  0.00  0.00    -0.572 OA
ATOM    143  O4  SGN d 302      85.029  25.335 104.529  0.00  0.00    -0.348 OA
ATOM    144  N   SGN d 302      84.012  21.299 106.795  0.00  0.00    -0.210 NA
ATOM    145  C3  SGN d 302      84.489  23.361 105.733  0.00  0.00     0.083 C 
ATOM    146  C2  SGN d 302      84.985  21.940 105.943  0.00  0.00     0.081 C 
ATOM    147  S2  SGN d 302      87.967  23.230 100.412  0.00  0.00     0.251 S 
ATOM    148  O6  SGN d 302      87.422  23.084 102.075  0.00  0.00    -0.254 OA
ATOM    149  O1  SGN d 302      83.630  21.084 104.188  0.00  0.00    -0.348 OA
ATOM    150  H   SGN d 302      86.435  24.017 105.178  0.00  0.00     0.091 H 
ATOM    151  H   SGN d 302      84.457  21.034 110.244  0.00  0.00     0.231 HD
ATOM    152  H   SGN d 302      84.184  24.968 106.823  0.00  0.00     0.210 HD
ATOM    153  H   SGN d 302      86.336  20.108 109.067  0.00  0.00     0.231 HD
ATOM    154  H   SGN d 302      85.383  20.178 104.714  0.00  0.00     0.131 H 
ATOM    155  H   SGN d 302      84.445  23.277 103.025  0.00  0.00     0.090 H 
ATOM    156  H   SGN d 302      84.324  18.863 109.283  0.00  0.00     0.231 HD
ATOM    157  H   SGN d 302      86.788  24.817 102.917  0.00  0.00     0.080 H 
ATOM    158  H   SGN d 302      85.815  24.205 101.583  0.00  0.00     0.080 H 
ATOM    159  H   SGN d 302      83.311  22.001 107.033  0.00  0.00     0.140 HD
ATOM    160  H   SGN d 302      83.489  23.364 105.352  0.00  0.00     0.089 H 
ATOM    161  H   SGN d 302      85.975  21.952 106.352  0.00  0.00     0.076 H 
ENDROOT
TORSDOF 50
ENDMDL
MODEL 53
REMARK VINA RESULT:      -9.9      2.837     15.379
REMARK  0 active torsions:
REMARK  status: ('A' for Active; 'I' for Inactive)
REMARK       I    between atoms: S_1  and  O2_2 
REMARK       I    between atoms: O2_2  and  C2_99 
REMARK       I    between atoms: C3_3  and  O3_50 
REMARK       I    between atoms: C2_5  and  O2_57 
REMARK       I    between atoms: O1S_6  and  S1_33 
REMARK       I    between atoms: O3_7  and  C3_52 
REMARK       I    between atoms: O6_9  and  C6_34 
REMARK       I    between atoms: O6_9  and  S2_17 
REMARK       I    between atoms: C2_13  and  N_73 
REMARK       I    between atoms: S_16  and  O2_57 
REMARK       I    between atoms: C1_20  and  O4_43 
REMARK       I    between atoms: C6_21  and  C5_67 
REMARK       I    between atoms: C6_21  and  O6_75 
REMARK       I    between atoms: N_22  and  C2_66 
REMARK       I    between atoms: N_22  and  S1_69 
REMARK       I    between atoms: S2_23  and  O6_75 
REMARK       I    between atoms: C1_24  and  O4_78 
REMARK       I    between atoms: C4_25  and  O4_78 
REMARK       I    between atoms: O3_26  and  C3_81 
REMARK       I    between atoms: O1S_27  and  S1_60 
REMARK       I    between atoms: O3S_28  and  S1_69 
REMARK       I    between atoms: O3_29  and  C3_87 
REMARK       I    between atoms: C6_30  and  C5_80 
REMARK       I    between atoms: O2S_32  and  S1_60 
REMARK       I    between atoms: S1_33  and  N_73 
REMARK       I    between atoms: S1_33  and  O2S_94 
REMARK       I    between atoms: S1_33  and  O3S_35 
REMARK       I    between atoms: C6_34  and  C5_38 
REMARK       I    between atoms: C2_36  and  O2_93 
REMARK       I    between atoms: O3_37  and  C3_65 
REMARK       I    between atoms: C1_40  and  O1_105 
REMARK       I    between atoms: O2S_41  and  S1_69 
REMARK       I    between atoms: C5_42  and  C6_54 
REMARK       I    between atoms: O4_43  and  C4_92 
REMARK       I    between atoms: O1_44  and  C1_62 
REMARK       I    between atoms: O1_44  and  C4_83 
REMARK       I    between atoms: C1_45  and  O4_102 
REMARK       I    between atoms: C4_46  and  O1_105 
REMARK       I    between atoms: O3S_47  and  S1_60 
REMARK       I    between atoms: C5_53  and  C6_61 
REMARK       I    between atoms: C6_54  and  O6_98 
REMARK       I    between atoms: O3_56  and  C3_84 
REMARK       I    between atoms: C5_59  and  C6_63 
REMARK       I    between atoms: S1_60  and  N_86 
REMARK       I    between atoms: S1_69  and  O1S_91 
REMARK       I    between atoms: O1_70  and  C1_96 
REMARK       I    between atoms: S_82  and  O2_93 
REMARK       I    between atoms: N_86  and  C2_90 
REMARK       I    between atoms: S2_95  and  O6_98 
REMARK       I    between atoms: C4_100  and  O4_102 
ROOT
ATOM      1  S   IDS d 303      86.412  21.375 106.081  0.00  0.00     0.252 S 
ATOM      2  O2  IDS d 303      86.228  22.144 104.517  0.00  0.00    -0.244 OA
ATOM      3  O61 IDS d 303      83.545  24.419 100.013  0.00  0.00    -0.646 OA
ATOM      4  O3  IDS d 303      86.176  20.731 101.252  0.00  0.00    -0.390 OA
ATOM      5  O3S IDS d 303      87.218  20.197 105.871  0.00  0.00    -0.572 OA
ATOM      6  C1  IDS d 303      84.158  21.415 103.551  0.00  0.00     0.161 C 
ATOM      7  C4  IDS d 303      85.860  23.093 101.687  0.00  0.00     0.103 C 
ATOM      8  O2S IDS d 303      87.043  22.307 106.974  0.00  0.00    -0.572 OA
ATOM      9  C3  IDS d 303      86.361  21.721 102.194  0.00  0.00     0.094 C 
ATOM     10  C5  IDS d 303      84.341  23.135 101.826  0.00  0.00     0.152 C 
ATOM     11  C6  IDS d 303      83.754  24.382 101.228  0.00  0.00     0.206 C 
ATOM     12  O62 IDS d 303      83.322  25.225 102.037  0.00  0.00    -0.646 OA
ATOM     13  O5  IDS d 303      83.725  22.653 103.007  0.00  0.00    -0.340 OA
ATOM     14  C2  IDS d 303      85.698  21.325 103.525  0.00  0.00     0.134 C 
ATOM     15  O1S IDS d 303      85.108  21.038 106.551  0.00  0.00    -0.572 OA
ATOM     16  H   IDS d 303      86.599  20.993 100.419  0.00  0.00     0.210 HD
ATOM     17  H   IDS d 303      83.794  21.403 104.557  0.00  0.00     0.133 H 
ATOM     18  H   IDS d 303      86.186  23.222 100.675  0.00  0.00     0.092 H 
ATOM     19  H   IDS d 303      87.413  21.826 102.367  0.00  0.00     0.091 H 
ATOM     20  H   IDS d 303      84.037  22.312 101.213  0.00  0.00     0.104 H 
ATOM     21  H   IDS d 303      85.913  20.288 103.679  0.00  0.00     0.097 H 
ATOM     22  C3  SGN d 306      79.790  10.940 104.239  0.00  0.00     0.083 C 
ATOM     23  O1S SGN d 306      78.833  11.198 107.786  0.00  0.00    -0.296 OA
ATOM     24  O4S SGN d 306      86.746  10.678 102.044  0.00  0.00    -0.572 OA
ATOM     25  O5S SGN d 306      85.758  12.823 101.919  0.00  0.00    -0.572 OA
ATOM     26  C2  SGN d 306      80.452  10.146 105.355  0.00  0.00     0.081 C 
ATOM     27  O5  SGN d 306      82.406   9.827 103.957  0.00  0.00    -0.350 OA
ATOM     28  C6  SGN d 306      82.930  11.217 102.039  0.00  0.00     0.067 C 
ATOM     29  S2  SGN d 306      85.585  11.424 101.648  0.00  0.00     0.251 S 
ATOM     30  S1  SGN d 306      78.991   9.773 107.637  0.00  0.00     0.156 S 
ATOM     31  O3S SGN d 306      77.769   9.097 107.995  0.00  0.00    -0.296 OA
ATOM     32  O4  SGN d 306      80.256  12.422 102.388  0.00  0.00    -0.348 OA
ATOM     33  O3  SGN d 306      78.882  11.861 104.812  0.00  0.00    -0.391 OA
ATOM     34  O6S SGN d 306      85.307  11.230 100.247  0.00  0.00    -0.572 OA
ATOM     35  C5  SGN d 306      81.818  10.591 102.861  0.00  0.00     0.091 C 
ATOM     36  O1  SGN d 306      80.784   8.096 104.122  0.00  0.00    -0.369 OA
ATOM     37  N   SGN d 306      79.392   9.394 105.968  0.00  0.00    -0.210 NA
ATOM     38  O6  SGN d 306      84.193  10.872 102.565  0.00  0.00    -0.254 OA
ATOM     39  C4  SGN d 306      80.879  11.669 103.445  0.00  0.00     0.095 C 
ATOM     40  O2S SGN d 306      80.075   9.301 108.442  0.00  0.00    -0.296 OA
ATOM     41  C1  SGN d 306      81.472   9.132 104.814  0.00  0.00     0.147 C 
ATOM     42  H   SGN d 306      79.253  10.293 103.577  0.00  0.00     0.089 H 
ATOM     43  H   SGN d 306      79.660  11.643 107.543  0.00  0.00     0.231 HD
ATOM     44  H   SGN d 306      80.964  10.812 106.019  0.00  0.00     0.076 H 
ATOM     45  H   SGN d 306      82.822  12.281 102.054  0.00  0.00     0.080 H 
ATOM     46  H   SGN d 306      82.864  10.852 101.035  0.00  0.00     0.080 H 
ATOM     47  H   SGN d 306      77.043   9.427 107.443  0.00  0.00     0.231 HD
ATOM     48  H   SGN d 306      79.358  12.454 105.414  0.00  0.00     0.210 HD
ATOM     49  H   SGN d 306      81.243   9.953 102.222  0.00  0.00     0.090 H 
ATOM     50  H   SGN d 306      80.169   7.654 104.729  0.00  0.00     0.212 HD
ATOM     51  H   SGN d 306      79.657   8.410 105.933  0.00  0.00     0.140 HD
ATOM     52  H   SGN d 306      81.435  12.344 104.062  0.00  0.00     0.091 H 
ATOM     53  H   SGN d 306      80.889   9.764 108.190  0.00  0.00     0.231 HD
ATOM     54  H   SGN d 306      82.022   8.679 105.613  0.00  0.00     0.131 H 
ATOM     55  C2  UAP d 301      85.367  30.811 102.564  0.00  0.00     0.132 C 
ATOM     56  S   UAP d 301      85.663  32.739 100.813  0.00  0.00     0.252 S 
ATOM     57  O1S UAP d 301      85.434  34.125 100.953  0.00  0.00    -0.572 OA
ATOM     58  C1  UAP d 301      86.455  29.898 103.091  0.00  0.00     0.161 C 
ATOM     59  O61 UAP d 301      84.942  30.843 107.613  0.00  0.00    -0.646 OA
ATOM     60  C5  UAP d 301      85.623  30.409 105.346  0.00  0.00     0.127 C 
ATOM     61  O3  UAP d 301      83.186  29.964 102.868  0.00  0.00    -0.393 OA
ATOM     62  O2  UAP d 301      85.877  32.092 102.415  0.00  0.00    -0.244 OA
ATOM     63  O5  UAP d 301      86.699  30.095 104.480  0.00  0.00    -0.343 OA
ATOM     64  C6  UAP d 301      85.873  30.524 106.845  0.00  0.00     0.203 C 
ATOM     65  O62 UAP d 301      87.045  30.315 107.227  0.00  0.00    -0.646 OA
ATOM     66  O3S UAP d 301      86.886  32.479 100.120  0.00  0.00    -0.572 OA
ATOM     67  O2S UAP d 301      84.530  32.112 100.177  0.00  0.00    -0.572 OA
ATOM     68  C3  UAP d 301      84.059  30.932 103.361  0.00  0.00     0.069 C 
ATOM     69  C4  UAP d 301      84.207  30.778 104.901  0.00  0.00    -0.005 C 
ATOM     70  H   UAP d 301      85.085  30.329 101.652  0.00  0.00     0.097 H 
ATOM     71  H   UAP d 301      87.393  30.096 102.614  0.00  0.00     0.133 H 
ATOM     72  H   UAP d 301      85.646  29.593 104.655  0.00  0.00     0.100 H 
ATOM     73  H   UAP d 301      83.099  30.067 101.908  0.00  0.00     0.210 HD
ATOM     74  H   UAP d 301      83.693  31.929 103.227  0.00  0.00     0.087 H 
ATOM     75  H   UAP d 301      83.939  31.707 105.361  0.00  0.00     0.041 H 
ATOM     76  H   UAP d 301      83.566  29.975 105.199  0.00  0.00     0.041 H 
ATOM     77  O5  IDS d 305      80.834  14.638 103.155  0.00  0.00    -0.340 OA
ATOM     78  O62 IDS d 305      80.847  16.343 105.342  0.00  0.00    -0.646 OA
ATOM     79  C1  IDS d 305      80.760  13.724 102.059  0.00  0.00     0.161 C 
ATOM     80  O3  IDS d 305      77.684  14.895 101.111  0.00  0.00    -0.390 OA
ATOM     81  C6  IDS d 305      79.763  16.289 104.719  0.00  0.00     0.206 C 
ATOM     82  C2  IDS d 305      79.955  14.285 100.857  0.00  0.00     0.134 C 
ATOM     83  C5  IDS d 305      79.778  15.535 103.389  0.00  0.00     0.152 C 
ATOM     84  C3  IDS d 305      78.943  15.434 101.027  0.00  0.00     0.094 C 
ATOM     85  S   IDS d 305      82.093  15.230  99.409  0.00  0.00     0.252 S 
ATOM     86  C4  IDS d 305      79.217  16.352 102.234  0.00  0.00     0.103 C 
ATOM     87  O3S IDS d 305      82.577  14.964  98.104  0.00  0.00    -0.572 OA
ATOM     88  O1S IDS d 305      83.044  14.811 100.375  0.00  0.00    -0.572 OA
ATOM     89  O2  IDS d 305      80.615  14.273  99.599  0.00  0.00    -0.244 OA
ATOM     90  O61 IDS d 305      78.782  16.998 104.999  0.00  0.00    -0.646 OA
ATOM     91  O2S IDS d 305      81.787  16.604  99.571  0.00  0.00    -0.572 OA
ATOM     92  H   IDS d 305      81.787  13.606 101.781  0.00  0.00     0.133 H 
ATOM     93  H   IDS d 305      77.526  14.320 100.345  0.00  0.00     0.210 HD
ATOM     94  H   IDS d 305      79.253  13.476 100.859  0.00  0.00     0.097 H 
ATOM     95  H   IDS d 305      79.044  14.763 103.496  0.00  0.00     0.104 H 
ATOM     96  H   IDS d 305      79.041  16.068 100.170  0.00  0.00     0.091 H 
ATOM     97  H   IDS d 305      78.293  16.815 102.513  0.00  0.00     0.092 H 
ATOM     98  O6  SGN d 304      81.074  21.180 105.009  0.00  0.00    -0.254 OA
ATOM     99  S2  SGN d 304      81.149  22.115 106.483  0.00  0.00     0.251 S 
ATOM    100  O5S SGN d 304      80.768  23.467 106.166  0.00  0.00    -0.572 OA
ATOM    101  N   SGN d 304      80.431  18.854  99.673  0.00  0.00    -0.210 NA
ATOM    102  O3S SGN d 304      78.711  20.242  98.299  0.00  0.00    -0.296 OA
ATOM    103  C6  SGN d 304      81.591  19.852 105.033  0.00  0.00     0.067 C 
ATOM    104  O3  SGN d 304      82.670  20.430 100.259  0.00  0.00    -0.391 OA
ATOM    105  C5  SGN d 304      81.483  19.315 103.628  0.00  0.00     0.091 C 
ATOM    106  O2S SGN d 304      79.092  18.031  97.653  0.00  0.00    -0.296 OA
ATOM    107  O1  SGN d 304      80.185  17.352 101.894  0.00  0.00    -0.348 OA
ATOM    108  O4S SGN d 304      80.242  21.555 107.438  0.00  0.00    -0.572 OA
ATOM    109  C1  SGN d 304      79.780  18.721 101.986  0.00  0.00     0.150 C 
ATOM    110  C3  SGN d 304      82.029  19.627 101.232  0.00  0.00     0.083 C 
ATOM    111  C2  SGN d 304      80.529  19.564 100.925  0.00  0.00     0.081 C 
ATOM    112  S1  SGN d 304      78.928  18.909  98.761  0.00  0.00     0.156 S 
ATOM    113  O6S SGN d 304      82.507  22.080 106.975  0.00  0.00    -0.572 OA
ATOM    114  O1S SGN d 304      77.823  18.491  99.575  0.00  0.00    -0.296 OA
ATOM    115  O5  SGN d 304      80.072  19.264 103.286  0.00  0.00    -0.349 OA
ATOM    116  C4  SGN d 304      82.208  20.230 102.620  0.00  0.00     0.095 C 
ATOM    117  O4  SGN d 304      83.613  20.275 102.911  0.00  0.00    -0.348 OA
ATOM    118  H   SGN d 304      80.620  17.872  99.873  0.00  0.00     0.140 HD
ATOM    119  H   SGN d 304      79.461  20.520  97.749  0.00  0.00     0.231 HD
ATOM    120  H   SGN d 304      81.017  19.246 105.703  0.00  0.00     0.080 H 
ATOM    121  H   SGN d 304      82.606  19.842 105.370  0.00  0.00     0.080 H 
ATOM    122  H   SGN d 304      82.547  20.033  99.382  0.00  0.00     0.210 HD
ATOM    123  H   SGN d 304      81.937  18.347 103.582  0.00  0.00     0.090 H 
ATOM    124  H   SGN d 304      79.842  18.328  97.114  0.00  0.00     0.231 HD
ATOM    125  H   SGN d 304      78.724  18.760 101.818  0.00  0.00     0.131 H 
ATOM    126  H   SGN d 304      82.463  18.650 101.208  0.00  0.00     0.089 H 
ATOM    127  H   SGN d 304      80.107  20.546 100.908  0.00  0.00     0.076 H 
ATOM    128  H   SGN d 304      77.725  19.099 100.324  0.00  0.00     0.231 HD
ATOM    129  H   SGN d 304      81.805  21.220 102.677  0.00  0.00     0.091 H 
ATOM    130  O5S SGN d 302      87.753  27.884  96.631  0.00  0.00    -0.572 OA
ATOM    131  C4  SGN d 302      86.923  27.598 102.566  0.00  0.00     0.095 C 
ATOM    132  O1S SGN d 302      89.559  25.003 106.606  0.00  0.00    -0.296 OA
ATOM    133  O3  SGN d 302      87.450  27.387 104.893  0.00  0.00    -0.391 OA
ATOM    134  O2S SGN d 302      90.606  24.846 104.493  0.00  0.00    -0.296 OA
ATOM    135  C1  SGN d 302      87.570  24.804 102.170  0.00  0.00     0.150 C 
ATOM    136  C5  SGN d 302      86.447  26.818 101.349  0.00  0.00     0.091 C 
ATOM    137  O3S SGN d 302      89.728  22.915 105.493  0.00  0.00    -0.296 OA
ATOM    138  O5  SGN d 302      87.385  25.743 101.078  0.00  0.00    -0.349 OA
ATOM    139  C6  SGN d 302      86.334  27.758 100.156  0.00  0.00     0.067 C 
ATOM    140  S1  SGN d 302      89.561  24.337 105.327  0.00  0.00     0.156 S 
ATOM    141  O4S SGN d 302      85.916  26.459  97.055  0.00  0.00    -0.572 OA
ATOM    142  O6S SGN d 302      85.757  28.785  97.476  0.00  0.00    -0.572 OA
ATOM    143  O4  SGN d 302      85.991  28.603 102.839  0.00  0.00    -0.348 OA
ATOM    144  N   SGN d 302      88.027  24.663 104.508  0.00  0.00    -0.210 NA
ATOM    145  C3  SGN d 302      87.009  26.665 103.757  0.00  0.00     0.083 C 
ATOM    146  C2  SGN d 302      88.025  25.590 103.403  0.00  0.00     0.081 C 
ATOM    147  S2  SGN d 302      86.624  27.632  97.484  0.00  0.00     0.251 S 
ATOM    148  O6  SGN d 302      87.214  27.382  99.120  0.00  0.00    -0.254 OA
ATOM    149  O1  SGN d 302      86.357  24.141 102.527  0.00  0.00    -0.348 OA
ATOM    150  H   SGN d 302      87.885  28.026 102.377  0.00  0.00     0.091 H 
ATOM    151  H   SGN d 302      90.397  24.829 107.062  0.00  0.00     0.231 HD
ATOM    152  H   SGN d 302      86.798  28.071 105.114  0.00  0.00     0.210 HD
ATOM    153  H   SGN d 302      91.464  24.684 104.914  0.00  0.00     0.231 HD
ATOM    154  H   SGN d 302      88.284  24.073 101.853  0.00  0.00     0.131 H 
ATOM    155  H   SGN d 302      85.483  26.394 101.534  0.00  0.00     0.090 H 
ATOM    156  H   SGN d 302      90.569  22.738 105.942  0.00  0.00     0.231 HD
ATOM    157  H   SGN d 302      86.573  28.752 100.472  0.00  0.00     0.080 H 
ATOM    158  H   SGN d 302      85.333  27.708  99.783  0.00  0.00     0.080 H 
ATOM    159  H   SGN d 302      87.382  25.027 105.209  0.00  0.00     0.140 HD
ATOM    160  H   SGN d 302      86.057  26.231 103.980  0.00  0.00     0.089 H 
ATOM    161  H   SGN d 302      88.979  26.036 103.211  0.00  0.00     0.076 H 
ENDROOT
TORSDOF 50
ENDMDL
MODEL 54
REMARK VINA RESULT:      -9.8      3.721      5.399
REMARK  0 active torsions:
REMARK  status: ('A' for Active; 'I' for Inactive)
REMARK       I    between atoms: S_1  and  O2_2 
REMARK       I    between atoms: O2_2  and  C2_99 
REMARK       I    between atoms: C3_3  and  O3_50 
REMARK       I    between atoms: C2_5  and  O2_57 
REMARK       I    between atoms: O1S_6  and  S1_33 
REMARK       I    between atoms: O3_7  and  C3_52 
REMARK       I    between atoms: O6_9  and  C6_34 
REMARK       I    between atoms: O6_9  and  S2_17 
REMARK       I    between atoms: C2_13  and  N_73 
REMARK       I    between atoms: S_16  and  O2_57 
REMARK       I    between atoms: C1_20  and  O4_43 
REMARK       I    between atoms: C6_21  and  C5_67 
REMARK       I    between atoms: C6_21  and  O6_75 
REMARK       I    between atoms: N_22  and  C2_66 
REMARK       I    between atoms: N_22  and  S1_69 
REMARK       I    between atoms: S2_23  and  O6_75 
REMARK       I    between atoms: C1_24  and  O4_78 
REMARK       I    between atoms: C4_25  and  O4_78 
REMARK       I    between atoms: O3_26  and  C3_81 
REMARK       I    between atoms: O1S_27  and  S1_60 
REMARK       I    between atoms: O3S_28  and  S1_69 
REMARK       I    between atoms: O3_29  and  C3_87 
REMARK       I    between atoms: C6_30  and  C5_80 
REMARK       I    between atoms: O2S_32  and  S1_60 
REMARK       I    between atoms: S1_33  and  N_73 
REMARK       I    between atoms: S1_33  and  O2S_94 
REMARK       I    between atoms: S1_33  and  O3S_35 
REMARK       I    between atoms: C6_34  and  C5_38 
REMARK       I    between atoms: C2_36  and  O2_93 
REMARK       I    between atoms: O3_37  and  C3_65 
REMARK       I    between atoms: C1_40  and  O1_105 
REMARK       I    between atoms: O2S_41  and  S1_69 
REMARK       I    between atoms: C5_42  and  C6_54 
REMARK       I    between atoms: O4_43  and  C4_92 
REMARK       I    between atoms: O1_44  and  C1_62 
REMARK       I    between atoms: O1_44  and  C4_83 
REMARK       I    between atoms: C1_45  and  O4_102 
REMARK       I    between atoms: C4_46  and  O1_105 
REMARK       I    between atoms: O3S_47  and  S1_60 
REMARK       I    between atoms: C5_53  and  C6_61 
REMARK       I    between atoms: C6_54  and  O6_98 
REMARK       I    between atoms: O3_56  and  C3_84 
REMARK       I    between atoms: C5_59  and  C6_63 
REMARK       I    between atoms: S1_60  and  N_86 
REMARK       I    between atoms: S1_69  and  O1S_91 
REMARK       I    between atoms: O1_70  and  C1_96 
REMARK       I    between atoms: S_82  and  O2_93 
REMARK       I    between atoms: N_86  and  C2_90 
REMARK       I    between atoms: S2_95  and  O6_98 
REMARK       I    between atoms: C4_100  and  O4_102 
ROOT
ATOM      1  S   IDS d 303      77.517  21.936 103.022  0.00  0.00     0.252 S 
ATOM      2  O2  IDS d 303      78.459  21.784 101.551  0.00  0.00    -0.244 OA
ATOM      3  O61 IDS d 303      82.889  20.410  98.214  0.00  0.00    -0.646 OA
ATOM      4  O3  IDS d 303      80.592  24.128  99.934  0.00  0.00    -0.390 OA
ATOM      5  O3S IDS d 303      77.161  23.329 103.144  0.00  0.00    -0.572 OA
ATOM      6  C1  IDS d 303      80.784  21.894 102.124  0.00  0.00     0.161 C 
ATOM      7  C4  IDS d 303      80.253  21.865  99.140  0.00  0.00     0.103 C 
ATOM      8  O2S IDS d 303      76.360  21.092 102.910  0.00  0.00    -0.572 OA
ATOM      9  C3  IDS d 303      79.755  23.034 100.019  0.00  0.00     0.094 C 
ATOM     10  C5  IDS d 303      81.387  21.155  99.875  0.00  0.00     0.152 C 
ATOM     11  C6  IDS d 303      82.024  20.087  99.031  0.00  0.00     0.206 C 
ATOM     12  O62 IDS d 303      81.782  18.911  99.364  0.00  0.00    -0.646 OA
ATOM     13  O5  IDS d 303      81.268  20.877 101.258  0.00  0.00    -0.340 OA
ATOM     14  C2  IDS d 303      79.575  22.611 101.487  0.00  0.00     0.134 C 
ATOM     15  O1S IDS d 303      78.341  21.512 104.106  0.00  0.00    -0.572 OA
ATOM     16  H   IDS d 303      80.696  24.384  99.005  0.00  0.00     0.210 HD
ATOM     17  H   IDS d 303      80.497  21.389 103.022  0.00  0.00     0.133 H 
ATOM     18  H   IDS d 303      80.558  22.257  98.192  0.00  0.00     0.092 H 
ATOM     19  H   IDS d 303      78.796  23.316  99.637  0.00  0.00     0.091 H 
ATOM     20  H   IDS d 303      82.104  21.940  99.993  0.00  0.00     0.104 H 
ATOM     21  H   IDS d 303      79.463  23.510 102.056  0.00  0.00     0.097 H 
ATOM     22  C3  SGN d 306      85.404  28.611 110.049  0.00  0.00     0.083 C 
ATOM     23  O1S SGN d 306      84.084  26.716 112.918  0.00  0.00    -0.296 OA
ATOM     24  O4S SGN d 306      81.125  32.484 105.582  0.00  0.00    -0.572 OA
ATOM     25  O5S SGN d 306      81.681  30.329 104.783  0.00  0.00    -0.572 OA
ATOM     26  C2  SGN d 306      84.342  29.142 111.000  0.00  0.00     0.081 C 
ATOM     27  O5  SGN d 306      83.627  30.719 109.303  0.00  0.00    -0.350 OA
ATOM     28  C6  SGN d 306      84.114  30.467 106.940  0.00  0.00     0.067 C 
ATOM     29  S2  SGN d 306      82.179  31.527 105.399  0.00  0.00     0.251 S 
ATOM     30  S1  SGN d 306      84.249  28.026 113.495  0.00  0.00     0.156 S 
ATOM     31  O3S SGN d 306      85.121  27.960 114.641  0.00  0.00    -0.296 OA
ATOM     32  O4  SGN d 306      85.886  28.233 107.712  0.00  0.00    -0.348 OA
ATOM     33  O3  SGN d 306      85.669  27.259 110.373  0.00  0.00    -0.391 OA
ATOM     34  O6S SGN d 306      83.240  32.083 104.598  0.00  0.00    -0.572 OA
ATOM     35  C5  SGN d 306      84.623  30.235 108.352  0.00  0.00     0.091 C 
ATOM     36  O1  SGN d 306      85.083  31.441 111.039  0.00  0.00    -0.369 OA
ATOM     37  N   SGN d 306      84.946  29.114 112.302  0.00  0.00    -0.210 NA
ATOM     38  O6  SGN d 306      82.846  31.084 106.962  0.00  0.00    -0.254 OA
ATOM     39  C4  SGN d 306      84.883  28.736 108.614  0.00  0.00     0.095 C 
ATOM     40  O2S SGN d 306      82.981  28.575 113.865  0.00  0.00    -0.296 OA
ATOM     41  C1  SGN d 306      83.981  30.606 110.700  0.00  0.00     0.147 C 
ATOM     42  H   SGN d 306      86.312  29.171 110.139  0.00  0.00     0.089 H 
ATOM     43  H   SGN d 306      83.496  26.772 112.149  0.00  0.00     0.231 HD
ATOM     44  H   SGN d 306      83.451  28.555 110.912  0.00  0.00     0.076 H 
ATOM     45  H   SGN d 306      84.038  29.526 106.435  0.00  0.00     0.080 H 
ATOM     46  H   SGN d 306      84.801  31.108 106.428  0.00  0.00     0.080 H 
ATOM     47  H   SGN d 306      85.976  27.586 114.376  0.00  0.00     0.231 HD
ATOM     48  H   SGN d 306      84.853  26.741 110.295  0.00  0.00     0.210 HD
ATOM     49  H   SGN d 306      85.545  30.764 108.469  0.00  0.00     0.090 H 
ATOM     50  H   SGN d 306      85.290  31.337 111.981  0.00  0.00     0.212 HD
ATOM     51  H   SGN d 306      84.896  30.059 112.683  0.00  0.00     0.140 HD
ATOM     52  H   SGN d 306      83.983  28.176 108.468  0.00  0.00     0.091 H 
ATOM     53  H   SGN d 306      82.406  28.614 113.085  0.00  0.00     0.231 HD
ATOM     54  H   SGN d 306      83.143  30.921 111.286  0.00  0.00     0.131 H 
ATOM     55  C2  UAP d 301      79.030  14.888  95.914  0.00  0.00     0.132 C 
ATOM     56  S   UAP d 301      79.527  14.031  93.486  0.00  0.00     0.252 S 
ATOM     57  O1S UAP d 301      79.430  12.728  92.955  0.00  0.00    -0.572 OA
ATOM     58  C1  UAP d 301      77.983  15.908  96.311  0.00  0.00     0.161 C 
ATOM     59  O61 UAP d 301      76.447  12.857  99.770  0.00  0.00    -0.646 OA
ATOM     60  C5  UAP d 301      77.273  14.322  98.049  0.00  0.00     0.127 C 
ATOM     61  O3  UAP d 301      80.727  14.590  97.524  0.00  0.00    -0.393 OA
ATOM     62  O2  UAP d 301      78.523  14.080  94.907  0.00  0.00    -0.244 OA
ATOM     63  O5  UAP d 301      76.956  15.340  97.117  0.00  0.00    -0.343 OA
ATOM     64  C6  UAP d 301      76.189  13.785  98.976  0.00  0.00     0.203 C 
ATOM     65  O62 UAP d 301      75.058  14.303  98.860  0.00  0.00    -0.646 OA
ATOM     66  O3S UAP d 301      78.983  15.003  92.589  0.00  0.00    -0.572 OA
ATOM     67  O2S UAP d 301      80.895  14.321  93.842  0.00  0.00    -0.572 OA
ATOM     68  C3  UAP d 301      79.602  13.960  96.996  0.00  0.00     0.069 C 
ATOM     69  C4  UAP d 301      78.615  13.592  98.139  0.00  0.00    -0.005 C 
ATOM     70  H   UAP d 301      79.854  15.506  95.623  0.00  0.00     0.097 H 
ATOM     71  H   UAP d 301      77.477  16.301  95.454  0.00  0.00     0.133 H 
ATOM     72  H   UAP d 301      77.772  15.264  97.965  0.00  0.00     0.100 H 
ATOM     73  H   UAP d 301      81.338  14.816  96.805  0.00  0.00     0.210 HD
ATOM     74  H   UAP d 301      79.830  13.025  96.529  0.00  0.00     0.087 H 
ATOM     75  H   UAP d 301      78.430  12.538  98.100  0.00  0.00     0.041 H 
ATOM     76  H   UAP d 301      79.073  13.892  99.058  0.00  0.00     0.041 H 
ATOM     77  O5  IDS d 305      84.659  26.339 106.851  0.00  0.00    -0.340 OA
ATOM     78  O62 IDS d 305      83.138  24.126 107.543  0.00  0.00    -0.646 OA
ATOM     79  C1  IDS d 305      85.484  27.471 106.566  0.00  0.00     0.161 C 
ATOM     80  O3  IDS d 305      88.334  25.570 106.580  0.00  0.00    -0.390 OA
ATOM     81  C6  IDS d 305      84.378  23.951 107.584  0.00  0.00     0.206 C 
ATOM     82  C2  IDS d 305      86.745  27.106 105.738  0.00  0.00     0.134 C 
ATOM     83  C5  IDS d 305      85.243  25.070 107.004  0.00  0.00     0.152 C 
ATOM     84  C3  IDS d 305      87.294  25.667 105.691  0.00  0.00     0.094 C 
ATOM     85  S   IDS d 305      85.729  27.719 103.257  0.00  0.00     0.252 S 
ATOM     86  C4  IDS d 305      86.244  24.574 105.970  0.00  0.00     0.103 C 
ATOM     87  O3S IDS d 305      86.133  28.614 102.235  0.00  0.00    -0.572 OA
ATOM     88  O1S IDS d 305      84.467  28.111 103.774  0.00  0.00    -0.572 OA
ATOM     89  O2  IDS d 305      86.945  27.843 104.539  0.00  0.00    -0.244 OA
ATOM     90  O61 IDS d 305      84.901  22.853 107.837  0.00  0.00    -0.646 OA
ATOM     91  O2S IDS d 305      85.683  26.385 102.781  0.00  0.00    -0.572 OA
ATOM     92  H   IDS d 305      84.838  28.092 105.982  0.00  0.00     0.133 H 
ATOM     93  H   IDS d 305      88.986  26.264 106.392  0.00  0.00     0.210 HD
ATOM     94  H   IDS d 305      87.424  27.493 106.470  0.00  0.00     0.097 H 
ATOM     95  H   IDS d 305      85.882  25.375 107.807  0.00  0.00     0.104 H 
ATOM     96  H   IDS d 305      87.619  25.488 104.687  0.00  0.00     0.091 H 
ATOM     97  H   IDS d 305      86.757  23.706 106.328  0.00  0.00     0.092 H 
ATOM     98  O6  SGN d 304      82.452  20.293 104.644  0.00  0.00    -0.254 OA
ATOM     99  S2  SGN d 304      81.405  19.007 105.195  0.00  0.00     0.251 S 
ATOM    100  O5S SGN d 304      81.699  17.835 104.413  0.00  0.00    -0.572 OA
ATOM    101  N   SGN d 304      86.389  23.908 102.251  0.00  0.00    -0.210 NA
ATOM    102  O3S SGN d 304      88.364  22.538 101.254  0.00  0.00    -0.296 OA
ATOM    103  C6  SGN d 304      82.214  21.608 105.141  0.00  0.00     0.067 C 
ATOM    104  O3  SGN d 304      84.025  23.298 100.880  0.00  0.00    -0.391 OA
ATOM    105  C5  SGN d 304      83.191  22.522 104.444  0.00  0.00     0.091 C 
ATOM    106  O2S SGN d 304      88.750  24.779 101.787  0.00  0.00    -0.296 OA
ATOM    107  O1  SGN d 304      85.519  24.259 104.775  0.00  0.00    -0.348 OA
ATOM    108  O4S SGN d 304      81.661  18.758 106.581  0.00  0.00    -0.572 OA
ATOM    109  C1  SGN d 304      85.593  22.914 104.292  0.00  0.00     0.150 C 
ATOM    110  C3  SGN d 304      84.093  23.354 102.292  0.00  0.00     0.083 C 
ATOM    111  C2  SGN d 304      85.484  22.902 102.749  0.00  0.00     0.081 C 
ATOM    112  S1  SGN d 304      88.115  23.575 102.204  0.00  0.00     0.156 S 
ATOM    113  O6S SGN d 304      80.034  19.417 104.987  0.00  0.00    -0.572 OA
ATOM    114  O1S SGN d 304      88.592  23.176 103.496  0.00  0.00    -0.296 OA
ATOM    115  O5  SGN d 304      84.528  22.109 104.830  0.00  0.00    -0.349 OA
ATOM    116  C4  SGN d 304      83.059  22.420 102.911  0.00  0.00     0.095 C 
ATOM    117  O4  SGN d 304      81.756  22.854 102.493  0.00  0.00    -0.348 OA
ATOM    118  H   SGN d 304      86.263  24.735 102.835  0.00  0.00     0.140 HD
ATOM    119  H   SGN d 304      88.040  22.814 100.382  0.00  0.00     0.231 HD
ATOM    120  H   SGN d 304      82.375  21.636 106.199  0.00  0.00     0.080 H 
ATOM    121  H   SGN d 304      81.205  21.911 104.955  0.00  0.00     0.080 H 
ATOM    122  H   SGN d 304      84.688  23.897 100.501  0.00  0.00     0.210 HD
ATOM    123  H   SGN d 304      82.992  23.535 104.726  0.00  0.00     0.090 H 
ATOM    124  H   SGN d 304      88.417  25.034 100.913  0.00  0.00     0.231 HD
ATOM    125  H   SGN d 304      86.533  22.508 104.605  0.00  0.00     0.131 H 
ATOM    126  H   SGN d 304      83.899  24.359 102.604  0.00  0.00     0.089 H 
ATOM    127  H   SGN d 304      85.691  21.913 102.399  0.00  0.00     0.076 H 
ATOM    128  H   SGN d 304      88.150  22.356 103.765  0.00  0.00     0.231 HD
ATOM    129  H   SGN d 304      83.208  21.406 102.603  0.00  0.00     0.091 H 
ATOM    130  O5S SGN d 302      80.966  20.468  92.094  0.00  0.00    -0.572 OA
ATOM    131  C4  SGN d 302      78.242  18.214  96.942  0.00  0.00     0.095 C 
ATOM    132  O1S SGN d 302      74.164  20.005 100.130  0.00  0.00    -0.296 OA
ATOM    133  O3  SGN d 302      76.505  17.764  98.527  0.00  0.00    -0.391 OA
ATOM    134  O2S SGN d 302      74.567  21.332  98.216  0.00  0.00    -0.296 OA
ATOM    135  C1  SGN d 302      78.354  20.961  97.851  0.00  0.00     0.150 C 
ATOM    136  C5  SGN d 302      79.441  19.112  96.670  0.00  0.00     0.091 C 
ATOM    137  O3S SGN d 302      74.972  22.224 100.348  0.00  0.00    -0.296 OA
ATOM    138  O5  SGN d 302      78.999  20.495  96.636  0.00  0.00    -0.349 OA
ATOM    139  C6  SGN d 302      80.085  18.713  95.350  0.00  0.00     0.067 C 
ATOM    140  S1  SGN d 302      74.998  21.026  99.546  0.00  0.00     0.156 S 
ATOM    141  O4S SGN d 302      82.402  20.750  93.950  0.00  0.00    -0.572 OA
ATOM    142  O6S SGN d 302      81.951  18.588  93.097  0.00  0.00    -0.572 OA
ATOM    143  O4  SGN d 302      78.688  16.892  97.012  0.00  0.00    -0.348 OA
ATOM    144  N   SGN d 302      76.655  20.420  99.437  0.00  0.00    -0.210 NA
ATOM    145  C3  SGN d 302      77.619  18.599  98.268  0.00  0.00     0.083 C 
ATOM    146  C2  SGN d 302      77.163  20.044  98.140  0.00  0.00     0.081 C 
ATOM    147  S2  SGN d 302      81.416  19.905  93.338  0.00  0.00     0.251 S 
ATOM    148  O6  SGN d 302      80.033  19.764  94.411  0.00  0.00    -0.254 OA
ATOM    149  O1  SGN d 302      79.217  20.888  98.985  0.00  0.00    -0.348 OA
ATOM    150  H   SGN d 302      77.517  18.321  96.163  0.00  0.00     0.091 H 
ATOM    151  H   SGN d 302      73.252  20.329 100.194  0.00  0.00     0.231 HD
ATOM    152  H   SGN d 302      76.802  16.844  98.608  0.00  0.00     0.210 HD
ATOM    153  H   SGN d 302      73.657  21.668  98.240  0.00  0.00     0.231 HD
ATOM    154  H   SGN d 302      78.069  21.981  97.697  0.00  0.00     0.131 H 
ATOM    155  H   SGN d 302      80.169  19.003  97.445  0.00  0.00     0.090 H 
ATOM    156  H   SGN d 302      74.062  22.555 100.406  0.00  0.00     0.231 HD
ATOM    157  H   SGN d 302      79.568  17.865  94.952  0.00  0.00     0.080 H 
ATOM    158  H   SGN d 302      81.112  18.478  95.535  0.00  0.00     0.080 H 
ATOM    159  H   SGN d 302      76.716  19.596 100.035  0.00  0.00     0.140 HD
ATOM    160  H   SGN d 302      78.317  18.490  99.072  0.00  0.00     0.089 H 
ATOM    161  H   SGN d 302      76.443  20.133  97.352  0.00  0.00     0.076 H 
ENDROOT
TORSDOF 50
ENDMDL
MODEL 55
REMARK VINA RESULT:      -9.8      2.006      2.391
REMARK  0 active torsions:
REMARK  status: ('A' for Active; 'I' for Inactive)
REMARK       I    between atoms: S_1  and  O2_2 
REMARK       I    between atoms: O2_2  and  C2_99 
REMARK       I    between atoms: C3_3  and  O3_50 
REMARK       I    between atoms: C2_5  and  O2_57 
REMARK       I    between atoms: O1S_6  and  S1_33 
REMARK       I    between atoms: O3_7  and  C3_52 
REMARK       I    between atoms: O6_9  and  C6_34 
REMARK       I    between atoms: O6_9  and  S2_17 
REMARK       I    between atoms: C2_13  and  N_73 
REMARK       I    between atoms: S_16  and  O2_57 
REMARK       I    between atoms: C1_20  and  O4_43 
REMARK       I    between atoms: C6_21  and  C5_67 
REMARK       I    between atoms: C6_21  and  O6_75 
REMARK       I    between atoms: N_22  and  C2_66 
REMARK       I    between atoms: N_22  and  S1_69 
REMARK       I    between atoms: S2_23  and  O6_75 
REMARK       I    between atoms: C1_24  and  O4_78 
REMARK       I    between atoms: C4_25  and  O4_78 
REMARK       I    between atoms: O3_26  and  C3_81 
REMARK       I    between atoms: O1S_27  and  S1_60 
REMARK       I    between atoms: O3S_28  and  S1_69 
REMARK       I    between atoms: O3_29  and  C3_87 
REMARK       I    between atoms: C6_30  and  C5_80 
REMARK       I    between atoms: O2S_32  and  S1_60 
REMARK       I    between atoms: S1_33  and  N_73 
REMARK       I    between atoms: S1_33  and  O2S_94 
REMARK       I    between atoms: S1_33  and  O3S_35 
REMARK       I    between atoms: C6_34  and  C5_38 
REMARK       I    between atoms: C2_36  and  O2_93 
REMARK       I    between atoms: O3_37  and  C3_65 
REMARK       I    between atoms: C1_40  and  O1_105 
REMARK       I    between atoms: O2S_41  and  S1_69 
REMARK       I    between atoms: C5_42  and  C6_54 
REMARK       I    between atoms: O4_43  and  C4_92 
REMARK       I    between atoms: O1_44  and  C1_62 
REMARK       I    between atoms: O1_44  and  C4_83 
REMARK       I    between atoms: C1_45  and  O4_102 
REMARK       I    between atoms: C4_46  and  O1_105 
REMARK       I    between atoms: O3S_47  and  S1_60 
REMARK       I    between atoms: C5_53  and  C6_61 
REMARK       I    between atoms: C6_54  and  O6_98 
REMARK       I    between atoms: O3_56  and  C3_84 
REMARK       I    between atoms: C5_59  and  C6_63 
REMARK       I    between atoms: S1_60  and  N_86 
REMARK       I    between atoms: S1_69  and  O1S_91 
REMARK       I    between atoms: O1_70  and  C1_96 
REMARK       I    between atoms: S_82  and  O2_93 
REMARK       I    between atoms: N_86  and  C2_90 
REMARK       I    between atoms: S2_95  and  O6_98 
REMARK       I    between atoms: C4_100  and  O4_102 
ROOT
ATOM      1  S   IDS d 303      78.096  21.281 104.620  0.00  0.00     0.252 S 
ATOM      2  O2  IDS d 303      78.678  20.284 103.300  0.00  0.00    -0.244 OA
ATOM      3  O61 IDS d 303      82.164  16.758 100.460  0.00  0.00    -0.646 OA
ATOM      4  O3  IDS d 303      80.545  21.167 100.403  0.00  0.00    -0.390 OA
ATOM      5  O3S IDS d 303      77.865  22.596 104.075  0.00  0.00    -0.572 OA
ATOM      6  C1  IDS d 303      81.074  20.269 103.359  0.00  0.00     0.161 C 
ATOM      7  C4  IDS d 303      79.896  18.893 100.929  0.00  0.00     0.103 C 
ATOM      8  O2S IDS d 303      76.892  20.693 105.137  0.00  0.00    -0.572 OA
ATOM      9  C3  IDS d 303      79.680  20.406 101.162  0.00  0.00     0.094 C 
ATOM     10  C5  IDS d 303      81.117  18.449 101.731  0.00  0.00     0.152 C 
ATOM     11  C6  IDS d 303      81.482  17.018 101.454  0.00  0.00     0.206 C 
ATOM     12  O62 IDS d 303      81.245  16.206 102.370  0.00  0.00    -0.646 OA
ATOM     13  O5  IDS d 303      81.289  18.896 103.062  0.00  0.00    -0.340 OA
ATOM     14  C2  IDS d 303      79.803  20.779 102.650  0.00  0.00     0.134 C 
ATOM     15  O1S IDS d 303      79.111  21.302 105.622  0.00  0.00    -0.572 OA
ATOM     16  H   IDS d 303      80.457  20.921  99.469  0.00  0.00     0.210 HD
ATOM     17  H   IDS d 303      80.961  20.316 104.422  0.00  0.00     0.133 H 
ATOM     18  H   IDS d 303      80.008  18.723  99.878  0.00  0.00     0.092 H 
ATOM     19  H   IDS d 303      78.680  20.623 100.848  0.00  0.00     0.091 H 
ATOM     20  H   IDS d 303      81.890  19.062 101.319  0.00  0.00     0.104 H 
ATOM     21  H   IDS d 303      79.877  21.846 102.694  0.00  0.00     0.097 H 
ATOM     22  C3  SGN d 306      87.751  29.103 105.941  0.00  0.00     0.083 C 
ATOM     23  O1S SGN d 306      86.980  29.076 109.542  0.00  0.00    -0.296 OA
ATOM     24  O4S SGN d 306      82.845  30.990 100.876  0.00  0.00    -0.572 OA
ATOM     25  O5S SGN d 306      83.072  28.659 101.201  0.00  0.00    -0.572 OA
ATOM     26  C2  SGN d 306      86.960  30.194 106.647  0.00  0.00     0.081 C 
ATOM     27  O5  SGN d 306      85.990  30.851 104.525  0.00  0.00    -0.350 OA
ATOM     28  C6  SGN d 306      85.926  29.413 102.571  0.00  0.00     0.067 C 
ATOM     29  S2  SGN d 306      83.769  29.903 101.038  0.00  0.00     0.251 S 
ATOM     30  S1  SGN d 306      87.351  30.454 109.341  0.00  0.00     0.156 S 
ATOM     31  O3S SGN d 306      88.449  30.805 110.207  0.00  0.00    -0.296 OA
ATOM     32  O4  SGN d 306      87.679  27.571 104.074  0.00  0.00    -0.348 OA
ATOM     33  O3  SGN d 306      87.994  28.052 106.857  0.00  0.00    -0.391 OA
ATOM     34  O6S SGN d 306      84.660  29.819  99.908  0.00  0.00    -0.572 OA
ATOM     35  C5  SGN d 306      86.718  29.811 103.804  0.00  0.00     0.091 C 
ATOM     36  O1  SGN d 306      87.838  32.068 105.398  0.00  0.00    -0.369 OA
ATOM     37  N   SGN d 306      87.835  30.698 107.669  0.00  0.00    -0.210 NA
ATOM     38  O6  SGN d 306      84.736  30.166 102.480  0.00  0.00    -0.254 OA
ATOM     39  C4  SGN d 306      86.934  28.605 104.744  0.00  0.00     0.095 C 
ATOM     40  O2S SGN d 306      86.235  31.315 109.579  0.00  0.00    -0.296 OA
ATOM     41  C1  SGN d 306      86.637  31.369 105.710  0.00  0.00     0.147 C 
ATOM     42  H   SGN d 306      88.689  29.477 105.588  0.00  0.00     0.089 H 
ATOM     43  H   SGN d 306      86.241  28.851 108.955  0.00  0.00     0.231 HD
ATOM     44  H   SGN d 306      86.037  29.795 107.011  0.00  0.00     0.076 H 
ATOM     45  H   SGN d 306      85.681  28.374 102.631  0.00  0.00     0.080 H 
ATOM     46  H   SGN d 306      86.521  29.605 101.703  0.00  0.00     0.080 H 
ATOM     47  H   SGN d 306      89.198  30.214 110.035  0.00  0.00     0.231 HD
ATOM     48  H   SGN d 306      87.149  27.705 107.183  0.00  0.00     0.210 HD
ATOM     49  H   SGN d 306      87.676  30.170 103.489  0.00  0.00     0.090 H 
ATOM     50  H   SGN d 306      88.240  32.399 106.217  0.00  0.00     0.212 HD
ATOM     51  H   SGN d 306      87.930  31.703 107.521  0.00  0.00     0.140 HD
ATOM     52  H   SGN d 306      85.991  28.203 105.047  0.00  0.00     0.091 H 
ATOM     53  H   SGN d 306      85.505  31.067 108.991  0.00  0.00     0.231 HD
ATOM     54  H   SGN d 306      85.971  32.062 106.180  0.00  0.00     0.131 H 
ATOM     55  C2  UAP d 301      77.548  11.539 101.920  0.00  0.00     0.132 C 
ATOM     56  S   UAP d 301      77.440   9.549 100.217  0.00  0.00     0.252 S 
ATOM     57  O1S UAP d 301      77.145   8.187 100.442  0.00  0.00    -0.572 OA
ATOM     58  C1  UAP d 301      76.682  12.782 101.909  0.00  0.00     0.161 C 
ATOM     59  O61 UAP d 301      75.758  12.081 106.629  0.00  0.00    -0.646 OA
ATOM     60  C5  UAP d 301      76.274  12.373 104.297  0.00  0.00     0.127 C 
ATOM     61  O3  UAP d 301      79.537  11.777 103.166  0.00  0.00    -0.393 OA
ATOM     62  O2  UAP d 301      76.780  10.443 101.557  0.00  0.00    -0.244 OA
ATOM     63  O5  UAP d 301      75.824  12.852 103.043  0.00  0.00    -0.343 OA
ATOM     64  C6  UAP d 301      75.390  12.538 105.528  0.00  0.00     0.203 C 
ATOM     65  O62 UAP d 301      74.297  13.116 105.347  0.00  0.00    -0.646 OA
ATOM     66  O3S UAP d 301      76.774  10.043  99.052  0.00  0.00    -0.572 OA
ATOM     67  O2S UAP d 301      78.868   9.742 100.154  0.00  0.00    -0.572 OA
ATOM     68  C3  UAP d 301      78.285  11.168 103.217  0.00  0.00     0.069 C 
ATOM     69  C4  UAP d 301      77.553  11.567 104.529  0.00  0.00    -0.005 C 
ATOM     70  H   UAP d 301      78.324  11.793 101.230  0.00  0.00     0.097 H 
ATOM     71  H   UAP d 301      76.025  12.790 101.063  0.00  0.00     0.133 H 
ATOM     72  H   UAP d 301      76.801  13.060 103.670  0.00  0.00     0.100 H 
ATOM     73  H   UAP d 301      79.986  11.524 102.345  0.00  0.00     0.210 HD
ATOM     74  H   UAP d 301      78.343  10.101 103.258  0.00  0.00     0.087 H 
ATOM     75  H   UAP d 301      77.298  10.672 105.059  0.00  0.00     0.041 H 
ATOM     76  H   UAP d 301      78.222  12.192 105.083  0.00  0.00     0.041 H 
ATOM     77  O5  IDS d 305      86.174  25.730 104.498  0.00  0.00    -0.340 OA
ATOM     78  O62 IDS d 305      84.706  24.412 106.447  0.00  0.00    -0.646 OA
ATOM     79  C1  IDS d 305      86.985  26.429 103.552  0.00  0.00     0.161 C 
ATOM     80  O3  IDS d 305      89.641  24.328 104.071  0.00  0.00    -0.390 OA
ATOM     81  C6  IDS d 305      85.910  24.077 106.373  0.00  0.00     0.206 C 
ATOM     82  C2  IDS d 305      88.006  25.507 102.834  0.00  0.00     0.134 C 
ATOM     83  C5  IDS d 305      86.695  24.615 105.177  0.00  0.00     0.152 C 
ATOM     84  C3  IDS d 305      88.438  24.155 103.435  0.00  0.00     0.094 C 
ATOM     85  S   IDS d 305      86.508  25.006 100.583  0.00  0.00     0.252 S 
ATOM     86  C4  IDS d 305      87.408  23.524 104.392  0.00  0.00     0.103 C 
ATOM     87  O3S IDS d 305      86.732  25.216  99.200  0.00  0.00    -0.572 OA
ATOM     88  O1S IDS d 305      85.419  25.802 101.024  0.00  0.00    -0.572 OA
ATOM     89  O2  IDS d 305      87.982  25.530 101.413  0.00  0.00    -0.244 OA
ATOM     90  O61 IDS d 305      86.406  23.168 107.059  0.00  0.00    -0.646 OA
ATOM     91  O2S IDS d 305      86.273  23.636 100.862  0.00  0.00    -0.572 OA
ATOM     92  H   IDS d 305      86.267  26.789 102.846  0.00  0.00     0.133 H 
ATOM     93  H   IDS d 305      90.278  24.726 103.457  0.00  0.00     0.210 HD
ATOM     94  H   IDS d 305      88.853  26.080 103.150  0.00  0.00     0.097 H 
ATOM     95  H   IDS d 305      87.513  25.159 105.602  0.00  0.00     0.104 H 
ATOM     96  H   IDS d 305      88.522  23.463 102.623  0.00  0.00     0.091 H 
ATOM     97  H   IDS d 305      87.932  22.865 105.052  0.00  0.00     0.092 H 
ATOM     98  O6  SGN d 304      83.153  19.832 106.039  0.00  0.00    -0.254 OA
ATOM     99  S2  SGN d 304      82.174  19.165 107.324  0.00  0.00     0.251 S 
ATOM    100  O5S SGN d 304      82.212  17.731 107.207  0.00  0.00    -0.572 OA
ATOM    101  N   SGN d 304      86.685  21.134 101.553  0.00  0.00    -0.210 NA
ATOM    102  O3S SGN d 304      88.300  19.147 101.087  0.00  0.00    -0.296 OA
ATOM    103  C6  SGN d 304      83.115  21.241 105.833  0.00  0.00     0.067 C 
ATOM    104  O3  SGN d 304      84.043  20.340 101.077  0.00  0.00    -0.391 OA
ATOM    105  C5  SGN d 304      83.970  21.530 104.624  0.00  0.00     0.091 C 
ATOM    106  O2S SGN d 304      88.936  21.267 100.343  0.00  0.00    -0.296 OA
ATOM    107  O1  SGN d 304      86.419  22.797 103.654  0.00  0.00    -0.348 OA
ATOM    108  O4S SGN d 304      82.714  19.576 108.584  0.00  0.00    -0.572 OA
ATOM    109  C1  SGN d 304      86.299  21.395 103.914  0.00  0.00     0.150 C 
ATOM    110  C3  SGN d 304      84.424  21.057 102.235  0.00  0.00     0.083 C 
ATOM    111  C2  SGN d 304      85.850  20.658 102.629  0.00  0.00     0.081 C 
ATOM    112  S1  SGN d 304      88.333  20.538 101.406  0.00  0.00     0.156 S 
ATOM    113  O6S SGN d 304      80.820  19.644 107.159  0.00  0.00    -0.572 OA
ATOM    114  O1S SGN d 304      89.058  20.739 102.628  0.00  0.00    -0.296 OA
ATOM    115  O5  SGN d 304      85.330  21.138 104.947  0.00  0.00    -0.349 OA
ATOM    116  C4  SGN d 304      83.496  20.724 103.397  0.00  0.00     0.095 C 
ATOM    117  O4  SGN d 304      82.163  21.113 103.031  0.00  0.00    -0.348 OA
ATOM    118  H   SGN d 304      86.744  22.147 101.650  0.00  0.00     0.140 HD
ATOM    119  H   SGN d 304      87.809  19.017 100.260  0.00  0.00     0.231 HD
ATOM    120  H   SGN d 304      83.507  21.749 106.690  0.00  0.00     0.080 H 
ATOM    121  H   SGN d 304      82.111  21.580 105.683  0.00  0.00     0.080 H 
ATOM    122  H   SGN d 304      84.642  20.563 100.347  0.00  0.00     0.210 HD
ATOM    123  H   SGN d 304      83.903  22.570 104.382  0.00  0.00     0.090 H 
ATOM    124  H   SGN d 304      88.435  21.120  99.526  0.00  0.00     0.231 HD
ATOM    125  H   SGN d 304      87.257  21.041 104.234  0.00  0.00     0.131 H 
ATOM    126  H   SGN d 304      84.369  22.104 102.022  0.00  0.00     0.089 H 
ATOM    127  H   SGN d 304      85.912  19.604 102.800  0.00  0.00     0.076 H 
ATOM    128  H   SGN d 304      88.635  20.236 103.342  0.00  0.00     0.231 HD
ATOM    129  H   SGN d 304      83.507  19.678 103.625  0.00  0.00     0.091 H 
ATOM    130  O5S SGN d 302      78.943  14.175  95.551  0.00  0.00    -0.572 OA
ATOM    131  C4  SGN d 302      77.220  15.026 101.234  0.00  0.00     0.095 C 
ATOM    132  O1S SGN d 302      74.070  18.781 103.681  0.00  0.00    -0.296 OA
ATOM    133  O3  SGN d 302      75.851  15.692 103.083  0.00  0.00    -0.391 OA
ATOM    134  O2S SGN d 302      74.124  18.933 101.323  0.00  0.00    -0.296 OA
ATOM    135  C1  SGN d 302      77.705  17.809 100.597  0.00  0.00     0.150 C 
ATOM    136  C5  SGN d 302      78.384  15.469 100.358  0.00  0.00     0.091 C 
ATOM    137  O3S SGN d 302      75.046  20.661 102.613  0.00  0.00    -0.296 OA
ATOM    138  O5  SGN d 302      78.034  16.715  99.700  0.00  0.00    -0.349 OA
ATOM    139  C6  SGN d 302      78.694  14.381  99.339  0.00  0.00     0.067 C 
ATOM    140  S1  SGN d 302      74.818  19.239 102.536  0.00  0.00     0.156 S 
ATOM    141  O4S SGN d 302      80.768  15.075  96.751  0.00  0.00    -0.572 OA
ATOM    142  O6S SGN d 302      80.003  12.878  97.195  0.00  0.00    -0.572 OA
ATOM    143  O4  SGN d 302      77.586  13.849 101.892  0.00  0.00    -0.348 OA
ATOM    144  N   SGN d 302      76.368  18.390 102.486  0.00  0.00    -0.210 NA
ATOM    145  C3  SGN d 302      76.932  16.101 102.263  0.00  0.00     0.083 C 
ATOM    146  C2  SGN d 302      76.551  17.357 101.496  0.00  0.00     0.081 C 
ATOM    147  S2  SGN d 302      79.619  14.216  96.818  0.00  0.00     0.251 S 
ATOM    148  O6  SGN d 302      78.502  14.842  98.020  0.00  0.00    -0.254 OA
ATOM    149  O1  SGN d 302      78.791  18.150 101.457  0.00  0.00    -0.348 OA
ATOM    150  H   SGN d 302      76.349  14.863 100.636  0.00  0.00     0.091 H 
ATOM    151  H   SGN d 302      73.218  19.242 103.716  0.00  0.00     0.231 HD
ATOM    152  H   SGN d 302      76.100  14.891 103.570  0.00  0.00     0.210 HD
ATOM    153  H   SGN d 302      73.266  19.384 101.318  0.00  0.00     0.231 HD
ATOM    154  H   SGN d 302      77.459  18.659  99.995  0.00  0.00     0.131 H 
ATOM    155  H   SGN d 302      79.257  15.628 100.954  0.00  0.00     0.090 H 
ATOM    156  H   SGN d 302      74.195  21.124 102.641  0.00  0.00     0.231 HD
ATOM    157  H   SGN d 302      78.048  13.546  99.513  0.00  0.00     0.080 H 
ATOM    158  H   SGN d 302      79.719  14.099  99.451  0.00  0.00     0.080 H 
ATOM    159  H   SGN d 302      76.507  17.960 103.401  0.00  0.00     0.140 HD
ATOM    160  H   SGN d 302      77.781  16.278 102.888  0.00  0.00     0.089 H 
ATOM    161  H   SGN d 302      75.682  17.173 100.898  0.00  0.00     0.076 H 
ENDROOT
TORSDOF 50
ENDMDL
MODEL 56
REMARK VINA RESULT:      -9.8      3.273      5.521
REMARK  0 active torsions:
REMARK  status: ('A' for Active; 'I' for Inactive)
REMARK       I    between atoms: S_1  and  O2_2 
REMARK       I    between atoms: O2_2  and  C2_99 
REMARK       I    between atoms: C3_3  and  O3_50 
REMARK       I    between atoms: C2_5  and  O2_57 
REMARK       I    between atoms: O1S_6  and  S1_33 
REMARK       I    between atoms: O3_7  and  C3_52 
REMARK       I    between atoms: O6_9  and  C6_34 
REMARK       I    between atoms: O6_9  and  S2_17 
REMARK       I    between atoms: C2_13  and  N_73 
REMARK       I    between atoms: S_16  and  O2_57 
REMARK       I    between atoms: C1_20  and  O4_43 
REMARK       I    between atoms: C6_21  and  C5_67 
REMARK       I    between atoms: C6_21  and  O6_75 
REMARK       I    between atoms: N_22  and  C2_66 
REMARK       I    between atoms: N_22  and  S1_69 
REMARK       I    between atoms: S2_23  and  O6_75 
REMARK       I    between atoms: C1_24  and  O4_78 
REMARK       I    between atoms: C4_25  and  O4_78 
REMARK       I    between atoms: O3_26  and  C3_81 
REMARK       I    between atoms: O1S_27  and  S1_60 
REMARK       I    between atoms: O3S_28  and  S1_69 
REMARK       I    between atoms: O3_29  and  C3_87 
REMARK       I    between atoms: C6_30  and  C5_80 
REMARK       I    between atoms: O2S_32  and  S1_60 
REMARK       I    between atoms: S1_33  and  N_73 
REMARK       I    between atoms: S1_33  and  O2S_94 
REMARK       I    between atoms: S1_33  and  O3S_35 
REMARK       I    between atoms: C6_34  and  C5_38 
REMARK       I    between atoms: C2_36  and  O2_93 
REMARK       I    between atoms: O3_37  and  C3_65 
REMARK       I    between atoms: C1_40  and  O1_105 
REMARK       I    between atoms: O2S_41  and  S1_69 
REMARK       I    between atoms: C5_42  and  C6_54 
REMARK       I    between atoms: O4_43  and  C4_92 
REMARK       I    between atoms: O1_44  and  C1_62 
REMARK       I    between atoms: O1_44  and  C4_83 
REMARK       I    between atoms: C1_45  and  O4_102 
REMARK       I    between atoms: C4_46  and  O1_105 
REMARK       I    between atoms: O3S_47  and  S1_60 
REMARK       I    between atoms: C5_53  and  C6_61 
REMARK       I    between atoms: C6_54  and  O6_98 
REMARK       I    between atoms: O3_56  and  C3_84 
REMARK       I    between atoms: C5_59  and  C6_63 
REMARK       I    between atoms: S1_60  and  N_86 
REMARK       I    between atoms: S1_69  and  O1S_91 
REMARK       I    between atoms: O1_70  and  C1_96 
REMARK       I    between atoms: S_82  and  O2_93 
REMARK       I    between atoms: N_86  and  C2_90 
REMARK       I    between atoms: S2_95  and  O6_98 
REMARK       I    between atoms: C4_100  and  O4_102 
ROOT
ATOM      1  S   IDS d 303      81.928  19.751 105.246  0.00  0.00     0.252 S 
ATOM      2  O2  IDS d 303      81.963  19.801 103.494  0.00  0.00    -0.244 OA
ATOM      3  O61 IDS d 303      84.195  20.182  98.248  0.00  0.00    -0.646 OA
ATOM      4  O3  IDS d 303      81.462  22.527 101.263  0.00  0.00    -0.390 OA
ATOM      5  O3S IDS d 303      81.008  20.776 105.672  0.00  0.00    -0.572 OA
ATOM      6  C1  IDS d 303      83.818  21.158 102.811  0.00  0.00     0.161 C 
ATOM      7  C4  IDS d 303      82.025  20.288 100.528  0.00  0.00     0.103 C 
ATOM      8  O2S IDS d 303      81.501  18.441 105.654  0.00  0.00    -0.572 OA
ATOM      9  C3  IDS d 303      81.486  21.203 101.651  0.00  0.00     0.094 C 
ATOM     10  C5  IDS d 303      83.548  20.392 100.507  0.00  0.00     0.152 C 
ATOM     11  C6  IDS d 303      84.148  19.639  99.354  0.00  0.00     0.206 C 
ATOM     12  O62 IDS d 303      84.753  18.589  99.642  0.00  0.00    -0.646 OA
ATOM     13  O5  IDS d 303      84.274  20.367 101.722  0.00  0.00    -0.340 OA
ATOM     14  C2  IDS d 303      82.287  21.042 102.955  0.00  0.00     0.134 C 
ATOM     15  O1S IDS d 303      83.252  20.011 105.711  0.00  0.00    -0.572 OA
ATOM     16  H   IDS d 303      80.954  22.614 100.441  0.00  0.00     0.210 HD
ATOM     17  H   IDS d 303      84.312  20.763 103.674  0.00  0.00     0.133 H 
ATOM     18  H   IDS d 303      81.578  20.587  99.602  0.00  0.00     0.092 H 
ATOM     19  H   IDS d 303      80.479  20.892 101.841  0.00  0.00     0.091 H 
ATOM     20  H   IDS d 303      83.698  21.435 100.322  0.00  0.00     0.104 H 
ATOM     21  H   IDS d 303      82.011  21.859 103.589  0.00  0.00     0.097 H 
ATOM     22  C3  SGN d 306      87.371  30.678 107.913  0.00  0.00     0.083 C 
ATOM     23  O1S SGN d 306      88.812  28.979 110.846  0.00  0.00    -0.296 OA
ATOM     24  O4S SGN d 306      80.186  30.966 106.663  0.00  0.00    -0.572 OA
ATOM     25  O5S SGN d 306      81.320  29.261 105.480  0.00  0.00    -0.572 OA
ATOM     26  C2  SGN d 306      86.802  30.786 109.319  0.00  0.00     0.081 C 
ATOM     27  O5  SGN d 306      84.659  31.436 108.392  0.00  0.00    -0.350 OA
ATOM     28  C6  SGN d 306      83.997  31.003 106.098  0.00  0.00     0.067 C 
ATOM     29  S2  SGN d 306      81.340  30.642 105.874  0.00  0.00     0.251 S 
ATOM     30  S1  SGN d 306      88.521  30.283 111.387  0.00  0.00     0.156 S 
ATOM     31  O3S SGN d 306      89.720  30.882 111.916  0.00  0.00    -0.296 OA
ATOM     32  O4  SGN d 306      86.784  30.141 105.631  0.00  0.00    -0.348 OA
ATOM     33  O3  SGN d 306      88.420  29.727 107.918  0.00  0.00    -0.391 OA
ATOM     34  O6S SGN d 306      81.411  31.482 104.705  0.00  0.00    -0.572 OA
ATOM     35  C5  SGN d 306      85.155  31.334 107.023  0.00  0.00     0.091 C 
ATOM     36  O1  SGN d 306      86.142  33.107 109.207  0.00  0.00    -0.369 OA
ATOM     37  N   SGN d 306      87.869  31.316 110.122  0.00  0.00    -0.210 NA
ATOM     38  O6  SGN d 306      82.793  30.902 106.825  0.00  0.00    -0.254 OA
ATOM     39  C4  SGN d 306      86.249  30.246 106.963  0.00  0.00     0.095 C 
ATOM     40  O2S SGN d 306      87.519  30.191 112.404  0.00  0.00    -0.296 OA
ATOM     41  C1  SGN d 306      85.640  31.788 109.395  0.00  0.00     0.147 C 
ATOM     42  H   SGN d 306      87.760  31.618 107.584  0.00  0.00     0.089 H 
ATOM     43  H   SGN d 306      87.999  28.585 110.493  0.00  0.00     0.231 HD
ATOM     44  H   SGN d 306      86.440  29.831 109.638  0.00  0.00     0.076 H 
ATOM     45  H   SGN d 306      84.193  30.072 105.611  0.00  0.00     0.080 H 
ATOM     46  H   SGN d 306      83.899  31.787 105.376  0.00  0.00     0.080 H 
ATOM     47  H   SGN d 306      90.390  30.937 111.217  0.00  0.00     0.231 HD
ATOM     48  H   SGN d 306      88.078  28.869 108.214  0.00  0.00     0.210 HD
ATOM     49  H   SGN d 306      85.585  32.262 106.708  0.00  0.00     0.090 H 
ATOM     50  H   SGN d 306      86.795  33.306 109.898  0.00  0.00     0.212 HD
ATOM     51  H   SGN d 306      87.523  32.165 110.569  0.00  0.00     0.140 HD
ATOM     52  H   SGN d 306      85.837  29.298 107.240  0.00  0.00     0.091 H 
ATOM     53  H   SGN d 306      86.719  29.787 112.034  0.00  0.00     0.231 HD
ATOM     54  H   SGN d 306      85.167  31.755 110.354  0.00  0.00     0.131 H 
ATOM     55  C2  UAP d 301      83.258  13.148  97.688  0.00  0.00     0.132 C 
ATOM     56  S   UAP d 301      82.889  12.195  95.273  0.00  0.00     0.252 S 
ATOM     57  O1S UAP d 301      83.247  10.940  94.737  0.00  0.00    -0.572 OA
ATOM     58  C1  UAP d 301      82.180  13.569  98.664  0.00  0.00     0.161 C 
ATOM     59  O61 UAP d 301      84.356  10.901 102.094  0.00  0.00    -0.646 OA
ATOM     60  C5  UAP d 301      83.345  12.214 100.350  0.00  0.00     0.127 C 
ATOM     61  O3  UAP d 301      85.384  14.050  98.170  0.00  0.00    -0.393 OA
ATOM     62  O2  UAP d 301      82.839  12.016  97.004  0.00  0.00    -0.244 OA
ATOM     63  O5  UAP d 301      82.141  12.737  99.818  0.00  0.00    -0.343 OA
ATOM     64  C6  UAP d 301      83.308  11.403 101.641  0.00  0.00     0.203 C 
ATOM     65  O62 UAP d 301      82.185  11.259 102.170  0.00  0.00    -0.646 OA
ATOM     66  O3S UAP d 301      81.566  12.573  94.882  0.00  0.00    -0.572 OA
ATOM     67  O2S UAP d 301      83.871  13.187  94.911  0.00  0.00    -0.572 OA
ATOM     68  C3  UAP d 301      84.667  12.856  98.229  0.00  0.00     0.069 C 
ATOM     69  C4  UAP d 301      84.714  12.279  99.671  0.00  0.00    -0.005 C 
ATOM     70  H   UAP d 301      83.376  14.021  97.083  0.00  0.00     0.097 H 
ATOM     71  H   UAP d 301      81.206  13.484  98.228  0.00  0.00     0.133 H 
ATOM     72  H   UAP d 301      83.163  13.242 100.120  0.00  0.00     0.100 H 
ATOM     73  H   UAP d 301      85.350  14.403  97.268  0.00  0.00     0.210 HD
ATOM     74  H   UAP d 301      85.091  12.086  97.619  0.00  0.00     0.087 H 
ATOM     75  H   UAP d 301      85.116  11.287  99.625  0.00  0.00     0.041 H 
ATOM     76  H   UAP d 301      85.322  12.938 100.254  0.00  0.00     0.041 H 
ATOM     77  O5  IDS d 305      86.496  27.762 105.329  0.00  0.00    -0.340 OA
ATOM     78  O62 IDS d 305      86.915  25.270 106.470  0.00  0.00    -0.646 OA
ATOM     79  C1  IDS d 305      86.348  29.073 104.779  0.00  0.00     0.161 C 
ATOM     80  O3  IDS d 305      89.354  28.878 103.148  0.00  0.00    -0.390 OA
ATOM     81  C6  IDS d 305      87.898  25.744 105.857  0.00  0.00     0.206 C 
ATOM     82  C2  IDS d 305      87.028  29.227 103.393  0.00  0.00     0.134 C 
ATOM     83  C5  IDS d 305      87.644  27.007 105.033  0.00  0.00     0.152 C 
ATOM     84  C3  IDS d 305      88.144  28.272 102.928  0.00  0.00     0.094 C 
ATOM     85  S   IDS d 305      84.800  28.759 101.851  0.00  0.00     0.252 S 
ATOM     86  C4  IDS d 305      88.110  26.881 103.590  0.00  0.00     0.103 C 
ATOM     87  O3S IDS d 305      84.125  29.517 100.862  0.00  0.00    -0.572 OA
ATOM     88  O1S IDS d 305      83.955  28.566 102.975  0.00  0.00    -0.572 OA
ATOM     89  O2  IDS d 305      86.207  29.717 102.341  0.00  0.00    -0.244 OA
ATOM     90  O61 IDS d 305      88.963  25.123 105.696  0.00  0.00    -0.646 OA
ATOM     91  O2S IDS d 305      85.236  27.514 101.333  0.00  0.00    -0.572 OA
ATOM     92  H   IDS d 305      85.287  29.165 104.672  0.00  0.00     0.133 H 
ATOM     93  H   IDS d 305      89.361  29.752 102.726  0.00  0.00     0.210 HD
ATOM     94  H   IDS d 305      87.656  30.034 103.712  0.00  0.00     0.097 H 
ATOM     95  H   IDS d 305      88.320  27.737 105.426  0.00  0.00     0.104 H 
ATOM     96  H   IDS d 305      87.984  28.086 101.886  0.00  0.00     0.091 H 
ATOM     97  H   IDS d 305      89.097  26.470 103.547  0.00  0.00     0.092 H 
ATOM     98  O6  SGN d 304      87.041  21.120 103.955  0.00  0.00    -0.254 OA
ATOM     99  S2  SGN d 304      87.241  19.620 104.829  0.00  0.00     0.251 S 
ATOM    100  O5S SGN d 304      87.684  18.622 103.893  0.00  0.00    -0.572 OA
ATOM    101  N   SGN d 304      86.772  25.664 100.270  0.00  0.00    -0.210 NA
ATOM    102  O3S SGN d 304      88.399  25.289  98.275  0.00  0.00    -0.296 OA
ATOM    103  C6  SGN d 304      86.425  22.212 104.633  0.00  0.00     0.067 C 
ATOM    104  O3  SGN d 304      84.767  23.710 100.240  0.00  0.00    -0.391 OA
ATOM    105  C5  SGN d 304      86.300  23.334 103.633  0.00  0.00     0.091 C 
ATOM    106  O2S SGN d 304      87.756  27.480  98.760  0.00  0.00    -0.296 OA
ATOM    107  O1  SGN d 304      87.190  26.022 102.906  0.00  0.00    -0.348 OA
ATOM    108  O4S SGN d 304      88.218  19.806 105.858  0.00  0.00    -0.572 OA
ATOM    109  C1  SGN d 304      87.713  24.826 102.320  0.00  0.00     0.150 C 
ATOM    110  C3  SGN d 304      85.465  24.065 101.419  0.00  0.00     0.083 C 
ATOM    111  C2  SGN d 304      86.900  24.461 101.055  0.00  0.00     0.081 C 
ATOM    112  S1  SGN d 304      88.138  26.228  99.317  0.00  0.00     0.156 S 
ATOM    113  O6S SGN d 304      85.962  19.248 105.390  0.00  0.00    -0.572 OA
ATOM    114  O1S SGN d 304      89.305  26.378 100.140  0.00  0.00    -0.296 OA
ATOM    115  O5  SGN d 304      87.643  23.722 103.240  0.00  0.00    -0.349 OA
ATOM    116  C4  SGN d 304      85.523  22.883 102.379  0.00  0.00     0.095 C 
ATOM    117  O4  SGN d 304      84.178  22.524 102.729  0.00  0.00    -0.348 OA
ATOM    118  H   SGN d 304      86.531  26.415 100.917  0.00  0.00     0.140 HD
ATOM    119  H   SGN d 304      87.607  25.191  97.722  0.00  0.00     0.231 HD
ATOM    120  H   SGN d 304      87.032  22.522 105.459  0.00  0.00     0.080 H 
ATOM    121  H   SGN d 304      85.467  21.933 105.019  0.00  0.00     0.080 H 
ATOM    122  H   SGN d 304      84.739  24.471  99.640  0.00  0.00     0.210 HD
ATOM    123  H   SGN d 304      85.766  24.148 104.078  0.00  0.00     0.090 H 
ATOM    124  H   SGN d 304      86.968  27.361  98.208  0.00  0.00     0.231 HD
ATOM    125  H   SGN d 304      88.737  25.009 102.068  0.00  0.00     0.131 H 
ATOM    126  H   SGN d 304      84.954  24.881 101.885  0.00  0.00     0.089 H 
ATOM    127  H   SGN d 304      87.395  23.658 100.550  0.00  0.00     0.076 H 
ATOM    128  H   SGN d 304      89.551  25.517 100.512  0.00  0.00     0.231 HD
ATOM    129  H   SGN d 304      86.010  22.038 101.938  0.00  0.00     0.091 H 
ATOM    130  O5S SGN d 302      79.869  18.085  94.001  0.00  0.00    -0.572 OA
ATOM    131  C4  SGN d 302      81.460  15.773  99.304  0.00  0.00     0.095 C 
ATOM    132  O1S SGN d 302      79.186  15.890 104.286  0.00  0.00    -0.296 OA
ATOM    133  O3  SGN d 302      81.234  14.841 101.498  0.00  0.00    -0.391 OA
ATOM    134  O2S SGN d 302      77.857  16.841 102.579  0.00  0.00    -0.296 OA
ATOM    135  C1  SGN d 302      80.540  18.331 100.301  0.00  0.00     0.150 C 
ATOM    136  C5  SGN d 302      81.703  17.074  98.552  0.00  0.00     0.091 C 
ATOM    137  O3S SGN d 302      78.700  18.212 104.285  0.00  0.00    -0.296 OA
ATOM    138  O5  SGN d 302      80.653  18.020  98.887  0.00  0.00    -0.349 OA
ATOM    139  C6  SGN d 302      81.731  16.798  97.055  0.00  0.00     0.067 C 
ATOM    140  S1  SGN d 302      78.959  17.054 103.466  0.00  0.00     0.156 S 
ATOM    141  O4S SGN d 302      81.624  19.397  94.885  0.00  0.00    -0.572 OA
ATOM    142  O6S SGN d 302      82.026  17.177  94.167  0.00  0.00    -0.572 OA
ATOM    143  O4  SGN d 302      82.499  14.888  99.003  0.00  0.00    -0.348 OA
ATOM    144  N   SGN d 302      80.390  17.341 102.467  0.00  0.00    -0.210 NA
ATOM    145  C3  SGN d 302      81.458  16.049 100.794  0.00  0.00     0.083 C 
ATOM    146  C2  SGN d 302      80.320  17.021 101.062  0.00  0.00     0.081 C 
ATOM    147  S2  SGN d 302      81.077  18.074  94.779  0.00  0.00     0.251 S 
ATOM    148  O6  SGN d 302      80.693  17.478  96.386  0.00  0.00    -0.254 OA
ATOM    149  O1  SGN d 302      81.731  18.918 100.824  0.00  0.00    -0.348 OA
ATOM    150  H   SGN d 302      80.519  15.352  99.018  0.00  0.00     0.091 H 
ATOM    151  H   SGN d 302      78.405  15.726 104.837  0.00  0.00     0.231 HD
ATOM    152  H   SGN d 302      81.963  14.225 101.324  0.00  0.00     0.210 HD
ATOM    153  H   SGN d 302      77.052  16.679 103.096  0.00  0.00     0.231 HD
ATOM    154  H   SGN d 302      79.733  19.024 100.417  0.00  0.00     0.131 H 
ATOM    155  H   SGN d 302      82.646  17.494  98.833  0.00  0.00     0.090 H 
ATOM    156  H   SGN d 302      77.915  18.053 104.831  0.00  0.00     0.231 HD
ATOM    157  H   SGN d 302      81.619  15.746  96.893  0.00  0.00     0.080 H 
ATOM    158  H   SGN d 302      82.666  17.144  96.667  0.00  0.00     0.080 H 
ATOM    159  H   SGN d 302      81.151  16.790 102.865  0.00  0.00     0.140 HD
ATOM    160  H   SGN d 302      82.393  16.458 101.114  0.00  0.00     0.089 H 
ATOM    161  H   SGN d 302      79.388  16.586 100.764  0.00  0.00     0.076 H 
ENDROOT
TORSDOF 50
ENDMDL
MODEL 57
REMARK VINA RESULT:      -9.8      4.670      8.834
REMARK  0 active torsions:
REMARK  status: ('A' for Active; 'I' for Inactive)
REMARK       I    between atoms: S_1  and  O2_2 
REMARK       I    between atoms: O2_2  and  C2_99 
REMARK       I    between atoms: C3_3  and  O3_50 
REMARK       I    between atoms: C2_5  and  O2_57 
REMARK       I    between atoms: O1S_6  and  S1_33 
REMARK       I    between atoms: O3_7  and  C3_52 
REMARK       I    between atoms: O6_9  and  C6_34 
REMARK       I    between atoms: O6_9  and  S2_17 
REMARK       I    between atoms: C2_13  and  N_73 
REMARK       I    between atoms: S_16  and  O2_57 
REMARK       I    between atoms: C1_20  and  O4_43 
REMARK       I    between atoms: C6_21  and  C5_67 
REMARK       I    between atoms: C6_21  and  O6_75 
REMARK       I    between atoms: N_22  and  C2_66 
REMARK       I    between atoms: N_22  and  S1_69 
REMARK       I    between atoms: S2_23  and  O6_75 
REMARK       I    between atoms: C1_24  and  O4_78 
REMARK       I    between atoms: C4_25  and  O4_78 
REMARK       I    between atoms: O3_26  and  C3_81 
REMARK       I    between atoms: O1S_27  and  S1_60 
REMARK       I    between atoms: O3S_28  and  S1_69 
REMARK       I    between atoms: O3_29  and  C3_87 
REMARK       I    between atoms: C6_30  and  C5_80 
REMARK       I    between atoms: O2S_32  and  S1_60 
REMARK       I    between atoms: S1_33  and  N_73 
REMARK       I    between atoms: S1_33  and  O2S_94 
REMARK       I    between atoms: S1_33  and  O3S_35 
REMARK       I    between atoms: C6_34  and  C5_38 
REMARK       I    between atoms: C2_36  and  O2_93 
REMARK       I    between atoms: O3_37  and  C3_65 
REMARK       I    between atoms: C1_40  and  O1_105 
REMARK       I    between atoms: O2S_41  and  S1_69 
REMARK       I    between atoms: C5_42  and  C6_54 
REMARK       I    between atoms: O4_43  and  C4_92 
REMARK       I    between atoms: O1_44  and  C1_62 
REMARK       I    between atoms: O1_44  and  C4_83 
REMARK       I    between atoms: C1_45  and  O4_102 
REMARK       I    between atoms: C4_46  and  O1_105 
REMARK       I    between atoms: O3S_47  and  S1_60 
REMARK       I    between atoms: C5_53  and  C6_61 
REMARK       I    between atoms: C6_54  and  O6_98 
REMARK       I    between atoms: O3_56  and  C3_84 
REMARK       I    between atoms: C5_59  and  C6_63 
REMARK       I    between atoms: S1_60  and  N_86 
REMARK       I    between atoms: S1_69  and  O1S_91 
REMARK       I    between atoms: O1_70  and  C1_96 
REMARK       I    between atoms: S_82  and  O2_93 
REMARK       I    between atoms: N_86  and  C2_90 
REMARK       I    between atoms: S2_95  and  O6_98 
REMARK       I    between atoms: C4_100  and  O4_102 
ROOT
ATOM      1  S   IDS d 303      85.323  19.620 103.806  0.00  0.00     0.252 S 
ATOM      2  O2  IDS d 303      84.206  20.288 102.632  0.00  0.00    -0.244 OA
ATOM      3  O61 IDS d 303      82.336  23.671  98.424  0.00  0.00    -0.646 OA
ATOM      4  O3  IDS d 303      81.722  22.809 103.000  0.00  0.00    -0.390 OA
ATOM      5  O3S IDS d 303      84.677  19.711 105.092  0.00  0.00    -0.572 OA
ATOM      6  C1  IDS d 303      84.765  22.593 102.278  0.00  0.00     0.161 C 
ATOM      7  C4  IDS d 303      82.214  21.720 100.893  0.00  0.00     0.103 C 
ATOM      8  O2S IDS d 303      85.606  18.260 103.440  0.00  0.00    -0.572 OA
ATOM      9  C3  IDS d 303      82.321  21.702 102.435  0.00  0.00     0.094 C 
ATOM     10  C5  IDS d 303      83.274  22.672 100.345  0.00  0.00     0.152 C 
ATOM     11  C6  IDS d 303      83.152  22.855  98.858  0.00  0.00     0.206 C 
ATOM     12  O62 IDS d 303      84.037  22.317  98.167  0.00  0.00    -0.646 OA
ATOM     13  O5  IDS d 303      84.588  22.643 100.870  0.00  0.00    -0.340 OA
ATOM     14  C2  IDS d 303      83.781  21.584 102.907  0.00  0.00     0.134 C 
ATOM     15  O1S IDS d 303      86.513  20.406 103.762  0.00  0.00    -0.572 OA
ATOM     16  H   IDS d 303      80.804  22.872 102.695  0.00  0.00     0.210 HD
ATOM     17  H   IDS d 303      85.777  22.279 102.427  0.00  0.00     0.133 H 
ATOM     18  H   IDS d 303      81.219  22.010 100.624  0.00  0.00     0.092 H 
ATOM     19  H   IDS d 303      81.795  20.832 102.767  0.00  0.00     0.091 H 
ATOM     20  H   IDS d 303      83.003  23.598 100.805  0.00  0.00     0.104 H 
ATOM     21  H   IDS d 303      83.786  21.814 103.952  0.00  0.00     0.097 H 
ATOM     22  C3  SGN d 306      88.239  29.925 110.244  0.00  0.00     0.083 C 
ATOM     23  O1S SGN d 306      91.597  28.459 110.619  0.00  0.00    -0.296 OA
ATOM     24  O4S SGN d 306      82.174  26.483 112.397  0.00  0.00    -0.572 OA
ATOM     25  O5S SGN d 306      82.656  26.272 110.092  0.00  0.00    -0.572 OA
ATOM     26  C2  SGN d 306      88.709  29.191 111.490  0.00  0.00     0.081 C 
ATOM     27  O5  SGN d 306      86.401  28.778 112.105  0.00  0.00    -0.350 OA
ATOM     28  C6  SGN d 306      84.552  28.878 110.538  0.00  0.00     0.067 C 
ATOM     29  S2  SGN d 306      82.579  27.174 111.206  0.00  0.00     0.251 S 
ATOM     30  S1  SGN d 306      91.410  29.075 111.909  0.00  0.00     0.156 S 
ATOM     31  O3S SGN d 306      92.467  30.019 112.168  0.00  0.00    -0.296 OA
ATOM     32  O4  SGN d 306      86.478  29.986 108.591  0.00  0.00    -0.348 OA
ATOM     33  O3  SGN d 306      89.237  29.813 109.246  0.00  0.00    -0.391 OA
ATOM     34  O6S SGN d 306      81.666  28.247 110.903  0.00  0.00    -0.572 OA
ATOM     35  C5  SGN d 306      85.902  29.462 110.916  0.00  0.00     0.091 C 
ATOM     36  O1  SGN d 306      87.580  30.582 113.111  0.00  0.00    -0.369 OA
ATOM     37  N   SGN d 306      89.865  29.914 111.945  0.00  0.00    -0.210 NA
ATOM     38  O6  SGN d 306      84.177  27.863 111.443  0.00  0.00    -0.254 OA
ATOM     39  C4  SGN d 306      86.925  29.295 109.772  0.00  0.00     0.095 C 
ATOM     40  O2S SGN d 306      91.366  28.082 112.938  0.00  0.00    -0.296 OA
ATOM     41  C1  SGN d 306      87.668  29.249 112.619  0.00  0.00     0.147 C 
ATOM     42  H   SGN d 306      88.073  30.962 110.449  0.00  0.00     0.089 H 
ATOM     43  H   SGN d 306      90.881  27.826 110.456  0.00  0.00     0.231 HD
ATOM     44  H   SGN d 306      88.892  28.163 111.258  0.00  0.00     0.076 H 
ATOM     45  H   SGN d 306      84.611  28.466 109.553  0.00  0.00     0.080 H 
ATOM     46  H   SGN d 306      83.819  29.657 110.570  0.00  0.00     0.080 H 
ATOM     47  H   SGN d 306      92.485  30.686 111.464  0.00  0.00     0.231 HD
ATOM     48  H   SGN d 306      89.396  28.876 109.051  0.00  0.00     0.210 HD
ATOM     49  H   SGN d 306      85.776  30.507 111.107  0.00  0.00     0.090 H 
ATOM     50  H   SGN d 306      88.446  30.861 113.446  0.00  0.00     0.212 HD
ATOM     51  H   SGN d 306      89.690  30.193 112.910  0.00  0.00     0.140 HD
ATOM     52  H   SGN d 306      87.043  28.259 109.535  0.00  0.00     0.091 H 
ATOM     53  H   SGN d 306      90.651  27.454 112.750  0.00  0.00     0.231 HD
ATOM     54  H   SGN d 306      87.954  28.620 113.436  0.00  0.00     0.131 H 
ATOM     55  C2  UAP d 301      83.059  18.096  94.057  0.00  0.00     0.132 C 
ATOM     56  S   UAP d 301      81.472  18.018  91.971  0.00  0.00     0.252 S 
ATOM     57  O1S UAP d 301      81.698  17.474  90.688  0.00  0.00    -0.572 OA
ATOM     58  C1  UAP d 301      82.804  17.456  95.406  0.00  0.00     0.161 C 
ATOM     59  O61 UAP d 301      87.257  15.513  95.230  0.00  0.00    -0.646 OA
ATOM     60  C5  UAP d 301      85.072  16.523  95.255  0.00  0.00     0.127 C 
ATOM     61  O3  UAP d 301      84.679  19.810  94.108  0.00  0.00    -0.393 OA
ATOM     62  O2  UAP d 301      82.598  17.254  93.056  0.00  0.00    -0.244 OA
ATOM     63  O5  UAP d 301      83.729  16.412  95.690  0.00  0.00    -0.343 OA
ATOM     64  C6  UAP d 301      86.081  15.449  95.645  0.00  0.00     0.203 C 
ATOM     65  O62 UAP d 301      85.648  14.517  96.357  0.00  0.00    -0.646 OA
ATOM     66  O3S UAP d 301      80.170  17.683  92.459  0.00  0.00    -0.572 OA
ATOM     67  O2S UAP d 301      81.699  19.443  91.952  0.00  0.00    -0.572 OA
ATOM     68  C3  UAP d 301      84.497  18.493  93.691  0.00  0.00     0.069 C 
ATOM     69  C4  UAP d 301      85.606  17.587  94.295  0.00  0.00    -0.005 C 
ATOM     70  H   UAP d 301      82.534  19.025  94.140  0.00  0.00     0.097 H 
ATOM     71  H   UAP d 301      81.841  16.990  95.440  0.00  0.00     0.133 H 
ATOM     72  H   UAP d 301      84.535  17.265  95.806  0.00  0.00     0.100 H 
ATOM     73  H   UAP d 301      83.983  20.368  93.727  0.00  0.00     0.210 HD
ATOM     74  H   UAP d 301      84.603  18.374  92.632  0.00  0.00     0.087 H 
ATOM     75  H   UAP d 301      86.115  17.094  93.492  0.00  0.00     0.041 H 
ATOM     76  H   UAP d 301      86.256  18.222  94.861  0.00  0.00     0.041 H 
ATOM     77  O5  IDS d 305      86.670  28.157 107.026  0.00  0.00    -0.340 OA
ATOM     78  O62 IDS d 305      88.332  26.142 106.095  0.00  0.00    -0.646 OA
ATOM     79  C1  IDS d 305      85.880  29.240 107.522  0.00  0.00     0.161 C 
ATOM     80  O3  IDS d 305      87.047  31.375 105.111  0.00  0.00    -0.390 OA
ATOM     81  C6  IDS d 305      88.528  27.269 105.585  0.00  0.00     0.206 C 
ATOM     82  C2  IDS d 305      85.438  30.225 106.407  0.00  0.00     0.134 C 
ATOM     83  C5  IDS d 305      87.497  28.351 105.906  0.00  0.00     0.152 C 
ATOM     84  C3  IDS d 305      86.183  30.311 105.061  0.00  0.00     0.094 C 
ATOM     85  S   IDS d 305      82.952  29.145 105.946  0.00  0.00     0.252 S 
ATOM     86  C4  IDS d 305      86.934  29.026 104.664  0.00  0.00     0.103 C 
ATOM     87  O3S IDS d 305      81.637  29.670 106.008  0.00  0.00    -0.572 OA
ATOM     88  O1S IDS d 305      83.116  28.129 106.923  0.00  0.00    -0.572 OA
ATOM     89  O2  IDS d 305      84.044  30.488 106.318  0.00  0.00    -0.244 OA
ATOM     90  O61 IDS d 305      89.348  27.469 104.673  0.00  0.00    -0.646 OA
ATOM     91  O2S IDS d 305      83.244  28.647 104.651  0.00  0.00    -0.572 OA
ATOM     92  H   IDS d 305      85.022  28.741 107.922  0.00  0.00     0.133 H 
ATOM     93  H   IDS d 305      86.560  32.176 105.362  0.00  0.00     0.210 HD
ATOM     94  H   IDS d 305      85.895  31.072 106.877  0.00  0.00     0.097 H 
ATOM     95  H   IDS d 305      88.056  29.144 106.360  0.00  0.00     0.104 H 
ATOM     96  H   IDS d 305      85.442  30.445 104.301  0.00  0.00     0.091 H 
ATOM     97  H   IDS d 305      87.721  29.297 103.993  0.00  0.00     0.092 H 
ATOM     98  O6  SGN d 304      87.838  24.001 101.766  0.00  0.00    -0.254 OA
ATOM     99  S2  SGN d 304      88.922  22.694 101.354  0.00  0.00     0.251 S 
ATOM    100  O5S SGN d 304      88.888  22.530  99.924  0.00  0.00    -0.572 OA
ATOM    101  N   SGN d 304      84.130  28.515 102.180  0.00  0.00    -0.210 NA
ATOM    102  O3S SGN d 304      84.111  29.858  99.951  0.00  0.00    -0.296 OA
ATOM    103  C6  SGN d 304      87.559  24.228 103.145  0.00  0.00     0.067 C 
ATOM    104  O3  SGN d 304      83.153  25.929 101.737  0.00  0.00    -0.391 OA
ATOM    105  C5  SGN d 304      86.542  25.340 103.209  0.00  0.00     0.091 C 
ATOM    106  O2S SGN d 304      83.411  30.954 101.890  0.00  0.00    -0.296 OA
ATOM    107  O1  SGN d 304      86.042  28.101 104.029  0.00  0.00    -0.348 OA
ATOM    108  O4S SGN d 304      90.245  23.031 101.784  0.00  0.00    -0.572 OA
ATOM    109  C1  SGN d 304      86.341  27.713 102.685  0.00  0.00     0.150 C 
ATOM    110  C3  SGN d 304      84.327  26.180 102.484  0.00  0.00     0.083 C 
ATOM    111  C2  SGN d 304      85.030  27.419 101.918  0.00  0.00     0.081 C 
ATOM    112  S1  SGN d 304      84.360  30.045 101.344  0.00  0.00     0.156 S 
ATOM    113  O6S SGN d 304      88.454  21.492 102.007  0.00  0.00    -0.572 OA
ATOM    114  O1S SGN d 304      85.695  30.535 101.537  0.00  0.00    -0.296 OA
ATOM    115  O5  SGN d 304      87.161  26.530 102.654  0.00  0.00    -0.349 OA
ATOM    116  C4  SGN d 304      85.284  24.999 102.383  0.00  0.00     0.095 C 
ATOM    117  O4  SGN d 304      84.630  23.843 102.927  0.00  0.00    -0.348 OA
ATOM    118  H   SGN d 304      84.186  28.712 103.179  0.00  0.00     0.140 HD
ATOM    119  H   SGN d 304      83.207  29.527  99.826  0.00  0.00     0.231 HD
ATOM    120  H   SGN d 304      88.452  24.516 103.660  0.00  0.00     0.080 H 
ATOM    121  H   SGN d 304      87.185  23.340 103.611  0.00  0.00     0.080 H 
ATOM    122  H   SGN d 304      82.554  26.689 101.812  0.00  0.00     0.210 HD
ATOM    123  H   SGN d 304      86.240  25.486 104.225  0.00  0.00     0.090 H 
ATOM    124  H   SGN d 304      82.516  30.609 101.751  0.00  0.00     0.231 HD
ATOM    125  H   SGN d 304      86.872  28.520 102.224  0.00  0.00     0.131 H 
ATOM    126  H   SGN d 304      84.055  26.334 103.507  0.00  0.00     0.089 H 
ATOM    127  H   SGN d 304      85.262  27.279 100.883  0.00  0.00     0.076 H 
ATOM    128  H   SGN d 304      86.329  29.904 101.160  0.00  0.00     0.231 HD
ATOM    129  H   SGN d 304      85.562  24.801 101.368  0.00  0.00     0.091 H 
ATOM    130  O5S SGN d 302      76.997  21.127  95.940  0.00  0.00    -0.572 OA
ATOM    131  C4  SGN d 302      82.146  18.464  97.488  0.00  0.00     0.095 C 
ATOM    132  O1S SGN d 302      83.690  15.519 101.841  0.00  0.00    -0.296 OA
ATOM    133  O3  SGN d 302      83.632  16.876  98.491  0.00  0.00    -0.391 OA
ATOM    134  O2S SGN d 302      81.391  16.065 101.792  0.00  0.00    -0.296 OA
ATOM    135  C1  SGN d 302      81.486  19.496 100.111  0.00  0.00     0.150 C 
ATOM    136  C5  SGN d 302      81.511  19.833  97.686  0.00  0.00     0.091 C 
ATOM    137  O3S SGN d 302      82.757  16.971 103.469  0.00  0.00    -0.296 OA
ATOM    138  O5  SGN d 302      80.733  19.822  98.912  0.00  0.00    -0.349 OA
ATOM    139  C6  SGN d 302      80.635  20.165  96.487  0.00  0.00     0.067 C 
ATOM    140  S1  SGN d 302      82.706  16.542 102.093  0.00  0.00     0.156 S 
ATOM    141  O4S SGN d 302      78.507  22.795  96.663  0.00  0.00    -0.572 OA
ATOM    142  O6S SGN d 302      78.889  21.621  94.642  0.00  0.00    -0.572 OA
ATOM    143  O4  SGN d 302      82.924  18.501  96.327  0.00  0.00    -0.348 OA
ATOM    144  N   SGN d 302      83.023  17.919 101.030  0.00  0.00    -0.210 NA
ATOM    145  C3  SGN d 302      83.037  18.148  98.673  0.00  0.00     0.083 C 
ATOM    146  C2  SGN d 302      82.145  18.130  99.904  0.00  0.00     0.081 C 
ATOM    147  S2  SGN d 302      78.375  21.535  95.986  0.00  0.00     0.251 S 
ATOM    148  O6  SGN d 302      79.283  20.313  96.861  0.00  0.00    -0.254 OA
ATOM    149  O1  SGN d 302      82.536  20.430 100.361  0.00  0.00    -0.348 OA
ATOM    150  H   SGN d 302      81.388  17.714  97.403  0.00  0.00     0.091 H 
ATOM    151  H   SGN d 302      83.523  14.760 102.421  0.00  0.00     0.231 HD
ATOM    152  H   SGN d 302      84.200  16.894  97.705  0.00  0.00     0.210 HD
ATOM    153  H   SGN d 302      81.184  15.306 102.360  0.00  0.00     0.231 HD
ATOM    154  H   SGN d 302      80.805  19.511 100.936  0.00  0.00     0.131 H 
ATOM    155  H   SGN d 302      82.268  20.584  97.767  0.00  0.00     0.090 H 
ATOM    156  H   SGN d 302      82.583  16.215 104.050  0.00  0.00     0.231 HD
ATOM    157  H   SGN d 302      80.712  19.374  95.770  0.00  0.00     0.080 H 
ATOM    158  H   SGN d 302      80.972  21.090  96.070  0.00  0.00     0.080 H 
ATOM    159  H   SGN d 302      83.966  17.803 100.659  0.00  0.00     0.140 HD
ATOM    160  H   SGN d 302      83.816  18.874  98.776  0.00  0.00     0.089 H 
ATOM    161  H   SGN d 302      81.389  17.380  99.798  0.00  0.00     0.076 H 
ENDROOT
TORSDOF 50
ENDMDL
MODEL 58
REMARK VINA RESULT:      -9.7      3.667      4.903
REMARK  0 active torsions:
REMARK  status: ('A' for Active; 'I' for Inactive)
REMARK       I    between atoms: S_1  and  O2_2 
REMARK       I    between atoms: O2_2  and  C2_99 
REMARK       I    between atoms: C3_3  and  O3_50 
REMARK       I    between atoms: C2_5  and  O2_57 
REMARK       I    between atoms: O1S_6  and  S1_33 
REMARK       I    between atoms: O3_7  and  C3_52 
REMARK       I    between atoms: O6_9  and  C6_34 
REMARK       I    between atoms: O6_9  and  S2_17 
REMARK       I    between atoms: C2_13  and  N_73 
REMARK       I    between atoms: S_16  and  O2_57 
REMARK       I    between atoms: C1_20  and  O4_43 
REMARK       I    between atoms: C6_21  and  C5_67 
REMARK       I    between atoms: C6_21  and  O6_75 
REMARK       I    between atoms: N_22  and  C2_66 
REMARK       I    between atoms: N_22  and  S1_69 
REMARK       I    between atoms: S2_23  and  O6_75 
REMARK       I    between atoms: C1_24  and  O4_78 
REMARK       I    between atoms: C4_25  and  O4_78 
REMARK       I    between atoms: O3_26  and  C3_81 
REMARK       I    between atoms: O1S_27  and  S1_60 
REMARK       I    between atoms: O3S_28  and  S1_69 
REMARK       I    between atoms: O3_29  and  C3_87 
REMARK       I    between atoms: C6_30  and  C5_80 
REMARK       I    between atoms: O2S_32  and  S1_60 
REMARK       I    between atoms: S1_33  and  N_73 
REMARK       I    between atoms: S1_33  and  O2S_94 
REMARK       I    between atoms: S1_33  and  O3S_35 
REMARK       I    between atoms: C6_34  and  C5_38 
REMARK       I    between atoms: C2_36  and  O2_93 
REMARK       I    between atoms: O3_37  and  C3_65 
REMARK       I    between atoms: C1_40  and  O1_105 
REMARK       I    between atoms: O2S_41  and  S1_69 
REMARK       I    between atoms: C5_42  and  C6_54 
REMARK       I    between atoms: O4_43  and  C4_92 
REMARK       I    between atoms: O1_44  and  C1_62 
REMARK       I    between atoms: O1_44  and  C4_83 
REMARK       I    between atoms: C1_45  and  O4_102 
REMARK       I    between atoms: C4_46  and  O1_105 
REMARK       I    between atoms: O3S_47  and  S1_60 
REMARK       I    between atoms: C5_53  and  C6_61 
REMARK       I    between atoms: C6_54  and  O6_98 
REMARK       I    between atoms: O3_56  and  C3_84 
REMARK       I    between atoms: C5_59  and  C6_63 
REMARK       I    between atoms: S1_60  and  N_86 
REMARK       I    between atoms: S1_69  and  O1S_91 
REMARK       I    between atoms: O1_70  and  C1_96 
REMARK       I    between atoms: S_82  and  O2_93 
REMARK       I    between atoms: N_86  and  C2_90 
REMARK       I    between atoms: S2_95  and  O6_98 
REMARK       I    between atoms: C4_100  and  O4_102 
ROOT
ATOM      1  S   IDS d 303      75.653  21.076 102.045  0.00  0.00     0.252 S 
ATOM      2  O2  IDS d 303      76.635  20.191 100.894  0.00  0.00    -0.244 OA
ATOM      3  O61 IDS d 303      80.655  16.585  99.028  0.00  0.00    -0.646 OA
ATOM      4  O3  IDS d 303      79.596  21.158  99.176  0.00  0.00    -0.390 OA
ATOM      5  O3S IDS d 303      75.782  22.473 101.711  0.00  0.00    -0.572 OA
ATOM      6  C1  IDS d 303      78.785  19.793 101.878  0.00  0.00     0.161 C 
ATOM      7  C4  IDS d 303      78.592  18.963  98.969  0.00  0.00     0.103 C 
ATOM      8  O2S IDS d 303      74.296  20.619 101.930  0.00  0.00    -0.572 OA
ATOM      9  C3  IDS d 303      78.433  20.445  99.380  0.00  0.00     0.094 C 
ATOM     10  C5  IDS d 303      79.332  18.228 100.084  0.00  0.00     0.152 C 
ATOM     11  C6  IDS d 303      79.651  16.809  99.707  0.00  0.00     0.206 C 
ATOM     12  O62 IDS d 303      78.989  15.927 100.288  0.00  0.00    -0.646 OA
ATOM     13  O5  IDS d 303      78.980  18.457 101.436  0.00  0.00    -0.340 OA
ATOM     14  C2  IDS d 303      77.967  20.588 100.839  0.00  0.00     0.134 C 
ATOM     15  O1S IDS d 303      76.164  20.801 103.348  0.00  0.00    -0.572 OA
ATOM     16  H   IDS d 303      79.879  21.059  98.253  0.00  0.00     0.210 HD
ATOM     17  H   IDS d 303      78.249  19.711 102.801  0.00  0.00     0.133 H 
ATOM     18  H   IDS d 303      79.110  18.923  98.033  0.00  0.00     0.092 H 
ATOM     19  H   IDS d 303      77.674  20.857  98.748  0.00  0.00     0.091 H 
ATOM     20  H   IDS d 303      80.257  18.763 100.129  0.00  0.00     0.104 H 
ATOM     21  H   IDS d 303      78.109  21.614 101.109  0.00  0.00     0.097 H 
ATOM     22  C3  SGN d 306      84.559  27.038 108.470  0.00  0.00     0.083 C 
ATOM     23  O1S SGN d 306      82.379  26.639 111.411  0.00  0.00    -0.296 OA
ATOM     24  O4S SGN d 306      82.352  30.342 102.348  0.00  0.00    -0.572 OA
ATOM     25  O5S SGN d 306      82.220  27.982 102.291  0.00  0.00    -0.572 OA
ATOM     26  C2  SGN d 306      83.648  28.132 109.004  0.00  0.00     0.081 C 
ATOM     27  O5  SGN d 306      83.696  29.216 106.836  0.00  0.00    -0.350 OA
ATOM     28  C6  SGN d 306      84.313  28.087 104.780  0.00  0.00     0.067 C 
ATOM     29  S2  SGN d 306      83.029  29.113 102.649  0.00  0.00     0.251 S 
ATOM     30  S1  SGN d 306      82.919  27.957 111.634  0.00  0.00     0.156 S 
ATOM     31  O3S SGN d 306      83.591  28.010 112.909  0.00  0.00    -0.296 OA
ATOM     32  O4  SGN d 306      85.126  25.805 106.470  0.00  0.00    -0.348 OA
ATOM     33  O3  SGN d 306      84.312  25.846 109.193  0.00  0.00    -0.391 OA
ATOM     34  O6S SGN d 306      84.294  29.045 101.962  0.00  0.00    -0.572 OA
ATOM     35  C5  SGN d 306      84.561  28.183 106.275  0.00  0.00     0.091 C 
ATOM     36  O1  SGN d 306      85.121  29.998 108.573  0.00  0.00    -0.369 OA
ATOM     37  N   SGN d 306      84.066  28.348 110.361  0.00  0.00    -0.210 NA
ATOM     38  O6  SGN d 306      83.337  29.021 104.375  0.00  0.00    -0.254 OA
ATOM     39  C4  SGN d 306      84.266  26.841 106.979  0.00  0.00     0.095 C 
ATOM     40  O2S SGN d 306      81.883  28.941 111.576  0.00  0.00    -0.296 OA
ATOM     41  C1  SGN d 306      83.842  29.459 108.254  0.00  0.00     0.147 C 
ATOM     42  H   SGN d 306      85.588  27.305 108.588  0.00  0.00     0.089 H 
ATOM     43  H   SGN d 306      81.929  26.615 110.552  0.00  0.00     0.231 HD
ATOM     44  H   SGN d 306      82.625  27.836 108.897  0.00  0.00     0.076 H 
ATOM     45  H   SGN d 306      83.975  27.100 104.542  0.00  0.00     0.080 H 
ATOM     46  H   SGN d 306      85.227  28.299 104.265  0.00  0.00     0.080 H 
ATOM     47  H   SGN d 306      84.289  27.338 112.935  0.00  0.00     0.231 HD
ATOM     48  H   SGN d 306      83.381  25.594 109.092  0.00  0.00     0.210 HD
ATOM     49  H   SGN d 306      85.591  28.428 106.431  0.00  0.00     0.090 H 
ATOM     50  H   SGN d 306      85.179  30.147 109.530  0.00  0.00     0.212 HD
ATOM     51  H   SGN d 306      84.301  29.337 110.454  0.00  0.00     0.140 HD
ATOM     52  H   SGN d 306      83.250  26.554 106.808  0.00  0.00     0.091 H 
ATOM     53  H   SGN d 306      81.441  28.893 110.714  0.00  0.00     0.231 HD
ATOM     54  H   SGN d 306      83.105  30.177 108.550  0.00  0.00     0.131 H 
ATOM     55  C2  UAP d 301      75.409  12.002  97.563  0.00  0.00     0.132 C 
ATOM     56  S   UAP d 301      75.836  10.304  95.611  0.00  0.00     0.252 S 
ATOM     57  O1S UAP d 301      75.356   8.988  95.443  0.00  0.00    -0.572 OA
ATOM     58  C1  UAP d 301      74.736  13.354  97.449  0.00  0.00     0.161 C 
ATOM     59  O61 UAP d 301      71.898  12.168 101.213  0.00  0.00    -0.646 OA
ATOM     60  C5  UAP d 301      73.350  12.692  99.367  0.00  0.00     0.127 C 
ATOM     61  O3  UAP d 301      76.723  11.754  99.506  0.00  0.00    -0.393 OA
ATOM     62  O2  UAP d 301      74.765  11.099  96.730  0.00  0.00    -0.244 OA
ATOM     63  O5  UAP d 301      73.499  13.402  98.151  0.00  0.00    -0.343 OA
ATOM     64  C6  UAP d 301      72.057  12.823 100.163  0.00  0.00     0.203 C 
ATOM     65  O62 UAP d 301      71.189  13.584  99.683  0.00  0.00    -0.646 OA
ATOM     66  O3S UAP d 301      75.752  11.051  94.394  0.00  0.00    -0.572 OA
ATOM     67  O2S UAP d 301      77.175  10.279  96.147  0.00  0.00    -0.572 OA
ATOM     68  C3  UAP d 301      75.513  11.347  98.949  0.00  0.00     0.069 C 
ATOM     69  C4  UAP d 301      74.345  11.671  99.922  0.00  0.00    -0.005 C 
ATOM     70  H   UAP d 301      76.419  12.223  97.291  0.00  0.00     0.097 H 
ATOM     71  H   UAP d 301      74.488  13.581  96.433  0.00  0.00     0.133 H 
ATOM     72  H   UAP d 301      74.146  13.367  99.136  0.00  0.00     0.100 H 
ATOM     73  H   UAP d 301      77.446  11.547  98.893  0.00  0.00     0.210 HD
ATOM     74  H   UAP d 301      75.455  10.287  98.808  0.00  0.00     0.087 H 
ATOM     75  H   UAP d 301      73.817  10.764 100.132  0.00  0.00     0.041 H 
ATOM     76  H   UAP d 301      74.779  12.102 100.800  0.00  0.00     0.041 H 
ATOM     77  O5  IDS d 305      83.424  24.182 105.920  0.00  0.00    -0.340 OA
ATOM     78  O62 IDS d 305      81.176  22.856 106.857  0.00  0.00    -0.646 OA
ATOM     79  C1  IDS d 305      84.611  24.868 105.515  0.00  0.00     0.161 C 
ATOM     80  O3  IDS d 305      86.623  22.326 106.622  0.00  0.00    -0.390 OA
ATOM     81  C6  IDS d 305      82.270  22.349 107.196  0.00  0.00     0.206 C 
ATOM     82  C2  IDS d 305      85.751  23.904 105.092  0.00  0.00     0.134 C 
ATOM     83  C5  IDS d 305      83.521  22.917 106.525  0.00  0.00     0.152 C 
ATOM     84  C3  IDS d 305      85.778  22.433 105.547  0.00  0.00     0.094 C 
ATOM     85  S   IDS d 305      85.271  23.956 102.384  0.00  0.00     0.252 S 
ATOM     86  C4  IDS d 305      84.395  21.845 105.890  0.00  0.00     0.103 C 
ATOM     87  O3S IDS d 305      86.061  24.315 101.264  0.00  0.00    -0.572 OA
ATOM     88  O1S IDS d 305      84.172  24.845 102.508  0.00  0.00    -0.572 OA
ATOM     89  O2  IDS d 305      86.315  24.125 103.806  0.00  0.00    -0.244 OA
ATOM     90  O61 IDS d 305      82.358  21.289 107.837  0.00  0.00    -0.646 OA
ATOM     91  O2S IDS d 305      84.824  22.615 102.286  0.00  0.00    -0.572 OA
ATOM     92  H   IDS d 305      84.280  25.429 104.666  0.00  0.00     0.133 H 
ATOM     93  H   IDS d 305      87.489  22.700 106.392  0.00  0.00     0.210 HD
ATOM     94  H   IDS d 305      86.440  24.289 105.815  0.00  0.00     0.097 H 
ATOM     95  H   IDS d 305      84.137  23.263 107.329  0.00  0.00     0.104 H 
ATOM     96  H   IDS d 305      86.126  21.853 104.717  0.00  0.00     0.091 H 
ATOM     97  H   IDS d 305      84.541  21.029 106.565  0.00  0.00     0.092 H 
ATOM     98  O6  SGN d 304      79.532  18.674 105.021  0.00  0.00    -0.254 OA
ATOM     99  S2  SGN d 304      78.057  17.999 105.673  0.00  0.00     0.251 S 
ATOM    100  O5S SGN d 304      78.015  16.606 105.313  0.00  0.00    -0.572 OA
ATOM    101  N   SGN d 304      84.694  20.008 102.599  0.00  0.00    -0.210 NA
ATOM    102  O3S SGN d 304      86.177  17.876 102.433  0.00  0.00    -0.296 OA
ATOM    103  C6  SGN d 304      79.706  20.087 105.087  0.00  0.00     0.067 C 
ATOM    104  O3  SGN d 304      82.422  19.710 100.991  0.00  0.00    -0.391 OA
ATOM    105  C5  SGN d 304      81.003  20.400 104.384  0.00  0.00     0.091 C 
ATOM    106  O2S SGN d 304      87.246  19.952 102.410  0.00  0.00    -0.296 OA
ATOM    107  O1  SGN d 304      83.736  21.389 104.702  0.00  0.00    -0.348 OA
ATOM    108  O4S SGN d 304      78.066  18.145 107.097  0.00  0.00    -0.572 OA
ATOM    109  C1  SGN d 304      83.397  20.002 104.626  0.00  0.00     0.150 C 
ATOM    110  C3  SGN d 304      82.355  20.194 102.318  0.00  0.00     0.083 C 
ATOM    111  C2  SGN d 304      83.453  19.526 103.154  0.00  0.00     0.081 C 
ATOM    112  S1  SGN d 304      86.198  19.187 102.996  0.00  0.00     0.156 S 
ATOM    113  O6S SGN d 304      76.938  18.702 105.087  0.00  0.00    -0.572 OA
ATOM    114  O1S SGN d 304      86.372  19.104 104.418  0.00  0.00    -0.296 OA
ATOM    115  O5  SGN d 304      82.071  19.761 105.131  0.00  0.00    -0.349 OA
ATOM    116  C4  SGN d 304      81.006  19.854 102.941  0.00  0.00     0.095 C 
ATOM    117  O4  SGN d 304      79.981  20.493 102.165  0.00  0.00    -0.348 OA
ATOM    118  H   SGN d 304      84.797  20.977 102.900  0.00  0.00     0.140 HD
ATOM    119  H   SGN d 304      86.059  17.939 101.472  0.00  0.00     0.231 HD
ATOM    120  H   SGN d 304      79.755  20.405 106.107  0.00  0.00     0.080 H 
ATOM    121  H   SGN d 304      78.887  20.595 104.624  0.00  0.00     0.080 H 
ATOM    122  H   SGN d 304      83.285  19.934 100.608  0.00  0.00     0.210 HD
ATOM    123  H   SGN d 304      81.133  21.462 104.336  0.00  0.00     0.090 H 
ATOM    124  H   SGN d 304      87.113  19.998 101.450  0.00  0.00     0.231 HD
ATOM    125  H   SGN d 304      84.104  19.461 105.221  0.00  0.00     0.131 H 
ATOM    126  H   SGN d 304      82.485  21.256 102.302  0.00  0.00     0.089 H 
ATOM    127  H   SGN d 304      83.346  18.462 103.133  0.00  0.00     0.076 H 
ATOM    128  H   SGN d 304      85.650  18.581 104.802  0.00  0.00     0.231 HD
ATOM    129  H   SGN d 304      80.832  18.798 102.955  0.00  0.00     0.091 H 
ATOM    130  O5S SGN d 302      79.521  15.232  92.861  0.00  0.00    -0.572 OA
ATOM    131  C4  SGN d 302      75.699  15.558  97.474  0.00  0.00     0.095 C 
ATOM    132  O1S SGN d 302      72.165  19.389  99.159  0.00  0.00    -0.296 OA
ATOM    133  O3  SGN d 302      73.756  16.171  98.732  0.00  0.00    -0.391 OA
ATOM    134  O2S SGN d 302      73.196  19.851  97.083  0.00  0.00    -0.296 OA
ATOM    135  C1  SGN d 302      76.645  18.291  97.612  0.00  0.00     0.150 C 
ATOM    136  C5  SGN d 302      77.153  15.929  97.220  0.00  0.00     0.091 C 
ATOM    137  O3S SGN d 302      73.654  21.221  98.931  0.00  0.00    -0.296 OA
ATOM    138  O5  SGN d 302      77.216  17.292  96.725  0.00  0.00    -0.349 OA
ATOM    139  C6  SGN d 302      77.758  14.956  96.217  0.00  0.00     0.067 C 
ATOM    140  S1  SGN d 302      73.353  19.877  98.505  0.00  0.00     0.156 S 
ATOM    141  O4S SGN d 302      80.764  15.663  94.824  0.00  0.00    -0.572 OA
ATOM    142  O6S SGN d 302      79.694  13.573  94.511  0.00  0.00    -0.572 OA
ATOM    143  O4  SGN d 302      75.657  14.259  97.987  0.00  0.00    -0.348 OA
ATOM    144  N   SGN d 302      74.707  18.811  98.904  0.00  0.00    -0.210 NA
ATOM    145  C3  SGN d 302      75.109  16.513  98.491  0.00  0.00     0.083 C 
ATOM    146  C2  SGN d 302      75.189  17.906  97.888  0.00  0.00     0.081 C 
ATOM    147  S2  SGN d 302      79.618  14.993  94.275  0.00  0.00     0.251 S 
ATOM    148  O6  SGN d 302      78.166  15.616  95.040  0.00  0.00    -0.254 OA
ATOM    149  O1  SGN d 302      77.307  18.337  98.875  0.00  0.00    -0.348 OA
ATOM    150  H   SGN d 302      75.140  15.616  96.564  0.00  0.00     0.091 H 
ATOM    151  H   SGN d 302      71.417  19.968  98.945  0.00  0.00     0.231 HD
ATOM    152  H   SGN d 302      73.711  15.282  99.117  0.00  0.00     0.210 HD
ATOM    153  H   SGN d 302      72.458  20.427  96.829  0.00  0.00     0.231 HD
ATOM    154  H   SGN d 302      76.743  19.244  97.134  0.00  0.00     0.131 H 
ATOM    155  H   SGN d 302      77.715  15.867  98.128  0.00  0.00     0.090 H 
ATOM    156  H   SGN d 302      72.911  21.804  98.711  0.00  0.00     0.231 HD
ATOM    157  H   SGN d 302      77.027  14.216  95.966  0.00  0.00     0.080 H 
ATOM    158  H   SGN d 302      78.618  14.504  96.665  0.00  0.00     0.080 H 
ATOM    159  H   SGN d 302      74.419  18.243  99.701  0.00  0.00     0.140 HD
ATOM    160  H   SGN d 302      75.639  16.469  99.419  0.00  0.00     0.089 H 
ATOM    161  H   SGN d 302      74.630  17.944  96.975  0.00  0.00     0.076 H 
ENDROOT
TORSDOF 50
ENDMDL
MODEL 59
REMARK VINA RESULT:      -9.7      4.049     15.124
REMARK  0 active torsions:
REMARK  status: ('A' for Active; 'I' for Inactive)
REMARK       I    between atoms: S_1  and  O2_2 
REMARK       I    between atoms: O2_2  and  C2_99 
REMARK       I    between atoms: C3_3  and  O3_50 
REMARK       I    between atoms: C2_5  and  O2_57 
REMARK       I    between atoms: O1S_6  and  S1_33 
REMARK       I    between atoms: O3_7  and  C3_52 
REMARK       I    between atoms: O6_9  and  C6_34 
REMARK       I    between atoms: O6_9  and  S2_17 
REMARK       I    between atoms: C2_13  and  N_73 
REMARK       I    between atoms: S_16  and  O2_57 
REMARK       I    between atoms: C1_20  and  O4_43 
REMARK       I    between atoms: C6_21  and  C5_67 
REMARK       I    between atoms: C6_21  and  O6_75 
REMARK       I    between atoms: N_22  and  C2_66 
REMARK       I    between atoms: N_22  and  S1_69 
REMARK       I    between atoms: S2_23  and  O6_75 
REMARK       I    between atoms: C1_24  and  O4_78 
REMARK       I    between atoms: C4_25  and  O4_78 
REMARK       I    between atoms: O3_26  and  C3_81 
REMARK       I    between atoms: O1S_27  and  S1_60 
REMARK       I    between atoms: O3S_28  and  S1_69 
REMARK       I    between atoms: O3_29  and  C3_87 
REMARK       I    between atoms: C6_30  and  C5_80 
REMARK       I    between atoms: O2S_32  and  S1_60 
REMARK       I    between atoms: S1_33  and  N_73 
REMARK       I    between atoms: S1_33  and  O2S_94 
REMARK       I    between atoms: S1_33  and  O3S_35 
REMARK       I    between atoms: C6_34  and  C5_38 
REMARK       I    between atoms: C2_36  and  O2_93 
REMARK       I    between atoms: O3_37  and  C3_65 
REMARK       I    between atoms: C1_40  and  O1_105 
REMARK       I    between atoms: O2S_41  and  S1_69 
REMARK       I    between atoms: C5_42  and  C6_54 
REMARK       I    between atoms: O4_43  and  C4_92 
REMARK       I    between atoms: O1_44  and  C1_62 
REMARK       I    between atoms: O1_44  and  C4_83 
REMARK       I    between atoms: C1_45  and  O4_102 
REMARK       I    between atoms: C4_46  and  O1_105 
REMARK       I    between atoms: O3S_47  and  S1_60 
REMARK       I    between atoms: C5_53  and  C6_61 
REMARK       I    between atoms: C6_54  and  O6_98 
REMARK       I    between atoms: O3_56  and  C3_84 
REMARK       I    between atoms: C5_59  and  C6_63 
REMARK       I    between atoms: S1_60  and  N_86 
REMARK       I    between atoms: S1_69  and  O1S_91 
REMARK       I    between atoms: O1_70  and  C1_96 
REMARK       I    between atoms: S_82  and  O2_93 
REMARK       I    between atoms: N_86  and  C2_90 
REMARK       I    between atoms: S2_95  and  O6_98 
REMARK       I    between atoms: C4_100  and  O4_102 
ROOT
ATOM      1  S   IDS d 303      80.201  18.873 106.042  0.00  0.00     0.252 S 
ATOM      2  O2  IDS d 303      81.466  19.530 105.021  0.00  0.00    -0.244 OA
ATOM      3  O61 IDS d 303      83.827  22.612 100.828  0.00  0.00    -0.646 OA
ATOM      4  O3  IDS d 303      83.016  18.170 102.121  0.00  0.00    -0.390 OA
ATOM      5  O3S IDS d 303      80.328  17.438 105.987  0.00  0.00    -0.572 OA
ATOM      6  C1  IDS d 303      80.545  19.955 102.849  0.00  0.00     0.161 C 
ATOM      7  C4  IDS d 303      83.544  20.361 103.012  0.00  0.00     0.103 C 
ATOM      8  O2S IDS d 303      80.386  19.379 107.374  0.00  0.00    -0.572 OA
ATOM      9  C3  IDS d 303      82.922  18.965 103.245  0.00  0.00     0.094 C 
ATOM     10  C5  IDS d 303      82.546  21.211 102.230  0.00  0.00     0.152 C 
ATOM     11  C6  IDS d 303      83.125  22.542 101.840  0.00  0.00     0.206 C 
ATOM     12  O62 IDS d 303      82.681  23.532 102.453  0.00  0.00    -0.646 OA
ATOM     13  O5  IDS d 303      81.176  21.200 102.586  0.00  0.00    -0.340 OA
ATOM     14  C2  IDS d 303      81.459  19.060 103.712  0.00  0.00     0.134 C 
ATOM     15  O1S IDS d 303      78.951  19.309 105.511  0.00  0.00    -0.572 OA
ATOM     16  H   IDS d 303      83.943  18.119 101.838  0.00  0.00     0.210 HD
ATOM     17  H   IDS d 303      79.645  20.198 103.375  0.00  0.00     0.133 H 
ATOM     18  H   IDS d 303      84.474  20.237 102.497  0.00  0.00     0.092 H 
ATOM     19  H   IDS d 303      83.489  18.505 104.028  0.00  0.00     0.091 H 
ATOM     20  H   IDS d 303      82.420  20.641 101.334  0.00  0.00     0.104 H 
ATOM     21  H   IDS d 303      81.042  18.079 103.621  0.00  0.00     0.097 H 
ATOM     22  C3  SGN d 306      72.950  13.460  97.426  0.00  0.00     0.083 C 
ATOM     23  O1S SGN d 306      70.104  14.395  99.569  0.00  0.00    -0.296 OA
ATOM     24  O4S SGN d 306      78.530   9.417  99.829  0.00  0.00    -0.572 OA
ATOM     25  O5S SGN d 306      78.932  11.747  99.839  0.00  0.00    -0.572 OA
ATOM     26  C2  SGN d 306      72.264  12.504  98.390  0.00  0.00     0.081 C 
ATOM     27  O5  SGN d 306      74.251  11.114  98.407  0.00  0.00    -0.350 OA
ATOM     28  C6  SGN d 306      76.448  11.898  97.742  0.00  0.00     0.067 C 
ATOM     29  S2  SGN d 306      78.410  10.640  99.088  0.00  0.00     0.251 S 
ATOM     30  S1  SGN d 306      69.690  13.099  99.096  0.00  0.00     0.156 S 
ATOM     31  O3S SGN d 306      68.419  13.197  98.422  0.00  0.00    -0.296 OA
ATOM     32  O4  SGN d 306      75.106  14.357  96.805  0.00  0.00    -0.348 OA
ATOM     33  O3  SGN d 306      72.409  14.756  97.608  0.00  0.00    -0.391 OA
ATOM     34  O6S SGN d 306      79.096  10.541  97.824  0.00  0.00    -0.572 OA
ATOM     35  C5  SGN d 306      74.954  12.008  97.493  0.00  0.00     0.091 C 
ATOM     36  O1  SGN d 306      72.414  10.521  97.017  0.00  0.00    -0.369 OA
ATOM     37  N   SGN d 306      70.889  12.466  97.976  0.00  0.00    -0.210 NA
ATOM     38  O6  SGN d 306      76.714  10.967  98.767  0.00  0.00    -0.254 OA
ATOM     39  C4  SGN d 306      74.454  13.452  97.715  0.00  0.00     0.095 C 
ATOM     40  O2S SGN d 306      69.607  12.171 100.182  0.00  0.00    -0.296 OA
ATOM     41  C1  SGN d 306      72.812  11.073  98.268  0.00  0.00     0.147 C 
ATOM     42  H   SGN d 306      72.790  13.160  96.411  0.00  0.00     0.089 H 
ATOM     43  H   SGN d 306      70.959  14.317 100.020  0.00  0.00     0.231 HD
ATOM     44  H   SGN d 306      72.416  12.834  99.397  0.00  0.00     0.076 H 
ATOM     45  H   SGN d 306      76.827  12.856  98.030  0.00  0.00     0.080 H 
ATOM     46  H   SGN d 306      76.923  11.566  96.843  0.00  0.00     0.080 H 
ATOM     47  H   SGN d 306      68.490  13.828  97.690  0.00  0.00     0.231 HD
ATOM     48  H   SGN d 306      72.548  15.038  98.525  0.00  0.00     0.210 HD
ATOM     49  H   SGN d 306      74.760  11.736  96.476  0.00  0.00     0.090 H 
ATOM     50  H   SGN d 306      71.446  10.511  96.962  0.00  0.00     0.212 HD
ATOM     51  H   SGN d 306      70.652  11.492  97.792  0.00  0.00     0.140 HD
ATOM     52  H   SGN d 306      74.668  13.764  98.716  0.00  0.00     0.091 H 
ATOM     53  H   SGN d 306      70.468  12.115 100.625  0.00  0.00     0.231 HD
ATOM     54  H   SGN d 306      72.417  10.445  99.039  0.00  0.00     0.131 H 
ATOM     55  C2  UAP d 301      85.960  27.198 105.838  0.00  0.00     0.132 C 
ATOM     56  S   UAP d 301      88.137  28.568 105.333  0.00  0.00     0.252 S 
ATOM     57  O1S UAP d 301      88.497  29.869 105.745  0.00  0.00    -0.572 OA
ATOM     58  C1  UAP d 301      85.877  25.880 106.580  0.00  0.00     0.161 C 
ATOM     59  O61 UAP d 301      82.335  27.747 109.336  0.00  0.00    -0.646 OA
ATOM     60  C5  UAP d 301      84.081  26.886 107.922  0.00  0.00     0.127 C 
ATOM     61  O3  UAP d 301      84.070  27.658 104.504  0.00  0.00    -0.393 OA
ATOM     62  O2  UAP d 301      86.917  28.001 106.439  0.00  0.00    -0.244 OA
ATOM     63  O5  UAP d 301      85.180  25.998 107.815  0.00  0.00    -0.343 OA
ATOM     64  C6  UAP d 301      83.278  26.938 109.216  0.00  0.00     0.203 C 
ATOM     65  O62 UAP d 301      83.644  26.162 110.124  0.00  0.00    -0.646 OA
ATOM     66  O3S UAP d 301      89.233  27.657 105.461  0.00  0.00    -0.572 OA
ATOM     67  O2S UAP d 301      87.607  28.602 103.992  0.00  0.00    -0.572 OA
ATOM     68  C3  UAP d 301      84.684  28.042 105.694  0.00  0.00     0.069 C 
ATOM     69  C4  UAP d 301      83.677  27.923 106.873  0.00  0.00    -0.005 C 
ATOM     70  H   UAP d 301      86.193  26.887 104.842  0.00  0.00     0.097 H 
ATOM     71  H   UAP d 301      86.850  25.521 106.845  0.00  0.00     0.133 H 
ATOM     72  H   UAP d 301      84.209  26.143 107.162  0.00  0.00     0.100 H 
ATOM     73  H   UAP d 301      84.704  27.735 103.774  0.00  0.00     0.210 HD
ATOM     74  H   UAP d 301      84.978  29.071 105.698  0.00  0.00     0.087 H 
ATOM     75  H   UAP d 301      83.604  28.878 107.352  0.00  0.00     0.041 H 
ATOM     76  H   UAP d 301      82.744  27.603 106.458  0.00  0.00     0.041 H 
ATOM     77  O5  IDS d 305      75.892  15.968  98.423  0.00  0.00    -0.340 OA
ATOM     78  O62 IDS d 305      75.165  17.531 100.596  0.00  0.00    -0.646 OA
ATOM     79  C1  IDS d 305      76.189  15.170  97.276  0.00  0.00     0.161 C 
ATOM     80  O3  IDS d 305      75.458  17.739  95.130  0.00  0.00    -0.390 OA
ATOM     81  C6  IDS d 305      74.901  18.025  99.476  0.00  0.00     0.206 C 
ATOM     82  C2  IDS d 305      76.745  16.002  96.089  0.00  0.00     0.134 C 
ATOM     83  C5  IDS d 305      75.478  17.301  98.259  0.00  0.00     0.152 C 
ATOM     84  C3  IDS d 305      76.509  17.520  95.984  0.00  0.00     0.094 C 
ATOM     85  S   IDS d 305      79.417  15.580  96.583  0.00  0.00     0.252 S 
ATOM     86  C4  IDS d 305      76.260  18.222  97.333  0.00  0.00     0.103 C 
ATOM     87  O3S IDS d 305      80.471  15.021  95.818  0.00  0.00    -0.572 OA
ATOM     88  O1S IDS d 305      79.169  14.777  97.727  0.00  0.00    -0.572 OA
ATOM     89  O2  IDS d 305      77.984  15.567  95.543  0.00  0.00    -0.244 OA
ATOM     90  O61 IDS d 305      74.421  19.161  99.330  0.00  0.00    -0.646 OA
ATOM     91  O2S IDS d 305      79.711  16.914  96.962  0.00  0.00    -0.572 OA
ATOM     92  H   IDS d 305      76.948  14.509  97.639  0.00  0.00     0.133 H 
ATOM     93  H   IDS d 305      75.630  17.291  94.286  0.00  0.00     0.210 HD
ATOM     94  H   IDS d 305      75.972  15.691  95.417  0.00  0.00     0.097 H 
ATOM     95  H   IDS d 305      74.630  17.045  97.658  0.00  0.00     0.104 H 
ATOM     96  H   IDS d 305      77.413  17.954  95.611  0.00  0.00     0.091 H 
ATOM     97  H   IDS d 305      75.710  19.120  97.142  0.00  0.00     0.092 H 
ATOM     98  O6  SGN d 304      77.596  21.480 102.030  0.00  0.00    -0.254 OA
ATOM     99  S2  SGN d 304      77.054  22.318 103.465  0.00  0.00     0.251 S 
ATOM    100  O5S SGN d 304      77.613  23.644 103.438  0.00  0.00    -0.572 OA
ATOM    101  N   SGN d 304      79.783  19.542  96.956  0.00  0.00    -0.210 NA
ATOM    102  O3S SGN d 304      80.253  21.548  95.365  0.00  0.00    -0.296 OA
ATOM    103  C6  SGN d 304      77.325  20.085 101.929  0.00  0.00     0.067 C 
ATOM    104  O3  SGN d 304      81.424  19.719  99.217  0.00  0.00    -0.391 OA
ATOM    105  C5  SGN d 304      77.970  19.606 100.653  0.00  0.00     0.091 C 
ATOM    106  O2S SGN d 304      79.970  19.438  94.405  0.00  0.00    -0.296 OA
ATOM    107  O1  SGN d 304      77.504  18.533  97.974  0.00  0.00    -0.348 OA
ATOM    108  O4S SGN d 304      75.624  22.382 103.457  0.00  0.00    -0.572 OA
ATOM    109  C1  SGN d 304      77.782  19.911  98.241  0.00  0.00     0.150 C 
ATOM    110  C3  SGN d 304      80.040  19.439  99.302  0.00  0.00     0.083 C 
ATOM    111  C2  SGN d 304      79.308  20.163  98.167  0.00  0.00     0.081 C 
ATOM    112  S1  SGN d 304      79.504  20.333  95.409  0.00  0.00     0.156 S 
ATOM    113  O6S SGN d 304      77.534  21.596 104.622  0.00  0.00    -0.572 OA
ATOM    114  O1S SGN d 304      78.110  20.614  95.225  0.00  0.00    -0.296 OA
ATOM    115  O5  SGN d 304      77.321  20.291  99.550  0.00  0.00    -0.349 OA
ATOM    116  C4  SGN d 304      79.478  19.935 100.628  0.00  0.00     0.095 C 
ATOM    117  O4  SGN d 304      80.155  19.244 101.689  0.00  0.00    -0.348 OA
ATOM    118  H   SGN d 304      79.343  18.623  96.901  0.00  0.00     0.140 HD
ATOM    119  H   SGN d 304      81.195  21.352  95.490  0.00  0.00     0.231 HD
ATOM    120  H   SGN d 304      76.268  19.917 101.892  0.00  0.00     0.080 H 
ATOM    121  H   SGN d 304      77.711  19.557 102.776  0.00  0.00     0.080 H 
ATOM    122  H   SGN d 304      81.767  19.398  98.368  0.00  0.00     0.210 HD
ATOM    123  H   SGN d 304      77.863  18.543 100.578  0.00  0.00     0.090 H 
ATOM    124  H   SGN d 304      80.913  19.259  94.544  0.00  0.00     0.231 HD
ATOM    125  H   SGN d 304      77.270  20.495  97.504  0.00  0.00     0.131 H 
ATOM    126  H   SGN d 304      79.901  18.380  99.227  0.00  0.00     0.089 H 
ATOM    127  H   SGN d 304      79.483  21.217  98.219  0.00  0.00     0.076 H 
ATOM    128  H   SGN d 304      77.808  21.224  95.916  0.00  0.00     0.231 HD
ATOM    129  H   SGN d 304      79.618  20.989 100.748  0.00  0.00     0.091 H 
ATOM    130  O5S SGN d 302      90.129  23.108 101.920  0.00  0.00    -0.572 OA
ATOM    131  C4  SGN d 302      85.529  23.656 105.732  0.00  0.00     0.095 C 
ATOM    132  O1S SGN d 302      83.313  20.300 109.451  0.00  0.00    -0.296 OA
ATOM    133  O3  SGN d 302      84.200  23.335 107.699  0.00  0.00    -0.391 OA
ATOM    134  O2S SGN d 302      85.296  19.488 108.456  0.00  0.00    -0.296 OA
ATOM    135  C1  SGN d 302      84.991  20.927 104.928  0.00  0.00     0.150 C 
ATOM    136  C5  SGN d 302      85.721  23.178 104.300  0.00  0.00     0.091 C 
ATOM    137  O3S SGN d 302      83.267  18.380 108.060  0.00  0.00    -0.296 OA
ATOM    138  O5  SGN d 302      86.011  21.755 104.310  0.00  0.00    -0.349 OA
ATOM    139  C6  SGN d 302      86.853  23.962 103.651  0.00  0.00     0.067 C 
ATOM    140  S1  SGN d 302      83.886  19.661 108.293  0.00  0.00     0.156 S 
ATOM    141  O4S SGN d 302      88.120  22.904 100.692  0.00  0.00    -0.572 OA
ATOM    142  O6S SGN d 302      88.737  24.979 101.654  0.00  0.00    -0.572 OA
ATOM    143  O4  SGN d 302      85.210  25.017 105.705  0.00  0.00    -0.348 OA
ATOM    144  N   SGN d 302      83.642  20.703 106.884  0.00  0.00    -0.210 NA
ATOM    145  C3  SGN d 302      84.384  22.891 106.366  0.00  0.00     0.083 C 
ATOM    146  C2  SGN d 302      84.778  21.423 106.361  0.00  0.00     0.081 C 
ATOM    147  S2  SGN d 302      88.764  23.545 101.804  0.00  0.00     0.251 S 
ATOM    148  O6  SGN d 302      87.920  23.117 103.283  0.00  0.00    -0.254 OA
ATOM    149  O1  SGN d 302      83.732  21.032 104.263  0.00  0.00    -0.348 OA
ATOM    150  H   SGN d 302      86.422  23.495 106.298  0.00  0.00     0.091 H 
ATOM    151  H   SGN d 302      83.442  19.735 110.229  0.00  0.00     0.231 HD
ATOM    152  H   SGN d 302      83.949  24.272 107.696  0.00  0.00     0.210 HD
ATOM    153  H   SGN d 302      85.466  18.919 109.223  0.00  0.00     0.231 HD
ATOM    154  H   SGN d 302      85.324  19.912 104.881  0.00  0.00     0.131 H 
ATOM    155  H   SGN d 302      84.830  23.343 103.732  0.00  0.00     0.090 H 
ATOM    156  H   SGN d 302      83.402  17.810 108.833  0.00  0.00     0.231 HD
ATOM    157  H   SGN d 302      87.212  24.694 104.344  0.00  0.00     0.080 H 
ATOM    158  H   SGN d 302      86.474  24.429 102.767  0.00  0.00     0.080 H 
ATOM    159  H   SGN d 302      82.937  21.395 107.138  0.00  0.00     0.140 HD
ATOM    160  H   SGN d 302      83.471  23.044 105.830  0.00  0.00     0.089 H 
ATOM    161  H   SGN d 302      85.677  21.281 106.926  0.00  0.00     0.076 H 
ENDROOT
TORSDOF 50
ENDMDL
MODEL 60
REMARK VINA RESULT:      -9.7      4.750      9.491
REMARK  0 active torsions:
REMARK  status: ('A' for Active; 'I' for Inactive)
REMARK       I    between atoms: S_1  and  O2_2 
REMARK       I    between atoms: O2_2  and  C2_99 
REMARK       I    between atoms: C3_3  and  O3_50 
REMARK       I    between atoms: C2_5  and  O2_57 
REMARK       I    between atoms: O1S_6  and  S1_33 
REMARK       I    between atoms: O3_7  and  C3_52 
REMARK       I    between atoms: O6_9  and  C6_34 
REMARK       I    between atoms: O6_9  and  S2_17 
REMARK       I    between atoms: C2_13  and  N_73 
REMARK       I    between atoms: S_16  and  O2_57 
REMARK       I    between atoms: C1_20  and  O4_43 
REMARK       I    between atoms: C6_21  and  C5_67 
REMARK       I    between atoms: C6_21  and  O6_75 
REMARK       I    between atoms: N_22  and  C2_66 
REMARK       I    between atoms: N_22  and  S1_69 
REMARK       I    between atoms: S2_23  and  O6_75 
REMARK       I    between atoms: C1_24  and  O4_78 
REMARK       I    between atoms: C4_25  and  O4_78 
REMARK       I    between atoms: O3_26  and  C3_81 
REMARK       I    between atoms: O1S_27  and  S1_60 
REMARK       I    between atoms: O3S_28  and  S1_69 
REMARK       I    between atoms: O3_29  and  C3_87 
REMARK       I    between atoms: C6_30  and  C5_80 
REMARK       I    between atoms: O2S_32  and  S1_60 
REMARK       I    between atoms: S1_33  and  N_73 
REMARK       I    between atoms: S1_33  and  O2S_94 
REMARK       I    between atoms: S1_33  and  O3S_35 
REMARK       I    between atoms: C6_34  and  C5_38 
REMARK       I    between atoms: C2_36  and  O2_93 
REMARK       I    between atoms: O3_37  and  C3_65 
REMARK       I    between atoms: C1_40  and  O1_105 
REMARK       I    between atoms: O2S_41  and  S1_69 
REMARK       I    between atoms: C5_42  and  C6_54 
REMARK       I    between atoms: O4_43  and  C4_92 
REMARK       I    between atoms: O1_44  and  C1_62 
REMARK       I    between atoms: O1_44  and  C4_83 
REMARK       I    between atoms: C1_45  and  O4_102 
REMARK       I    between atoms: C4_46  and  O1_105 
REMARK       I    between atoms: O3S_47  and  S1_60 
REMARK       I    between atoms: C5_53  and  C6_61 
REMARK       I    between atoms: C6_54  and  O6_98 
REMARK       I    between atoms: O3_56  and  C3_84 
REMARK       I    between atoms: C5_59  and  C6_63 
REMARK       I    between atoms: S1_60  and  N_86 
REMARK       I    between atoms: S1_69  and  O1S_91 
REMARK       I    between atoms: O1_70  and  C1_96 
REMARK       I    between atoms: S_82  and  O2_93 
REMARK       I    between atoms: N_86  and  C2_90 
REMARK       I    between atoms: S2_95  and  O6_98 
REMARK       I    between atoms: C4_100  and  O4_102 
ROOT
ATOM      1  S   IDS d 303      88.516  20.948 101.723  0.00  0.00     0.252 S 
ATOM      2  O2  IDS d 303      87.138  21.268 102.759  0.00  0.00    -0.244 OA
ATOM      3  O61 IDS d 303      82.017  23.285 104.295  0.00  0.00    -0.646 OA
ATOM      4  O3  IDS d 303      86.602  23.863 105.133  0.00  0.00    -0.390 OA
ATOM      5  O3S IDS d 303      89.679  21.444 102.416  0.00  0.00    -0.572 OA
ATOM      6  C1  IDS d 303      86.140  23.339 102.078  0.00  0.00     0.161 C 
ATOM      7  C4  IDS d 303      84.947  22.174 104.609  0.00  0.00     0.103 C 
ATOM      8  O2S IDS d 303      88.590  19.532 101.491  0.00  0.00    -0.572 OA
ATOM      9  C3  IDS d 303      86.427  22.618 104.565  0.00  0.00     0.094 C 
ATOM     10  C5  IDS d 303      84.196  22.880 103.484  0.00  0.00     0.152 C 
ATOM     11  C6  IDS d 303      82.719  22.611 103.537  0.00  0.00     0.206 C 
ATOM     12  O62 IDS d 303      82.268  21.860 102.651  0.00  0.00    -0.646 OA
ATOM     13  O5  IDS d 303      84.774  22.968 102.195  0.00  0.00    -0.340 OA
ATOM     14  C2  IDS d 303      86.989  22.599 103.133  0.00  0.00     0.134 C 
ATOM     15  O1S IDS d 303      88.302  21.644 100.496  0.00  0.00    -0.572 OA
ATOM     16  H   IDS d 303      86.244  23.862 106.035  0.00  0.00     0.210 HD
ATOM     17  H   IDS d 303      86.429  23.051 101.089  0.00  0.00     0.133 H 
ATOM     18  H   IDS d 303      84.551  22.403 105.577  0.00  0.00     0.092 H 
ATOM     19  H   IDS d 303      86.977  21.906 105.145  0.00  0.00     0.091 H 
ATOM     20  H   IDS d 303      84.343  23.911 103.729  0.00  0.00     0.104 H 
ATOM     21  H   IDS d 303      87.916  23.134 103.159  0.00  0.00     0.097 H 
ATOM     22  C3  SGN d 306      91.716  32.611  98.584  0.00  0.00     0.083 C 
ATOM     23  O1S SGN d 306      92.690  31.217  95.317  0.00  0.00    -0.296 OA
ATOM     24  O4S SGN d 306      94.478  30.182 104.887  0.00  0.00    -0.572 OA
ATOM     25  O5S SGN d 306      92.370  29.270 104.324  0.00  0.00    -0.572 OA
ATOM     26  C2  SGN d 306      93.148  32.273  98.200  0.00  0.00     0.081 C 
ATOM     27  O5  SGN d 306      93.735  32.141 100.548  0.00  0.00    -0.350 OA
ATOM     28  C6  SGN d 306      92.115  31.825 102.325  0.00  0.00     0.067 C 
ATOM     29  S2  SGN d 306      93.157  30.468 104.402  0.00  0.00     0.251 S 
ATOM     30  S1  SGN d 306      93.724  32.198  95.527  0.00  0.00     0.156 S 
ATOM     31  O3S SGN d 306      93.744  33.141  94.437  0.00  0.00    -0.296 OA
ATOM     32  O4  SGN d 306      90.030  32.230 100.272  0.00  0.00    -0.348 OA
ATOM     33  O3  SGN d 306      90.852  32.171  97.552  0.00  0.00    -0.391 OA
ATOM     34  O6S SGN d 306      92.499  31.430 105.250  0.00  0.00    -0.572 OA
ATOM     35  C5  SGN d 306      92.372  32.451 100.966  0.00  0.00     0.091 C 
ATOM     36  O1  SGN d 306      94.215  34.124  99.326  0.00  0.00    -0.369 OA
ATOM     37  N   SGN d 306      93.425  33.060  97.030  0.00  0.00    -0.210 NA
ATOM     38  O6  SGN d 306      93.261  31.143 102.785  0.00  0.00    -0.254 OA
ATOM     39  C4  SGN d 306      91.385  31.913  99.906  0.00  0.00     0.095 C 
ATOM     40  O2S SGN d 306      94.999  31.564  95.659  0.00  0.00    -0.296 OA
ATOM     41  C1  SGN d 306      94.151  32.703  99.282  0.00  0.00     0.147 C 
ATOM     42  H   SGN d 306      91.592  33.667  98.709  0.00  0.00     0.089 H 
ATOM     43  H   SGN d 306      92.686  30.587  96.056  0.00  0.00     0.231 HD
ATOM     44  H   SGN d 306      93.245  31.216  98.056  0.00  0.00     0.076 H 
ATOM     45  H   SGN d 306      91.303  31.133 102.246  0.00  0.00     0.080 H 
ATOM     46  H   SGN d 306      91.874  32.602 103.021  0.00  0.00     0.080 H 
ATOM     47  H   SGN d 306      92.875  33.563  94.359  0.00  0.00     0.231 HD
ATOM     48  H   SGN d 306      90.955  31.215  97.430  0.00  0.00     0.210 HD
ATOM     49  H   SGN d 306      92.234  33.509 101.049  0.00  0.00     0.090 H 
ATOM     50  H   SGN d 306      94.497  34.462  98.462  0.00  0.00     0.212 HD
ATOM     51  H   SGN d 306      94.252  33.623  97.230  0.00  0.00     0.140 HD
ATOM     52  H   SGN d 306      91.476  30.850  99.828  0.00  0.00     0.091 H 
ATOM     53  H   SGN d 306      94.971  30.933  96.395  0.00  0.00     0.231 HD
ATOM     54  H   SGN d 306      95.133  32.340  99.059  0.00  0.00     0.131 H 
ATOM     55  C2  UAP d 301      79.565  16.632 103.662  0.00  0.00     0.132 C 
ATOM     56  S   UAP d 301      77.517  15.982 105.165  0.00  0.00     0.252 S 
ATOM     57  O1S UAP d 301      76.471  15.069 104.913  0.00  0.00    -0.572 OA
ATOM     58  C1  UAP d 301      81.028  16.437 104.001  0.00  0.00     0.161 C 
ATOM     59  O61 UAP d 301      81.678  14.385  99.642  0.00  0.00    -0.646 OA
ATOM     60  C5  UAP d 301      81.284  15.427 101.775  0.00  0.00     0.127 C 
ATOM     61  O3  UAP d 301      79.186  18.227 101.966  0.00  0.00    -0.393 OA
ATOM     62  O2  UAP d 301      78.840  15.543 104.121  0.00  0.00    -0.244 OA
ATOM     63  O5  UAP d 301      81.661  15.497 103.139  0.00  0.00    -0.343 OA
ATOM     64  C6  UAP d 301      82.030  14.488 100.835  0.00  0.00     0.203 C 
ATOM     65  O62 UAP d 301      82.965  13.829 101.341  0.00  0.00    -0.646 OA
ATOM     66  O3S UAP d 301      78.014  15.852 106.500  0.00  0.00    -0.572 OA
ATOM     67  O2S UAP d 301      77.085  17.326 104.870  0.00  0.00    -0.572 OA
ATOM     68  C3  UAP d 301      79.173  16.852 102.192  0.00  0.00     0.069 C 
ATOM     69  C4  UAP d 301      80.079  16.134 101.153  0.00  0.00    -0.005 C 
ATOM     70  H   UAP d 301      79.339  17.559 104.145  0.00  0.00     0.097 H 
ATOM     71  H   UAP d 301      81.149  16.035 104.985  0.00  0.00     0.133 H 
ATOM     72  H   UAP d 301      81.558  16.318 102.298  0.00  0.00     0.100 H 
ATOM     73  H   UAP d 301      78.619  18.667 102.618  0.00  0.00     0.210 HD
ATOM     74  H   UAP d 301      78.207  16.416 102.050  0.00  0.00     0.087 H 
ATOM     75  H   UAP d 301      79.489  15.406 100.636  0.00  0.00     0.041 H 
ATOM     76  H   UAP d 301      80.462  16.888 100.497  0.00  0.00     0.041 H 
ATOM     77  O5  IDS d 305      89.097  30.008 100.104  0.00  0.00    -0.340 OA
ATOM     78  O62 IDS d 305      88.901  27.753  98.503  0.00  0.00    -0.646 OA
ATOM     79  C1  IDS d 305      89.203  31.216 100.861  0.00  0.00     0.161 C 
ATOM     80  O3  IDS d 305      86.329  32.486  99.497  0.00  0.00    -0.390 OA
ATOM     81  C6  IDS d 305      88.088  28.667  98.234  0.00  0.00     0.206 C 
ATOM     82  C2  IDS d 305      87.823  31.834 101.210  0.00  0.00     0.134 C 
ATOM     83  C5  IDS d 305      88.016  29.829  99.224  0.00  0.00     0.152 C 
ATOM     84  C3  IDS d 305      86.555  31.486 100.409  0.00  0.00     0.094 C 
ATOM     85  S   IDS d 305      87.576  30.748 103.724  0.00  0.00     0.252 S 
ATOM     86  C4  IDS d 305      86.601  30.116  99.704  0.00  0.00     0.103 C 
ATOM     87  O3S IDS d 305      87.409  31.310 105.014  0.00  0.00    -0.572 OA
ATOM     88  O1S IDS d 305      88.820  30.069 103.648  0.00  0.00    -0.572 OA
ATOM     89  O2  IDS d 305      87.586  32.104 102.585  0.00  0.00    -0.244 OA
ATOM     90  O61 IDS d 305      87.203  28.555  97.369  0.00  0.00    -0.646 OA
ATOM     91  O2S IDS d 305      86.507  29.874 103.404  0.00  0.00    -0.572 OA
ATOM     92  H   IDS d 305      89.689  30.891 101.757  0.00  0.00     0.133 H 
ATOM     93  H   IDS d 305      86.302  33.341  99.955  0.00  0.00     0.210 HD
ATOM     94  H   IDS d 305      88.041  32.767 100.732  0.00  0.00     0.097 H 
ATOM     95  H   IDS d 305      88.240  30.702  98.647  0.00  0.00     0.104 H 
ATOM     96  H   IDS d 305      85.751  31.408 101.111  0.00  0.00     0.091 H 
ATOM     97  H   IDS d 305      85.921  30.146  98.878  0.00  0.00     0.092 H 
ATOM     98  O6  SGN d 304      85.393  24.425  98.923  0.00  0.00    -0.254 OA
ATOM     99  S2  SGN d 304      85.449  23.019  97.886  0.00  0.00     0.251 S 
ATOM    100  O5S SGN d 304      84.134  22.432  97.871  0.00  0.00    -0.572 OA
ATOM    101  N   SGN d 304      84.239  28.973 102.426  0.00  0.00    -0.210 NA
ATOM    102  O3S SGN d 304      81.712  29.581 102.291  0.00  0.00    -0.296 OA
ATOM    103  C6  SGN d 304      86.624  25.065  99.247  0.00  0.00     0.067 C 
ATOM    104  O3  SGN d 304      84.541  26.408 103.506  0.00  0.00    -0.391 OA
ATOM    105  C5  SGN d 304      86.298  26.178 100.211  0.00  0.00     0.091 C 
ATOM    106  O2S SGN d 304      83.194  31.234 103.016  0.00  0.00    -0.296 OA
ATOM    107  O1  SGN d 304      86.226  29.073 100.612  0.00  0.00    -0.348 OA
ATOM    108  O4S SGN d 304      85.827  23.425  96.568  0.00  0.00    -0.572 OA
ATOM    109  C1  SGN d 304      85.077  28.288 100.277  0.00  0.00     0.150 C 
ATOM    110  C3  SGN d 304      85.239  26.834 102.352  0.00  0.00     0.083 C 
ATOM    111  C2  SGN d 304      84.365  27.820 101.569  0.00  0.00     0.081 C 
ATOM    112  S1  SGN d 304      82.997  30.172 102.090  0.00  0.00     0.156 S 
ATOM    113  O6S SGN d 304      86.406  22.086  98.437  0.00  0.00    -0.572 OA
ATOM    114  O1S SGN d 304      83.105  30.652 100.742  0.00  0.00    -0.296 OA
ATOM    115  O5  SGN d 304      85.446  27.124  99.514  0.00  0.00    -0.349 OA
ATOM    116  C4  SGN d 304      85.547  25.646 101.449  0.00  0.00     0.095 C 
ATOM    117  O4  SGN d 304      86.377  24.731 102.179  0.00  0.00    -0.348 OA
ATOM    118  H   SGN d 304      85.135  29.460 102.401  0.00  0.00     0.140 HD
ATOM    119  H   SGN d 304      81.645  29.259 103.204  0.00  0.00     0.231 HD
ATOM    120  H   SGN d 304      87.075  25.465  98.362  0.00  0.00     0.080 H 
ATOM    121  H   SGN d 304      87.314  24.372  99.680  0.00  0.00     0.080 H 
ATOM    122  H   SGN d 304      84.352  27.174 104.071  0.00  0.00     0.210 HD
ATOM    123  H   SGN d 304      87.206  26.634 100.547  0.00  0.00     0.090 H 
ATOM    124  H   SGN d 304      83.118  30.893 103.920  0.00  0.00     0.231 HD
ATOM    125  H   SGN d 304      84.424  28.901  99.690  0.00  0.00     0.131 H 
ATOM    126  H   SGN d 304      86.153  27.298 102.658  0.00  0.00     0.089 H 
ATOM    127  H   SGN d 304      83.434  27.367 101.302  0.00  0.00     0.076 H 
ATOM    128  H   SGN d 304      82.968  29.917 100.124  0.00  0.00     0.231 HD
ATOM    129  H   SGN d 304      84.654  25.142 101.140  0.00  0.00     0.091 H 
ATOM    130  O5S SGN d 302      80.131  20.288 109.643  0.00  0.00    -0.572 OA
ATOM    131  C4  SGN d 302      82.675  18.047 104.694  0.00  0.00     0.095 C 
ATOM    132  O1S SGN d 302      87.786  16.502 103.469  0.00  0.00    -0.296 OA
ATOM    133  O3  SGN d 302      84.185  16.787 103.327  0.00  0.00    -0.391 OA
ATOM    134  O2S SGN d 302      87.454  17.083 105.735  0.00  0.00    -0.296 OA
ATOM    135  C1  SGN d 302      84.830  19.843 105.410  0.00  0.00     0.150 C 
ATOM    136  C5  SGN d 302      82.421  19.432 105.271  0.00  0.00     0.091 C 
ATOM    137  O3S SGN d 302      88.852  18.407 104.396  0.00  0.00    -0.296 OA
ATOM    138  O5  SGN d 302      83.551  19.817 106.097  0.00  0.00    -0.349 OA
ATOM    139  C6  SGN d 302      81.132  19.416 106.081  0.00  0.00     0.067 C 
ATOM    140  S1  SGN d 302      87.668  17.585 104.413  0.00  0.00     0.156 S 
ATOM    141  O4S SGN d 302      80.400  22.046 108.087  0.00  0.00    -0.572 OA
ATOM    142  O6S SGN d 302      78.846  20.305 107.679  0.00  0.00    -0.572 OA
ATOM    143  O4  SGN d 302      81.599  17.707 103.869  0.00  0.00    -0.348 OA
ATOM    144  N   SGN d 302      86.259  18.566 103.988  0.00  0.00    -0.210 NA
ATOM    145  C3  SGN d 302      83.945  18.074 103.867  0.00  0.00     0.083 C 
ATOM    146  C2  SGN d 302      85.076  18.457 104.808  0.00  0.00     0.081 C 
ATOM    147  S2  SGN d 302      80.125  20.646 108.251  0.00  0.00     0.251 S 
ATOM    148  O6  SGN d 302      81.373  19.715 107.438  0.00  0.00    -0.254 OA
ATOM    149  O1  SGN d 302      84.844  20.773 104.327  0.00  0.00    -0.348 OA
ATOM    150  H   SGN d 302      82.779  17.332 105.483  0.00  0.00     0.091 H 
ATOM    151  H   SGN d 302      88.557  15.959 103.695  0.00  0.00     0.231 HD
ATOM    152  H   SGN d 302      83.461  16.548 102.727  0.00  0.00     0.210 HD
ATOM    153  H   SGN d 302      88.212  16.538 106.001  0.00  0.00     0.231 HD
ATOM    154  H   SGN d 302      85.576  20.129 106.122  0.00  0.00     0.131 H 
ATOM    155  H   SGN d 302      82.312  20.147 104.483  0.00  0.00     0.090 H 
ATOM    156  H   SGN d 302      89.624  17.868 104.630  0.00  0.00     0.231 HD
ATOM    157  H   SGN d 302      80.690  18.444 106.012  0.00  0.00     0.080 H 
ATOM    158  H   SGN d 302      80.476  20.161 105.683  0.00  0.00     0.080 H 
ATOM    159  H   SGN d 302      85.991  18.313 103.037  0.00  0.00     0.140 HD
ATOM    160  H   SGN d 302      83.868  18.771 103.060  0.00  0.00     0.089 H 
ATOM    161  H   SGN d 302      85.161  17.736 105.594  0.00  0.00     0.076 H 
ENDROOT
TORSDOF 50
ENDMDL
MODEL 61
REMARK VINA RESULT:      -9.5      5.611      8.869
REMARK  0 active torsions:
REMARK  status: ('A' for Active; 'I' for Inactive)
REMARK       I    between atoms: S_1  and  O2_2 
REMARK       I    between atoms: O2_2  and  C2_99 
REMARK       I    between atoms: C3_3  and  O3_50 
REMARK       I    between atoms: C2_5  and  O2_57 
REMARK       I    between atoms: O1S_6  and  S1_33 
REMARK       I    between atoms: O3_7  and  C3_52 
REMARK       I    between atoms: O6_9  and  C6_34 
REMARK       I    between atoms: O6_9  and  S2_17 
REMARK       I    between atoms: C2_13  and  N_73 
REMARK       I    between atoms: S_16  and  O2_57 
REMARK       I    between atoms: C1_20  and  O4_43 
REMARK       I    between atoms: C6_21  and  C5_67 
REMARK       I    between atoms: C6_21  and  O6_75 
REMARK       I    between atoms: N_22  and  C2_66 
REMARK       I    between atoms: N_22  and  S1_69 
REMARK       I    between atoms: S2_23  and  O6_75 
REMARK       I    between atoms: C1_24  and  O4_78 
REMARK       I    between atoms: C4_25  and  O4_78 
REMARK       I    between atoms: O3_26  and  C3_81 
REMARK       I    between atoms: O1S_27  and  S1_60 
REMARK       I    between atoms: O3S_28  and  S1_69 
REMARK       I    between atoms: O3_29  and  C3_87 
REMARK       I    between atoms: C6_30  and  C5_80 
REMARK       I    between atoms: O2S_32  and  S1_60 
REMARK       I    between atoms: S1_33  and  N_73 
REMARK       I    between atoms: S1_33  and  O2S_94 
REMARK       I    between atoms: S1_33  and  O3S_35 
REMARK       I    between atoms: C6_34  and  C5_38 
REMARK       I    between atoms: C2_36  and  O2_93 
REMARK       I    between atoms: O3_37  and  C3_65 
REMARK       I    between atoms: C1_40  and  O1_105 
REMARK       I    between atoms: O2S_41  and  S1_69 
REMARK       I    between atoms: C5_42  and  C6_54 
REMARK       I    between atoms: O4_43  and  C4_92 
REMARK       I    between atoms: O1_44  and  C1_62 
REMARK       I    between atoms: O1_44  and  C4_83 
REMARK       I    between atoms: C1_45  and  O4_102 
REMARK       I    between atoms: C4_46  and  O1_105 
REMARK       I    between atoms: O3S_47  and  S1_60 
REMARK       I    between atoms: C5_53  and  C6_61 
REMARK       I    between atoms: C6_54  and  O6_98 
REMARK       I    between atoms: O3_56  and  C3_84 
REMARK       I    between atoms: C5_59  and  C6_63 
REMARK       I    between atoms: S1_60  and  N_86 
REMARK       I    between atoms: S1_69  and  O1S_91 
REMARK       I    between atoms: O1_70  and  C1_96 
REMARK       I    between atoms: S_82  and  O2_93 
REMARK       I    between atoms: N_86  and  C2_90 
REMARK       I    between atoms: S2_95  and  O6_98 
REMARK       I    between atoms: C4_100  and  O4_102 
ROOT
ATOM      1  S   IDS d 303      82.531  21.604 102.639  0.00  0.00     0.252 S 
ATOM      2  O2  IDS d 303      82.721  22.368 101.073  0.00  0.00    -0.244 OA
ATOM      3  O61 IDS d 303      85.402  24.849  96.678  0.00  0.00    -0.646 OA
ATOM      4  O3  IDS d 303      82.338  25.774 100.116  0.00  0.00    -0.390 OA
ATOM      5  O3S IDS d 303      81.545  22.372 103.358  0.00  0.00    -0.572 OA
ATOM      6  C1  IDS d 303      84.588  23.869 101.183  0.00  0.00     0.161 C 
ATOM      7  C4  IDS d 303      83.033  24.029  98.586  0.00  0.00     0.103 C 
ATOM      8  O2S IDS d 303      82.109  20.246 102.432  0.00  0.00    -0.572 OA
ATOM      9  C3  IDS d 303      82.368  24.407  99.929  0.00  0.00     0.094 C 
ATOM     10  C5  IDS d 303      84.548  24.119  98.753  0.00  0.00     0.152 C 
ATOM     11  C6  IDS d 303      85.272  23.901  97.455  0.00  0.00     0.206 C 
ATOM     12  O62 IDS d 303      85.881  22.819  97.344  0.00  0.00    -0.646 OA
ATOM     13  O5  IDS d 303      85.163  23.592  99.914  0.00  0.00    -0.340 OA
ATOM     14  C2  IDS d 303      83.053  23.718 101.121  0.00  0.00     0.134 C 
ATOM     15  O1S IDS d 303      83.799  21.639 103.291  0.00  0.00    -0.572 OA
ATOM     16  H   IDS d 303      81.904  26.195  99.358  0.00  0.00     0.210 HD
ATOM     17  H   IDS d 303      85.013  23.151 101.852  0.00  0.00     0.133 H 
ATOM     18  H   IDS d 303      82.663  24.686  97.825  0.00  0.00     0.092 H 
ATOM     19  H   IDS d 303      81.358  24.055  99.879  0.00  0.00     0.091 H 
ATOM     20  H   IDS d 303      84.683  25.144  99.027  0.00  0.00     0.104 H 
ATOM     21  H   IDS d 303      82.697  24.205 102.005  0.00  0.00     0.097 H 
ATOM     22  C3  SGN d 306      87.374  30.426 110.045  0.00  0.00     0.083 C 
ATOM     23  O1S SGN d 306      88.598  27.660 112.147  0.00  0.00    -0.296 OA
ATOM     24  O4S SGN d 306      80.325  31.265 108.350  0.00  0.00    -0.572 OA
ATOM     25  O5S SGN d 306      81.612  30.186 106.686  0.00  0.00    -0.572 OA
ATOM     26  C2  SGN d 306      86.679  29.952 111.312  0.00  0.00     0.081 C 
ATOM     27  O5  SGN d 306      84.608  30.945 110.534  0.00  0.00    -0.350 OA
ATOM     28  C6  SGN d 306      84.168  31.497 108.213  0.00  0.00     0.067 C 
ATOM     29  S2  SGN d 306      81.555  31.283 107.610  0.00  0.00     0.251 S 
ATOM     30  S1  SGN d 306      88.219  28.630 113.144  0.00  0.00     0.156 S 
ATOM     31  O3S SGN d 306      89.347  28.948 113.983  0.00  0.00    -0.296 OA
ATOM     32  O4  SGN d 306      87.011  30.878 107.699  0.00  0.00    -0.348 OA
ATOM     33  O3  SGN d 306      88.447  29.548 109.759  0.00  0.00    -0.391 OA
ATOM     34  O6S SGN d 306      81.704  32.528 106.900  0.00  0.00    -0.572 OA
ATOM     35  C5  SGN d 306      85.228  31.409 109.297  0.00  0.00     0.091 C 
ATOM     36  O1  SGN d 306      85.960  32.121 112.098  0.00  0.00    -0.369 OA
ATOM     37  N   SGN d 306      87.652  30.097 112.358  0.00  0.00    -0.210 NA
ATOM     38  O6  SGN d 306      82.907  31.117 108.718  0.00  0.00    -0.254 OA
ATOM     39  C4  SGN d 306      86.355  30.431 108.900  0.00  0.00     0.095 C 
ATOM     40  O2S SGN d 306      87.134  28.138 113.936  0.00  0.00    -0.296 OA
ATOM     41  C1  SGN d 306      85.484  30.846 111.681  0.00  0.00     0.147 C 
ATOM     42  H   SGN d 306      87.762  31.415 110.168  0.00  0.00     0.089 H 
ATOM     43  H   SGN d 306      87.832  27.453 111.589  0.00  0.00     0.231 HD
ATOM     44  H   SGN d 306      86.318  28.953 111.176  0.00  0.00     0.076 H 
ATOM     45  H   SGN d 306      84.435  30.846 107.407  0.00  0.00     0.080 H 
ATOM     46  H   SGN d 306      84.111  32.508 107.869  0.00  0.00     0.080 H 
ATOM     47  H   SGN d 306      90.075  29.280 113.434  0.00  0.00     0.231 HD
ATOM     48  H   SGN d 306      88.106  28.647 109.645  0.00  0.00     0.210 HD
ATOM     49  H   SGN d 306      85.656  32.381 109.431  0.00  0.00     0.090 H 
ATOM     50  H   SGN d 306      86.542  32.013 112.867  0.00  0.00     0.212 HD
ATOM     51  H   SGN d 306      87.241  30.691 113.078  0.00  0.00     0.140 HD
ATOM     52  H   SGN d 306      85.950  29.457 108.725  0.00  0.00     0.091 H 
ATOM     53  H   SGN d 306      86.383  27.928 113.359  0.00  0.00     0.231 HD
ATOM     54  H   SGN d 306      84.928  30.425 112.493  0.00  0.00     0.131 H 
ATOM     55  C2  UAP d 301      84.735  18.672  93.203  0.00  0.00     0.132 C 
ATOM     56  S   UAP d 301      84.614  18.798  90.586  0.00  0.00     0.252 S 
ATOM     57  O1S UAP d 301      85.056  17.870  89.619  0.00  0.00    -0.572 OA
ATOM     58  C1  UAP d 301      83.561  18.666  94.159  0.00  0.00     0.161 C 
ATOM     59  O61 UAP d 301      85.502  14.806  96.386  0.00  0.00    -0.646 OA
ATOM     60  C5  UAP d 301      84.611  16.728  95.245  0.00  0.00     0.127 C 
ATOM     61  O3  UAP d 301      86.780  19.278  94.210  0.00  0.00    -0.393 OA
ATOM     62  O2  UAP d 301      84.414  17.925  92.079  0.00  0.00    -0.244 OA
ATOM     63  O5  UAP d 301      83.444  17.434  94.862  0.00  0.00    -0.343 OA
ATOM     64  C6  UAP d 301      84.484  15.459  96.080  0.00  0.00     0.203 C 
ATOM     65  O62 UAP d 301      83.323  15.121  96.395  0.00  0.00    -0.646 OA
ATOM     66  O3S UAP d 301      83.320  19.315  90.261  0.00  0.00    -0.572 OA
ATOM     67  O2S UAP d 301      85.594  19.842  90.756  0.00  0.00    -0.572 OA
ATOM     68  C3  UAP d 301      86.098  18.172  93.707  0.00  0.00     0.069 C 
ATOM     69  C4  UAP d 301      86.033  17.053  94.784  0.00  0.00    -0.005 C 
ATOM     70  H   UAP d 301      84.880  19.717  93.022  0.00  0.00     0.097 H 
ATOM     71  H   UAP d 301      82.633  18.776  93.637  0.00  0.00     0.133 H 
ATOM     72  H   UAP d 301      84.420  17.762  95.439  0.00  0.00     0.100 H 
ATOM     73  H   UAP d 301      86.817  19.971  93.533  0.00  0.00     0.210 HD
ATOM     74  H   UAP d 301      86.599  17.716  92.879  0.00  0.00     0.087 H 
ATOM     75  H   UAP d 301      86.468  16.165  94.375  0.00  0.00     0.041 H 
ATOM     76  H   UAP d 301      86.566  17.411  95.640  0.00  0.00     0.041 H 
ATOM     77  O5  IDS d 305      86.824  28.835 106.424  0.00  0.00    -0.340 OA
ATOM     78  O62 IDS d 305      87.215  26.090 106.479  0.00  0.00    -0.646 OA
ATOM     79  C1  IDS d 305      86.686  30.257 106.447  0.00  0.00     0.161 C 
ATOM     80  O3  IDS d 305      89.831  30.722 105.172  0.00  0.00    -0.390 OA
ATOM     81  C6  IDS d 305      88.235  26.766 106.210  0.00  0.00     0.206 C 
ATOM     82  C2  IDS d 305      87.483  30.961 105.317  0.00  0.00     0.134 C 
ATOM     83  C5  IDS d 305      88.016  28.257 105.955  0.00  0.00     0.152 C 
ATOM     84  C3  IDS d 305      88.664  30.271 104.609  0.00  0.00     0.094 C 
ATOM     85  S   IDS d 305      85.417  31.186 103.516  0.00  0.00     0.252 S 
ATOM     86  C4  IDS d 305      88.614  28.731 104.638  0.00  0.00     0.103 C 
ATOM     87  O3S IDS d 305      84.811  32.289 102.865  0.00  0.00    -0.572 OA
ATOM     88  O1S IDS d 305      84.481  30.557 104.377  0.00  0.00    -0.572 OA
ATOM     89  O2  IDS d 305      86.744  31.846 104.485  0.00  0.00    -0.244 OA
ATOM     90  O61 IDS d 305      89.328  26.256 105.910  0.00  0.00    -0.646 OA
ATOM     91  O2S IDS d 305      85.936  30.260 102.577  0.00  0.00    -0.572 OA
ATOM     92  H   IDS d 305      85.637  30.394 106.287  0.00  0.00     0.133 H 
ATOM     93  H   IDS d 305      89.848  31.692 105.147  0.00  0.00     0.210 HD
ATOM     94  H   IDS d 305      88.054  31.560 105.996  0.00  0.00     0.097 H 
ATOM     95  H   IDS d 305      88.633  28.757 106.674  0.00  0.00     0.104 H 
ATOM     96  H   IDS d 305      88.604  30.529 103.573  0.00  0.00     0.091 H 
ATOM     97  H   IDS d 305      89.613  28.365 104.524  0.00  0.00     0.092 H 
ATOM     98  O6  SGN d 304      87.694  23.338 102.510  0.00  0.00    -0.254 OA
ATOM     99  S2  SGN d 304      87.860  21.609 102.709  0.00  0.00     0.251 S 
ATOM    100  O5S SGN d 304      88.417  21.079 101.492  0.00  0.00    -0.572 OA
ATOM    101  N   SGN d 304      87.617  28.995 101.001  0.00  0.00    -0.210 NA
ATOM    102  O3S SGN d 304      89.427  29.457  99.189  0.00  0.00    -0.296 OA
ATOM    103  C6  SGN d 304      86.987  24.060 103.515  0.00  0.00     0.067 C 
ATOM    104  O3  SGN d 304      85.684  27.243  99.984  0.00  0.00    -0.391 OA
ATOM    105  C5  SGN d 304      86.917  25.495 103.054  0.00  0.00     0.091 C 
ATOM    106  O2S SGN d 304      88.677  31.263 100.466  0.00  0.00    -0.296 OA
ATOM    107  O1  SGN d 304      87.786  28.236 103.578  0.00  0.00    -0.348 OA
ATOM    108  O4S SGN d 304      88.736  21.348 103.810  0.00  0.00    -0.572 OA
ATOM    109  C1  SGN d 304      88.396  27.382 102.607  0.00  0.00     0.150 C 
ATOM    110  C3  SGN d 304      86.262  27.078 101.265  0.00  0.00     0.083 C 
ATOM    111  C2  SGN d 304      87.711  27.575 101.232  0.00  0.00     0.081 C 
ATOM    112  S1  SGN d 304      89.045  29.888 100.496  0.00  0.00     0.156 S 
ATOM    113  O6S SGN d 304      86.548  21.050 102.944  0.00  0.00    -0.572 OA
ATOM    114  O1S SGN d 304      90.128  29.678 101.413  0.00  0.00    -0.296 OA
ATOM    115  O5  SGN d 304      88.277  25.998 102.983  0.00  0.00    -0.349 OA
ATOM    116  C4  SGN d 304      86.270  25.605 101.658  0.00  0.00     0.095 C 
ATOM    117  O4  SGN d 304      84.911  25.146 101.702  0.00  0.00    -0.348 OA
ATOM    118  H   SGN d 304      87.297  29.417 101.872  0.00  0.00     0.140 HD
ATOM    119  H   SGN d 304      88.692  29.602  98.573  0.00  0.00     0.231 HD
ATOM    120  H   SGN d 304      87.508  23.998 104.448  0.00  0.00     0.080 H 
ATOM    121  H   SGN d 304      86.007  23.656 103.659  0.00  0.00     0.080 H 
ATOM    122  H   SGN d 304      85.686  28.184  99.748  0.00  0.00     0.210 HD
ATOM    123  H   SGN d 304      86.321  26.059 103.740  0.00  0.00     0.090 H 
ATOM    124  H   SGN d 304      87.945  31.387  99.842  0.00  0.00     0.231 HD
ATOM    125  H   SGN d 304      89.432  27.643 102.549  0.00  0.00     0.131 H 
ATOM    126  H   SGN d 304      85.687  27.635 101.974  0.00  0.00     0.089 H 
ATOM    127  H   SGN d 304      88.274  27.046 100.492  0.00  0.00     0.076 H 
ATOM    128  H   SGN d 304      90.367  28.738 101.422  0.00  0.00     0.231 HD
ATOM    129  H   SGN d 304      86.820  25.011 100.958  0.00  0.00     0.091 H 
ATOM    130  O5S SGN d 302      81.540  24.718  91.557  0.00  0.00    -0.572 OA
ATOM    131  C4  SGN d 302      82.719  20.420  95.574  0.00  0.00     0.095 C 
ATOM    132  O1S SGN d 302      80.006  18.502  99.928  0.00  0.00    -0.296 OA
ATOM    133  O3  SGN d 302      82.327  18.671  97.162  0.00  0.00    -0.391 OA
ATOM    134  O2S SGN d 302      78.806  20.081  98.643  0.00  0.00    -0.296 OA
ATOM    135  C1  SGN d 302      81.636  22.351  97.439  0.00  0.00     0.150 C 
ATOM    136  C5  SGN d 302      82.989  21.912  95.447  0.00  0.00     0.091 C 
ATOM    137  O3S SGN d 302      79.450  20.624 100.831  0.00  0.00    -0.296 OA
ATOM    138  O5  SGN d 302      81.885  22.646  96.039  0.00  0.00    -0.349 OA
ATOM    139  C6  SGN d 302      83.160  22.274  93.978  0.00  0.00     0.067 C 
ATOM    140  S1  SGN d 302      79.817  19.902  99.639  0.00  0.00     0.156 S 
ATOM    141  O4S SGN d 302      83.168  25.536  93.062  0.00  0.00    -0.572 OA
ATOM    142  O6S SGN d 302      83.701  23.802  91.540  0.00  0.00    -0.572 OA
ATOM    143  O4  SGN d 302      83.808  19.727  95.037  0.00  0.00    -0.348 OA
ATOM    144  N   SGN d 302      81.323  20.560  98.985  0.00  0.00    -0.210 NA
ATOM    145  C3  SGN d 302      82.575  20.060  97.039  0.00  0.00     0.083 C 
ATOM    146  C2  SGN d 302      81.389  20.846  97.572  0.00  0.00     0.081 C 
ATOM    147  S2  SGN d 302      82.674  24.378  92.373  0.00  0.00     0.251 S 
ATOM    148  O6  SGN d 302      82.166  23.179  93.551  0.00  0.00    -0.254 OA
ATOM    149  O1  SGN d 302      82.757  22.661  98.266  0.00  0.00    -0.348 OA
ATOM    150  H   SGN d 302      81.821  20.161  95.053  0.00  0.00     0.091 H 
ATOM    151  H   SGN d 302      79.184  18.132 100.288  0.00  0.00     0.231 HD
ATOM    152  H   SGN d 302      83.087  18.174  96.821  0.00  0.00     0.210 HD
ATOM    153  H   SGN d 302      77.963  19.728  98.970  0.00  0.00     0.231 HD
ATOM    154  H   SGN d 302      80.800  22.942  97.752  0.00  0.00     0.131 H 
ATOM    155  H   SGN d 302      83.889  22.171  95.963  0.00  0.00     0.090 H 
ATOM    156  H   SGN d 302      78.624  20.261 101.188  0.00  0.00     0.231 HD
ATOM    157  H   SGN d 302      83.095  21.382  93.390  0.00  0.00     0.080 H 
ATOM    158  H   SGN d 302      84.115  22.741  93.856  0.00  0.00     0.080 H 
ATOM    159  H   SGN d 302      82.061  19.888  99.192  0.00  0.00     0.140 HD
ATOM    160  H   SGN d 302      83.465  20.293  97.585  0.00  0.00     0.089 H 
ATOM    161  H   SGN d 302      80.501  20.580  97.036  0.00  0.00     0.076 H 
ENDROOT
TORSDOF 50
ENDMDL
MODEL 62
REMARK VINA RESULT:      -9.5      3.382      5.420
REMARK  0 active torsions:
REMARK  status: ('A' for Active; 'I' for Inactive)
REMARK       I    between atoms: S_1  and  O2_2 
REMARK       I    between atoms: O2_2  and  C2_99 
REMARK       I    between atoms: C3_3  and  O3_50 
REMARK       I    between atoms: C2_5  and  O2_57 
REMARK       I    between atoms: O1S_6  and  S1_33 
REMARK       I    between atoms: O3_7  and  C3_52 
REMARK       I    between atoms: O6_9  and  C6_34 
REMARK       I    between atoms: O6_9  and  S2_17 
REMARK       I    between atoms: C2_13  and  N_73 
REMARK       I    between atoms: S_16  and  O2_57 
REMARK       I    between atoms: C1_20  and  O4_43 
REMARK       I    between atoms: C6_21  and  C5_67 
REMARK       I    between atoms: C6_21  and  O6_75 
REMARK       I    between atoms: N_22  and  C2_66 
REMARK       I    between atoms: N_22  and  S1_69 
REMARK       I    between atoms: S2_23  and  O6_75 
REMARK       I    between atoms: C1_24  and  O4_78 
REMARK       I    between atoms: C4_25  and  O4_78 
REMARK       I    between atoms: O3_26  and  C3_81 
REMARK       I    between atoms: O1S_27  and  S1_60 
REMARK       I    between atoms: O3S_28  and  S1_69 
REMARK       I    between atoms: O3_29  and  C3_87 
REMARK       I    between atoms: C6_30  and  C5_80 
REMARK       I    between atoms: O2S_32  and  S1_60 
REMARK       I    between atoms: S1_33  and  N_73 
REMARK       I    between atoms: S1_33  and  O2S_94 
REMARK       I    between atoms: S1_33  and  O3S_35 
REMARK       I    between atoms: C6_34  and  C5_38 
REMARK       I    between atoms: C2_36  and  O2_93 
REMARK       I    between atoms: O3_37  and  C3_65 
REMARK       I    between atoms: C1_40  and  O1_105 
REMARK       I    between atoms: O2S_41  and  S1_69 
REMARK       I    between atoms: C5_42  and  C6_54 
REMARK       I    between atoms: O4_43  and  C4_92 
REMARK       I    between atoms: O1_44  and  C1_62 
REMARK       I    between atoms: O1_44  and  C4_83 
REMARK       I    between atoms: C1_45  and  O4_102 
REMARK       I    between atoms: C4_46  and  O1_105 
REMARK       I    between atoms: O3S_47  and  S1_60 
REMARK       I    between atoms: C5_53  and  C6_61 
REMARK       I    between atoms: C6_54  and  O6_98 
REMARK       I    between atoms: O3_56  and  C3_84 
REMARK       I    between atoms: C5_59  and  C6_63 
REMARK       I    between atoms: S1_60  and  N_86 
REMARK       I    between atoms: S1_69  and  O1S_91 
REMARK       I    between atoms: O1_70  and  C1_96 
REMARK       I    between atoms: S_82  and  O2_93 
REMARK       I    between atoms: N_86  and  C2_90 
REMARK       I    between atoms: S2_95  and  O6_98 
REMARK       I    between atoms: C4_100  and  O4_102 
ROOT
ATOM      1  S   IDS d 303      80.818  19.116 105.625  0.00  0.00     0.252 S 
ATOM      2  O2  IDS d 303      80.295  19.042 103.953  0.00  0.00    -0.244 OA
ATOM      3  O61 IDS d 303      80.711  18.332  98.299  0.00  0.00    -0.646 OA
ATOM      4  O3  IDS d 303      79.924  21.634 101.544  0.00  0.00    -0.390 OA
ATOM      5  O3S IDS d 303      80.431  20.414 106.123  0.00  0.00    -0.572 OA
ATOM      6  C1  IDS d 303      82.141  19.662 102.553  0.00  0.00     0.161 C 
ATOM      7  C4  IDS d 303      79.531  19.294 101.056  0.00  0.00     0.103 C 
ATOM      8  O2S IDS d 303      80.180  18.051 106.347  0.00  0.00    -0.572 OA
ATOM      9  C3  IDS d 303      79.681  20.405 102.121  0.00  0.00     0.094 C 
ATOM     10  C5  IDS d 303      80.924  18.886 100.582  0.00  0.00     0.152 C 
ATOM     11  C6  IDS d 303      80.867  17.906  99.445  0.00  0.00     0.206 C 
ATOM     12  O62 IDS d 303      81.195  16.735  99.716  0.00  0.00    -0.646 OA
ATOM     13  O5  IDS d 303      81.964  18.698 101.524  0.00  0.00    -0.340 OA
ATOM     14  C2  IDS d 303      80.776  20.069 103.148  0.00  0.00     0.134 C 
ATOM     15  O1S IDS d 303      82.234  18.952 105.641  0.00  0.00    -0.572 OA
ATOM     16  H   IDS d 303      79.227  21.833 100.900  0.00  0.00     0.210 HD
ATOM     17  H   IDS d 303      82.748  19.180 103.291  0.00  0.00     0.133 H 
ATOM     18  H   IDS d 303      78.917  19.665 100.261  0.00  0.00     0.092 H 
ATOM     19  H   IDS d 303      78.747  20.458 102.640  0.00  0.00     0.091 H 
ATOM     20  H   IDS d 303      81.307  19.806 100.194  0.00  0.00     0.104 H 
ATOM     21  H   IDS d 303      80.975  20.970 103.691  0.00  0.00     0.097 H 
ATOM     22  C3  SGN d 306      89.796  27.766 104.787  0.00  0.00     0.083 C 
ATOM     23  O1S SGN d 306      91.542  25.874 107.420  0.00  0.00    -0.296 OA
ATOM     24  O4S SGN d 306      83.018  30.341 105.623  0.00  0.00    -0.572 OA
ATOM     25  O5S SGN d 306      83.150  28.286 104.460  0.00  0.00    -0.572 OA
ATOM     26  C2  SGN d 306      89.773  28.145 106.260  0.00  0.00     0.081 C 
ATOM     27  O5  SGN d 306      87.738  29.409 105.894  0.00  0.00    -0.350 OA
ATOM     28  C6  SGN d 306      86.271  29.077 103.990  0.00  0.00     0.067 C 
ATOM     29  S2  SGN d 306      83.704  29.603 104.600  0.00  0.00     0.251 S 
ATOM     30  S1  SGN d 306      91.840  27.232 107.801  0.00  0.00     0.156 S 
ATOM     31  O3S SGN d 306      93.267  27.431 107.858  0.00  0.00    -0.296 OA
ATOM     32  O4  SGN d 306      88.370  27.312 102.891  0.00  0.00    -0.348 OA
ATOM     33  O3  SGN d 306      90.460  26.524 104.647  0.00  0.00    -0.391 OA
ATOM     34  O6S SGN d 306      83.635  30.297 103.338  0.00  0.00    -0.572 OA
ATOM     35  C5  SGN d 306      87.710  29.063 104.476  0.00  0.00     0.091 C 
ATOM     36  O1  SGN d 306      89.828  30.542 105.964  0.00  0.00    -0.369 OA
ATOM     37  N   SGN d 306      91.149  28.341 106.625  0.00  0.00    -0.210 NA
ATOM     38  O6  SGN d 306      85.394  29.427 105.039  0.00  0.00    -0.254 OA
ATOM     39  C4  SGN d 306      88.352  27.672 104.284  0.00  0.00     0.095 C 
ATOM     40  O2S SGN d 306      91.244  27.541 109.064  0.00  0.00    -0.296 OA
ATOM     41  C1  SGN d 306      89.048  29.479 106.501  0.00  0.00     0.147 C 
ATOM     42  H   SGN d 306      90.316  28.502 104.211  0.00  0.00     0.089 H 
ATOM     43  H   SGN d 306      90.581  25.751 107.386  0.00  0.00     0.231 HD
ATOM     44  H   SGN d 306      89.269  27.386 106.822  0.00  0.00     0.076 H 
ATOM     45  H   SGN d 306      86.014  28.105 103.626  0.00  0.00     0.080 H 
ATOM     46  H   SGN d 306      86.179  29.802 103.208  0.00  0.00     0.080 H 
ATOM     47  H   SGN d 306      93.658  27.218 106.997  0.00  0.00     0.231 HD
ATOM     48  H   SGN d 306      89.996  25.849 105.165  0.00  0.00     0.210 HD
ATOM     49  H   SGN d 306      88.267  29.774 103.903  0.00  0.00     0.090 H 
ATOM     50  H   SGN d 306      90.697  30.556 106.395  0.00  0.00     0.212 HD
ATOM     51  H   SGN d 306      91.233  29.283 107.007  0.00  0.00     0.140 HD
ATOM     52  H   SGN d 306      87.793  26.933 104.819  0.00  0.00     0.091 H 
ATOM     53  H   SGN d 306      90.285  27.403 109.010  0.00  0.00     0.231 HD
ATOM     54  H   SGN d 306      88.925  29.664 107.547  0.00  0.00     0.131 H 
ATOM     55  C2  UAP d 301      77.613  11.985  99.193  0.00  0.00     0.132 C 
ATOM     56  S   UAP d 301      76.217  11.059  97.176  0.00  0.00     0.252 S 
ATOM     57  O1S UAP d 301      75.994   9.725  96.773  0.00  0.00    -0.572 OA
ATOM     58  C1  UAP d 301      77.085  12.801 100.354  0.00  0.00     0.161 C 
ATOM     59  O61 UAP d 301      79.368   9.783 103.405  0.00  0.00    -0.646 OA
ATOM     60  C5  UAP d 301      78.280  11.245 101.834  0.00  0.00     0.127 C 
ATOM     61  O3  UAP d 301      79.946  12.160  98.890  0.00  0.00    -0.393 OA
ATOM     62  O2  UAP d 301      76.681  11.016  98.853  0.00  0.00    -0.244 OA
ATOM     63  O5  UAP d 301      77.179  12.103 101.591  0.00  0.00    -0.343 OA
ATOM     64  C6  UAP d 301      78.427  10.575 103.195  0.00  0.00     0.203 C 
ATOM     65  O62 UAP d 301      77.546  10.845 104.040  0.00  0.00    -0.646 OA
ATOM     66  O3S UAP d 301      75.013  11.829  97.124  0.00  0.00    -0.572 OA
ATOM     67  O2S UAP d 301      77.275  11.645  96.389  0.00  0.00    -0.572 OA
ATOM     68  C3  UAP d 301      78.969  11.278  99.347  0.00  0.00     0.069 C 
ATOM     69  C4  UAP d 301      79.309  10.809 100.789  0.00  0.00    -0.005 C 
ATOM     70  H   UAP d 301      77.780  12.731  98.444  0.00  0.00     0.097 H 
ATOM     71  H   UAP d 301      76.043  13.017 100.236  0.00  0.00     0.133 H 
ATOM     72  H   UAP d 301      78.345  12.258 101.499  0.00  0.00     0.100 H 
ATOM     73  H   UAP d 301      79.727  12.448  97.990  0.00  0.00     0.210 HD
ATOM     74  H   UAP d 301      78.925  10.374  98.776  0.00  0.00     0.087 H 
ATOM     75  H   UAP d 301      79.363   9.740 100.793  0.00  0.00     0.041 H 
ATOM     76  H   UAP d 301      80.239  11.265 101.056  0.00  0.00     0.041 H 
ATOM     77  O5  IDS d 305      87.311  25.149 103.078  0.00  0.00    -0.340 OA
ATOM     78  O62 IDS d 305      87.324  22.736 104.444  0.00  0.00    -0.646 OA
ATOM     79  C1  IDS d 305      87.386  26.398 102.387  0.00  0.00     0.161 C 
ATOM     80  O3  IDS d 305      89.502  25.116 100.017  0.00  0.00    -0.390 OA
ATOM     81  C6  IDS d 305      88.148  22.818 103.505  0.00  0.00     0.206 C 
ATOM     82  C2  IDS d 305      87.593  26.231 100.858  0.00  0.00     0.134 C 
ATOM     83  C5  IDS d 305      88.024  24.040 102.594  0.00  0.00     0.152 C 
ATOM     84  C3  IDS d 305      88.163  24.933 100.256  0.00  0.00     0.094 C 
ATOM     85  S   IDS d 305      84.952  26.432 100.119  0.00  0.00     0.252 S 
ATOM     86  C4  IDS d 305      87.938  23.676 101.119  0.00  0.00     0.103 C 
ATOM     87  O3S IDS d 305      84.248  27.307  99.255  0.00  0.00    -0.572 OA
ATOM     88  O1S IDS d 305      84.501  26.601 101.454  0.00  0.00    -0.572 OA
ATOM     89  O2  IDS d 305      86.658  26.898 100.021  0.00  0.00    -0.244 OA
ATOM     90  O61 IDS d 305      88.870  21.871 103.150  0.00  0.00    -0.646 OA
ATOM     91  O2S IDS d 305      84.809  25.083  99.709  0.00  0.00    -0.572 OA
ATOM     92  H   IDS d 305      86.425  26.829 102.575  0.00  0.00     0.133 H 
ATOM     93  H   IDS d 305      89.628  25.910  99.473  0.00  0.00     0.210 HD
ATOM     94  H   IDS d 305      88.499  26.802 100.847  0.00  0.00     0.097 H 
ATOM     95  H   IDS d 305      88.975  24.528 102.650  0.00  0.00     0.104 H 
ATOM     96  H   IDS d 305      87.627  24.745  99.349  0.00  0.00     0.091 H 
ATOM     97  H   IDS d 305      88.690  22.960 100.862  0.00  0.00     0.092 H 
ATOM     98  O6  SGN d 304      85.397  18.630 102.714  0.00  0.00    -0.254 OA
ATOM     99  S2  SGN d 304      85.418  17.207 103.728  0.00  0.00     0.251 S 
ATOM    100  O5S SGN d 304      85.219  16.061 102.881  0.00  0.00    -0.572 OA
ATOM    101  N   SGN d 304      85.299  22.765  98.569  0.00  0.00    -0.210 NA
ATOM    102  O3S SGN d 304      86.003  21.747  96.280  0.00  0.00    -0.296 OA
ATOM    103  C6  SGN d 304      85.386  19.905 103.352  0.00  0.00     0.067 C 
ATOM    104  O3  SGN d 304      82.912  21.588  99.436  0.00  0.00    -0.391 OA
ATOM    105  C5  SGN d 304      85.279  20.940 102.260  0.00  0.00     0.091 C 
ATOM    106  O2S SGN d 304      86.229  24.054  96.563  0.00  0.00    -0.296 OA
ATOM    107  O1  SGN d 304      86.635  23.129 100.878  0.00  0.00    -0.348 OA
ATOM    108  O4S SGN d 304      86.686  17.122 104.388  0.00  0.00    -0.572 OA
ATOM    109  C1  SGN d 304      86.563  21.794 100.371  0.00  0.00     0.150 C 
ATOM    110  C3  SGN d 304      84.026  21.766 100.290  0.00  0.00     0.083 C 
ATOM    111  C2  SGN d 304      85.314  21.639  99.470  0.00  0.00     0.081 C 
ATOM    112  S1  SGN d 304      86.384  22.784  97.185  0.00  0.00     0.156 S 
ATOM    113  O6S SGN d 304      84.341  17.315 104.686  0.00  0.00    -0.572 OA
ATOM    114  O1S SGN d 304      87.744  22.590  97.601  0.00  0.00    -0.296 OA
ATOM    115  O5  SGN d 304      86.473  20.835 101.440  0.00  0.00    -0.349 OA
ATOM    116  C4  SGN d 304      84.041  20.694 101.373  0.00  0.00     0.095 C 
ATOM    117  O4  SGN d 304      82.840  20.824 102.149  0.00  0.00    -0.348 OA
ATOM    118  H   SGN d 304      85.514  23.593  99.125  0.00  0.00     0.140 HD
ATOM    119  H   SGN d 304      85.084  21.884  96.001  0.00  0.00     0.231 HD
ATOM    120  H   SGN d 304      86.291  20.047 103.906  0.00  0.00     0.080 H 
ATOM    121  H   SGN d 304      84.568  19.984 104.036  0.00  0.00     0.080 H 
ATOM    122  H   SGN d 304      82.915  22.277  98.753  0.00  0.00     0.210 HD
ATOM    123  H   SGN d 304      85.184  21.911 102.700  0.00  0.00     0.090 H 
ATOM    124  H   SGN d 304      85.306  24.169  96.288  0.00  0.00     0.231 HD
ATOM    125  H   SGN d 304      87.456  21.610  99.809  0.00  0.00     0.131 H 
ATOM    126  H   SGN d 304      83.958  22.732 100.743  0.00  0.00     0.089 H 
ATOM    127  H   SGN d 304      85.358  20.688  98.983  0.00  0.00     0.076 H 
ATOM    128  H   SGN d 304      87.832  21.721  98.023  0.00  0.00     0.231 HD
ATOM    129  H   SGN d 304      84.086  19.710 100.956  0.00  0.00     0.091 H 
ATOM    130  O5S SGN d 302      74.826  17.525  95.876  0.00  0.00    -0.572 OA
ATOM    131  C4  SGN d 302      77.295  15.155 100.803  0.00  0.00     0.095 C 
ATOM    132  O1S SGN d 302      76.903  16.331 106.139  0.00  0.00    -0.296 OA
ATOM    133  O3  SGN d 302      77.530  14.489 103.092  0.00  0.00    -0.391 OA
ATOM    134  O2S SGN d 302      75.434  17.559 104.753  0.00  0.00    -0.296 OA
ATOM    135  C1  SGN d 302      77.546  17.930 101.589  0.00  0.00     0.150 C 
ATOM    136  C5  SGN d 302      77.654  16.251  99.810  0.00  0.00     0.091 C 
ATOM    137  O3S SGN d 302      77.150  18.678 105.896  0.00  0.00    -0.296 OA
ATOM    138  O5  SGN d 302      77.097  17.510 100.273  0.00  0.00    -0.349 OA
ATOM    139  C6  SGN d 302      77.112  15.888  98.435  0.00  0.00     0.067 C 
ATOM    140  S1  SGN d 302      76.776  17.450 105.239  0.00  0.00     0.156 S 
ATOM    141  O4S SGN d 302      77.077  18.234  95.991  0.00  0.00    -0.572 OA
ATOM    142  O6S SGN d 302      76.551  15.965  95.563  0.00  0.00    -0.572 OA
ATOM    143  O4  SGN d 302      77.871  13.958 100.366  0.00  0.00    -0.348 OA
ATOM    144  N   SGN d 302      77.823  17.183 103.839  0.00  0.00    -0.210 NA
ATOM    145  C3  SGN d 302      77.859  15.508 102.165  0.00  0.00     0.083 C 
ATOM    146  C2  SGN d 302      77.209  16.817 102.585  0.00  0.00     0.081 C 
ATOM    147  S2  SGN d 302      76.161  17.163  96.265  0.00  0.00     0.251 S 
ATOM    148  O6  SGN d 302      76.162  16.831  97.990  0.00  0.00    -0.254 OA
ATOM    149  O1  SGN d 302      78.960  18.120 101.644  0.00  0.00    -0.348 OA
ATOM    150  H   SGN d 302      76.233  15.052 100.872  0.00  0.00     0.091 H 
ATOM    151  H   SGN d 302      76.332  16.470 106.910  0.00  0.00     0.231 HD
ATOM    152  H   SGN d 302      77.947  13.657 102.819  0.00  0.00     0.210 HD
ATOM    153  H   SGN d 302      74.831  17.706 105.499  0.00  0.00     0.231 HD
ATOM    154  H   SGN d 302      77.063  18.857 101.817  0.00  0.00     0.131 H 
ATOM    155  H   SGN d 302      78.716  16.351  99.736  0.00  0.00     0.090 H 
ATOM    156  H   SGN d 302      76.575  18.822 106.663  0.00  0.00     0.231 HD
ATOM    157  H   SGN d 302      76.648  14.925  98.487  0.00  0.00     0.080 H 
ATOM    158  H   SGN d 302      77.928  15.880  97.744  0.00  0.00     0.080 H 
ATOM    159  H   SGN d 302      78.473  16.437 104.086  0.00  0.00     0.140 HD
ATOM    160  H   SGN d 302      78.923  15.604 102.132  0.00  0.00     0.089 H 
ATOM    161  H   SGN d 302      76.147  16.698 102.643  0.00  0.00     0.076 H 
ENDROOT
TORSDOF 50
ENDMDL
MODEL 63
REMARK VINA RESULT:      -9.5      5.030     15.639
REMARK  0 active torsions:
REMARK  status: ('A' for Active; 'I' for Inactive)
REMARK       I    between atoms: S_1  and  O2_2 
REMARK       I    between atoms: O2_2  and  C2_99 
REMARK       I    between atoms: C3_3  and  O3_50 
REMARK       I    between atoms: C2_5  and  O2_57 
REMARK       I    between atoms: O1S_6  and  S1_33 
REMARK       I    between atoms: O3_7  and  C3_52 
REMARK       I    between atoms: O6_9  and  C6_34 
REMARK       I    between atoms: O6_9  and  S2_17 
REMARK       I    between atoms: C2_13  and  N_73 
REMARK       I    between atoms: S_16  and  O2_57 
REMARK       I    between atoms: C1_20  and  O4_43 
REMARK       I    between atoms: C6_21  and  C5_67 
REMARK       I    between atoms: C6_21  and  O6_75 
REMARK       I    between atoms: N_22  and  C2_66 
REMARK       I    between atoms: N_22  and  S1_69 
REMARK       I    between atoms: S2_23  and  O6_75 
REMARK       I    between atoms: C1_24  and  O4_78 
REMARK       I    between atoms: C4_25  and  O4_78 
REMARK       I    between atoms: O3_26  and  C3_81 
REMARK       I    between atoms: O1S_27  and  S1_60 
REMARK       I    between atoms: O3S_28  and  S1_69 
REMARK       I    between atoms: O3_29  and  C3_87 
REMARK       I    between atoms: C6_30  and  C5_80 
REMARK       I    between atoms: O2S_32  and  S1_60 
REMARK       I    between atoms: S1_33  and  N_73 
REMARK       I    between atoms: S1_33  and  O2S_94 
REMARK       I    between atoms: S1_33  and  O3S_35 
REMARK       I    between atoms: C6_34  and  C5_38 
REMARK       I    between atoms: C2_36  and  O2_93 
REMARK       I    between atoms: O3_37  and  C3_65 
REMARK       I    between atoms: C1_40  and  O1_105 
REMARK       I    between atoms: O2S_41  and  S1_69 
REMARK       I    between atoms: C5_42  and  C6_54 
REMARK       I    between atoms: O4_43  and  C4_92 
REMARK       I    between atoms: O1_44  and  C1_62 
REMARK       I    between atoms: O1_44  and  C4_83 
REMARK       I    between atoms: C1_45  and  O4_102 
REMARK       I    between atoms: C4_46  and  O1_105 
REMARK       I    between atoms: O3S_47  and  S1_60 
REMARK       I    between atoms: C5_53  and  C6_61 
REMARK       I    between atoms: C6_54  and  O6_98 
REMARK       I    between atoms: O3_56  and  C3_84 
REMARK       I    between atoms: C5_59  and  C6_63 
REMARK       I    between atoms: S1_60  and  N_86 
REMARK       I    between atoms: S1_69  and  O1S_91 
REMARK       I    between atoms: O1_70  and  C1_96 
REMARK       I    between atoms: S_82  and  O2_93 
REMARK       I    between atoms: N_86  and  C2_90 
REMARK       I    between atoms: S2_95  and  O6_98 
REMARK       I    between atoms: C4_100  and  O4_102 
ROOT
ATOM      1  S   IDS d 303      82.976  27.684 101.236  0.00  0.00     0.252 S 
ATOM      2  O2  IDS d 303      84.700  27.550 100.948  0.00  0.00    -0.244 OA
ATOM      3  O61 IDS d 303      89.553  25.589  98.656  0.00  0.00    -0.646 OA
ATOM      4  O3  IDS d 303      87.191  25.724 102.714  0.00  0.00    -0.390 OA
ATOM      5  O3S IDS d 303      82.780  27.526 102.656  0.00  0.00    -0.572 OA
ATOM      6  C1  IDS d 303      85.194  25.285 100.338  0.00  0.00     0.161 C 
ATOM      7  C4  IDS d 303      87.651  27.019 100.719  0.00  0.00     0.103 C 
ATOM      8  O2S IDS d 303      82.536  28.970 100.772  0.00  0.00    -0.572 OA
ATOM      9  C3  IDS d 303      86.700  26.726 101.902  0.00  0.00     0.094 C 
ATOM     10  C5  IDS d 303      87.444  25.946  99.653  0.00  0.00     0.152 C 
ATOM     11  C6  IDS d 303      88.428  26.076  98.525  0.00  0.00     0.206 C 
ATOM     12  O62 IDS d 303      87.967  26.488  97.443  0.00  0.00    -0.646 OA
ATOM     13  O5  IDS d 303      86.134  25.541  99.303  0.00  0.00    -0.340 OA
ATOM     14  C2  IDS d 303      85.280  26.379 101.423  0.00  0.00     0.134 C 
ATOM     15  O1S IDS d 303      82.335  26.642 100.502  0.00  0.00    -0.572 OA
ATOM     16  H   IDS d 303      88.086  25.955 103.008  0.00  0.00     0.210 HD
ATOM     17  H   IDS d 303      84.236  25.297  99.861  0.00  0.00     0.133 H 
ATOM     18  H   IDS d 303      88.655  27.047 101.088  0.00  0.00     0.092 H 
ATOM     19  H   IDS d 303      86.643  27.625 102.479  0.00  0.00     0.091 H 
ATOM     20  H   IDS d 303      87.686  25.051 100.187  0.00  0.00     0.104 H 
ATOM     21  H   IDS d 303      84.762  25.967 102.264  0.00  0.00     0.097 H 
ATOM     22  C3  SGN d 306      80.377  15.975 104.742  0.00  0.00     0.083 C 
ATOM     23  O1S SGN d 306      77.132  16.440 103.064  0.00  0.00    -0.296 OA
ATOM     24  O4S SGN d 306      82.739  20.395 110.048  0.00  0.00    -0.572 OA
ATOM     25  O5S SGN d 306      83.594  20.896 107.901  0.00  0.00    -0.572 OA
ATOM     26  C2  SGN d 306      79.088  16.322 105.471  0.00  0.00     0.081 C 
ATOM     27  O5  SGN d 306      80.384  17.191 107.327  0.00  0.00    -0.350 OA
ATOM     28  C6  SGN d 306      82.710  17.856 107.150  0.00  0.00     0.067 C 
ATOM     29  S2  SGN d 306      83.312  19.854 108.848  0.00  0.00     0.251 S 
ATOM     30  S1  SGN d 306      76.747  15.667 104.218  0.00  0.00     0.156 S 
ATOM     31  O3S SGN d 306      76.089  14.453 103.806  0.00  0.00    -0.296 OA
ATOM     32  O4  SGN d 306      82.672  16.670 104.445  0.00  0.00    -0.348 OA
ATOM     33  O3  SGN d 306      80.135  16.009 103.348  0.00  0.00    -0.391 OA
ATOM     34  O6S SGN d 306      84.520  19.125 109.144  0.00  0.00    -0.572 OA
ATOM     35  C5  SGN d 306      81.647  16.888 106.662  0.00  0.00     0.091 C 
ATOM     36  O1  SGN d 306      79.484  14.993 107.449  0.00  0.00    -0.369 OA
ATOM     37  N   SGN d 306      78.175  15.258 105.159  0.00  0.00    -0.210 NA
ATOM     38  O6  SGN d 306      82.172  18.749 108.100  0.00  0.00    -0.254 OA
ATOM     39  C4  SGN d 306      81.451  16.995 105.134  0.00  0.00     0.095 C 
ATOM     40  O2S SGN d 306      75.893  16.431 105.073  0.00  0.00    -0.296 OA
ATOM     41  C1  SGN d 306      79.273  16.326 106.997  0.00  0.00     0.147 C 
ATOM     42  H   SGN d 306      80.716  14.996 105.009  0.00  0.00     0.089 H 
ATOM     43  H   SGN d 306      77.573  17.255 103.353  0.00  0.00     0.231 HD
ATOM     44  H   SGN d 306      78.754  17.295 105.173  0.00  0.00     0.076 H 
ATOM     45  H   SGN d 306      83.087  18.413 106.318  0.00  0.00     0.080 H 
ATOM     46  H   SGN d 306      83.499  17.298 107.610  0.00  0.00     0.080 H 
ATOM     47  H   SGN d 306      76.678  13.945 103.228  0.00  0.00     0.231 HD
ATOM     48  H   SGN d 306      79.828  16.894 103.095  0.00  0.00     0.210 HD
ATOM     49  H   SGN d 306      81.965  15.892 106.892  0.00  0.00     0.090 H 
ATOM     50  H   SGN d 306      78.720  14.445 107.210  0.00  0.00     0.212 HD
ATOM     51  H   SGN d 306      77.856  14.861 106.042  0.00  0.00     0.140 HD
ATOM     52  H   SGN d 306      81.167  17.992 104.870  0.00  0.00     0.091 H 
ATOM     53  H   SGN d 306      76.348  17.244 105.342  0.00  0.00     0.231 HD
ATOM     54  H   SGN d 306      78.398  16.700 107.487  0.00  0.00     0.131 H 
ATOM     55  C2  UAP d 301      89.690  31.499  94.690  0.00  0.00     0.132 C 
ATOM     56  S   UAP d 301      92.050  32.361  93.939  0.00  0.00     0.252 S 
ATOM     57  O1S UAP d 301      92.424  33.055  92.768  0.00  0.00    -0.572 OA
ATOM     58  C1  UAP d 301      88.929  31.924  95.928  0.00  0.00     0.161 C 
ATOM     59  O61 UAP d 301      85.003  32.664  93.159  0.00  0.00    -0.646 OA
ATOM     60  C5  UAP d 301      86.981  32.259  94.468  0.00  0.00     0.127 C 
ATOM     61  O3  UAP d 301      88.959  29.449  93.780  0.00  0.00    -0.393 OA
ATOM     62  O2  UAP d 301      90.338  32.600  94.151  0.00  0.00    -0.244 OA
ATOM     63  O5  UAP d 301      87.732  32.627  95.611  0.00  0.00    -0.343 OA
ATOM     64  C6  UAP d 301      85.652  32.949  94.186  0.00  0.00     0.203 C 
ATOM     65  O62 UAP d 301      85.292  33.813  95.015  0.00  0.00    -0.646 OA
ATOM     66  O3S UAP d 301      92.669  32.922  95.100  0.00  0.00    -0.572 OA
ATOM     67  O2S UAP d 301      92.334  30.954  93.793  0.00  0.00    -0.572 OA
ATOM     68  C3  UAP d 301      88.917  30.822  93.548  0.00  0.00     0.069 C 
ATOM     69  C4  UAP d 301      87.444  31.288  93.380  0.00  0.00    -0.005 C 
ATOM     70  H   UAP d 301      90.338  30.736  95.069  0.00  0.00     0.097 H 
ATOM     71  H   UAP d 301      89.502  32.606  96.522  0.00  0.00     0.133 H 
ATOM     72  H   UAP d 301      87.318  31.590  95.232  0.00  0.00     0.100 H 
ATOM     73  H   UAP d 301      89.881  29.167  93.883  0.00  0.00     0.210 HD
ATOM     74  H   UAP d 301      89.391  31.103  92.630  0.00  0.00     0.087 H 
ATOM     75  H   UAP d 301      87.348  31.773  92.431  0.00  0.00     0.041 H 
ATOM     76  H   UAP d 301      86.829  30.416  93.456  0.00  0.00     0.041 H 
ATOM     77  O5  IDS d 305      82.826  18.645 103.063  0.00  0.00    -0.340 OA
ATOM     78  O62 IDS d 305      81.439  20.304 101.327  0.00  0.00    -0.646 OA
ATOM     79  C1  IDS d 305      83.494  17.728 103.931  0.00  0.00     0.161 C 
ATOM     80  O3  IDS d 305      84.621  15.845 101.300  0.00  0.00    -0.390 OA
ATOM     81  C6  IDS d 305      81.929  19.278 100.802  0.00  0.00     0.206 C 
ATOM     82  C2  IDS d 305      84.767  17.110 103.293  0.00  0.00     0.134 C 
ATOM     83  C5  IDS d 305      82.880  18.455 101.672  0.00  0.00     0.152 C 
ATOM     84  C3  IDS d 305      84.977  17.085 101.768  0.00  0.00     0.094 C 
ATOM     85  S   IDS d 305      86.592  18.855 104.383  0.00  0.00     0.252 S 
ATOM     86  C4  IDS d 305      84.219  18.187 101.001  0.00  0.00     0.103 C 
ATOM     87  O3S IDS d 305      87.729  18.681 105.209  0.00  0.00    -0.572 OA
ATOM     88  O1S IDS d 305      85.599  19.598 105.074  0.00  0.00    -0.572 OA
ATOM     89  O2  IDS d 305      85.968  17.232 104.043  0.00  0.00    -0.244 OA
ATOM     90  O61 IDS d 305      81.874  19.046  99.583  0.00  0.00    -0.646 OA
ATOM     91  O2S IDS d 305      86.936  19.491 103.164  0.00  0.00    -0.572 OA
ATOM     92  H   IDS d 305      83.771  18.346 104.759  0.00  0.00     0.133 H 
ATOM     93  H   IDS d 305      85.105  15.163 101.792  0.00  0.00     0.210 HD
ATOM     94  H   IDS d 305      84.420  16.103 103.405  0.00  0.00     0.097 H 
ATOM     95  H   IDS d 305      82.447  17.477 101.710  0.00  0.00     0.104 H 
ATOM     96  H   IDS d 305      86.012  17.287 101.590  0.00  0.00     0.091 H 
ATOM     97  H   IDS d 305      84.077  17.851  99.995  0.00  0.00     0.092 H 
ATOM     98  O6  SGN d 304      83.568  23.257  98.116  0.00  0.00    -0.254 OA
ATOM     99  S2  SGN d 304      82.557  24.297  97.141  0.00  0.00     0.251 S 
ATOM    100  O5S SGN d 304      83.332  24.725  96.006  0.00  0.00    -0.572 OA
ATOM    101  N   SGN d 304      87.598  19.844 100.645  0.00  0.00    -0.210 NA
ATOM    102  O3S SGN d 304      89.283  18.983  98.858  0.00  0.00    -0.296 OA
ATOM    103  C6  SGN d 304      83.081  22.861  99.396  0.00  0.00     0.067 C 
ATOM    104  O3  SGN d 304      87.782  22.629 100.857  0.00  0.00    -0.391 OA
ATOM    105  C5  SGN d 304      84.175  22.053 100.048  0.00  0.00     0.091 C 
ATOM    106  O2S SGN d 304      89.079  17.765 100.839  0.00  0.00    -0.296 OA
ATOM    107  O1  SGN d 304      84.967  19.409 101.011  0.00  0.00    -0.348 OA
ATOM    108  O4S SGN d 304      81.408  23.561  96.710  0.00  0.00    -0.572 OA
ATOM    109  C1  SGN d 304      85.368  19.947  99.748  0.00  0.00     0.150 C 
ATOM    110  C3  SGN d 304      86.542  21.953 100.769  0.00  0.00     0.083 C 
ATOM    111  C2  SGN d 304      86.711  20.703  99.900  0.00  0.00     0.081 C 
ATOM    112  S1  SGN d 304      88.371  18.486  99.837  0.00  0.00     0.156 S 
ATOM    113  O6S SGN d 304      82.172  25.437  97.942  0.00  0.00    -0.572 OA
ATOM    114  O1S SGN d 304      87.393  17.645  99.208  0.00  0.00    -0.296 OA
ATOM    115  O5  SGN d 304      84.385  20.867  99.238  0.00  0.00    -0.349 OA
ATOM    116  C4  SGN d 304      85.494  22.849 100.121  0.00  0.00     0.095 C 
ATOM    117  O4  SGN d 304      85.328  24.013 100.944  0.00  0.00    -0.348 OA
ATOM    118  H   SGN d 304      87.058  19.459 101.419  0.00  0.00     0.140 HD
ATOM    119  H   SGN d 304      89.942  19.551  99.289  0.00  0.00     0.231 HD
ATOM    120  H   SGN d 304      82.199  22.265  99.285  0.00  0.00     0.080 H 
ATOM    121  H   SGN d 304      82.827  23.713  99.990  0.00  0.00     0.080 H 
ATOM    122  H   SGN d 304      88.439  22.047 101.272  0.00  0.00     0.210 HD
ATOM    123  H   SGN d 304      83.884  21.804 101.048  0.00  0.00     0.090 H 
ATOM    124  H   SGN d 304      89.734  18.347 101.253  0.00  0.00     0.231 HD
ATOM    125  H   SGN d 304      85.473  19.130  99.064  0.00  0.00     0.131 H 
ATOM    126  H   SGN d 304      86.226  21.689 101.757  0.00  0.00     0.089 H 
ATOM    127  H   SGN d 304      87.068  20.966  98.927  0.00  0.00     0.076 H 
ATOM    128  H   SGN d 304      86.921  18.151  98.528  0.00  0.00     0.231 HD
ATOM    129  H   SGN d 304      85.786  23.153  99.137  0.00  0.00     0.091 H 
ATOM    130  O5S SGN d 302      94.236  29.824  99.789  0.00  0.00    -0.572 OA
ATOM    131  C4  SGN d 302      88.585  30.753  98.001  0.00  0.00     0.095 C 
ATOM    132  O1S SGN d 302      84.038  32.354 100.603  0.00  0.00    -0.296 OA
ATOM    133  O3  SGN d 302      86.385  31.696  97.932  0.00  0.00    -0.391 OA
ATOM    134  O2S SGN d 302      86.000  32.433 101.918  0.00  0.00    -0.296 OA
ATOM    135  C1  SGN d 302      87.947  29.460 100.512  0.00  0.00     0.150 C 
ATOM    136  C5  SGN d 302      89.391  29.579  98.538  0.00  0.00     0.091 C 
ATOM    137  O3S SGN d 302      84.298  30.915 102.470  0.00  0.00    -0.296 OA
ATOM    138  O5  SGN d 302      89.298  29.563  99.987  0.00  0.00    -0.349 OA
ATOM    139  C6  SGN d 302      90.839  29.708  98.086  0.00  0.00     0.067 C 
ATOM    140  S1  SGN d 302      84.973  31.588 101.388  0.00  0.00     0.156 S 
ATOM    141  O4S SGN d 302      93.199  27.722  99.488  0.00  0.00    -0.572 OA
ATOM    142  O6S SGN d 302      93.668  29.110  97.627  0.00  0.00    -0.572 OA
ATOM    143  O4  SGN d 302      88.650  30.732  96.605  0.00  0.00    -0.348 OA
ATOM    144  N   SGN d 302      85.759  30.396 100.345  0.00  0.00    -0.210 NA
ATOM    145  C3  SGN d 302      87.139  30.607  98.432  0.00  0.00     0.083 C 
ATOM    146  C2  SGN d 302      87.128  30.626  99.953  0.00  0.00     0.081 C 
ATOM    147  S2  SGN d 302      93.283  29.076  99.016  0.00  0.00     0.251 S 
ATOM    148  O6  SGN d 302      91.712  29.843  99.185  0.00  0.00    -0.254 OA
ATOM    149  O1  SGN d 302      87.295  28.260 100.097  0.00  0.00    -0.348 OA
ATOM    150  H   SGN d 302      88.978  31.674  98.377  0.00  0.00     0.091 H 
ATOM    151  H   SGN d 302      83.602  33.011 101.168  0.00  0.00     0.231 HD
ATOM    152  H   SGN d 302      86.395  31.679  96.963  0.00  0.00     0.210 HD
ATOM    153  H   SGN d 302      85.602  33.102 102.497  0.00  0.00     0.231 HD
ATOM    154  H   SGN d 302      88.012  29.468 101.580  0.00  0.00     0.131 H 
ATOM    155  H   SGN d 302      89.002  28.658  98.159  0.00  0.00     0.090 H 
ATOM    156  H   SGN d 302      83.869  31.571 103.041  0.00  0.00     0.231 HD
ATOM    157  H   SGN d 302      90.932  30.571  97.459  0.00  0.00     0.080 H 
ATOM    158  H   SGN d 302      91.104  28.820  97.552  0.00  0.00     0.080 H 
ATOM    159  H   SGN d 302      85.206  30.333  99.490  0.00  0.00     0.140 HD
ATOM    160  H   SGN d 302      86.712  29.701  98.059  0.00  0.00     0.089 H 
ATOM    161  H   SGN d 302      87.531  31.551 100.311  0.00  0.00     0.076 H 
ENDROOT
TORSDOF 50
ENDMDL
MODEL 64
REMARK VINA RESULT:      -9.4      2.816      3.783
REMARK  0 active torsions:
REMARK  status: ('A' for Active; 'I' for Inactive)
REMARK       I    between atoms: S_1  and  O2_2 
REMARK       I    between atoms: O2_2  and  C2_99 
REMARK       I    between atoms: C3_3  and  O3_50 
REMARK       I    between atoms: C2_5  and  O2_57 
REMARK       I    between atoms: O1S_6  and  S1_33 
REMARK       I    between atoms: O3_7  and  C3_52 
REMARK       I    between atoms: O6_9  and  C6_34 
REMARK       I    between atoms: O6_9  and  S2_17 
REMARK       I    between atoms: C2_13  and  N_73 
REMARK       I    between atoms: S_16  and  O2_57 
REMARK       I    between atoms: C1_20  and  O4_43 
REMARK       I    between atoms: C6_21  and  C5_67 
REMARK       I    between atoms: C6_21  and  O6_75 
REMARK       I    between atoms: N_22  and  C2_66 
REMARK       I    between atoms: N_22  and  S1_69 
REMARK       I    between atoms: S2_23  and  O6_75 
REMARK       I    between atoms: C1_24  and  O4_78 
REMARK       I    between atoms: C4_25  and  O4_78 
REMARK       I    between atoms: O3_26  and  C3_81 
REMARK       I    between atoms: O1S_27  and  S1_60 
REMARK       I    between atoms: O3S_28  and  S1_69 
REMARK       I    between atoms: O3_29  and  C3_87 
REMARK       I    between atoms: C6_30  and  C5_80 
REMARK       I    between atoms: O2S_32  and  S1_60 
REMARK       I    between atoms: S1_33  and  N_73 
REMARK       I    between atoms: S1_33  and  O2S_94 
REMARK       I    between atoms: S1_33  and  O3S_35 
REMARK       I    between atoms: C6_34  and  C5_38 
REMARK       I    between atoms: C2_36  and  O2_93 
REMARK       I    between atoms: O3_37  and  C3_65 
REMARK       I    between atoms: C1_40  and  O1_105 
REMARK       I    between atoms: O2S_41  and  S1_69 
REMARK       I    between atoms: C5_42  and  C6_54 
REMARK       I    between atoms: O4_43  and  C4_92 
REMARK       I    between atoms: O1_44  and  C1_62 
REMARK       I    between atoms: O1_44  and  C4_83 
REMARK       I    between atoms: C1_45  and  O4_102 
REMARK       I    between atoms: C4_46  and  O1_105 
REMARK       I    between atoms: O3S_47  and  S1_60 
REMARK       I    between atoms: C5_53  and  C6_61 
REMARK       I    between atoms: C6_54  and  O6_98 
REMARK       I    between atoms: O3_56  and  C3_84 
REMARK       I    between atoms: C5_59  and  C6_63 
REMARK       I    between atoms: S1_60  and  N_86 
REMARK       I    between atoms: S1_69  and  O1S_91 
REMARK       I    between atoms: O1_70  and  C1_96 
REMARK       I    between atoms: S_82  and  O2_93 
REMARK       I    between atoms: N_86  and  C2_90 
REMARK       I    between atoms: S2_95  and  O6_98 
REMARK       I    between atoms: C4_100  and  O4_102 
ROOT
ATOM      1  S   IDS d 303      79.358  20.737 105.259  0.00  0.00     0.252 S 
ATOM      2  O2  IDS d 303      79.381  19.905 103.716  0.00  0.00    -0.244 OA
ATOM      3  O61 IDS d 303      81.544  17.018  99.284  0.00  0.00    -0.646 OA
ATOM      4  O3  IDS d 303      79.713  21.192 100.415  0.00  0.00    -0.390 OA
ATOM      5  O3S IDS d 303      78.806  22.047 105.015  0.00  0.00    -0.572 OA
ATOM      6  C1  IDS d 303      81.554  20.176 102.740  0.00  0.00     0.161 C 
ATOM      7  C4  IDS d 303      79.546  18.827 100.913  0.00  0.00     0.103 C 
ATOM      8  O2S IDS d 303      78.553  19.975 106.173  0.00  0.00    -0.572 OA
ATOM      9  C3  IDS d 303      79.333  20.285 101.382  0.00  0.00     0.094 C 
ATOM     10  C5  IDS d 303      81.026  18.483 101.059  0.00  0.00     0.152 C 
ATOM     11  C6  IDS d 303      81.348  17.128 100.496  0.00  0.00     0.206 C 
ATOM     12  O62 IDS d 303      81.602  16.237 101.329  0.00  0.00    -0.646 OA
ATOM     13  O5  IDS d 303      81.727  18.862 102.229  0.00  0.00    -0.340 OA
ATOM     14  C2  IDS d 303      80.064  20.574 102.705  0.00  0.00     0.134 C 
ATOM     15  O1S IDS d 303      80.704  20.816 105.725  0.00  0.00    -0.572 OA
ATOM     16  H   IDS d 303      79.245  20.999  99.588  0.00  0.00     0.210 HD
ATOM     17  H   IDS d 303      81.914  20.140 103.747  0.00  0.00     0.133 H 
ATOM     18  H   IDS d 303      79.200  18.740  99.904  0.00  0.00     0.092 H 
ATOM     19  H   IDS d 303      78.282  20.399 101.554  0.00  0.00     0.091 H 
ATOM     20  H   IDS d 303      81.489  19.211 100.427  0.00  0.00     0.104 H 
ATOM     21  H   IDS d 303      80.063  21.637 102.832  0.00  0.00     0.097 H 
ATOM     22  C3  SGN d 306      87.947  29.569 103.172  0.00  0.00     0.083 C 
ATOM     23  O1S SGN d 306      88.837  29.216 106.729  0.00  0.00    -0.296 OA
ATOM     24  O4S SGN d 306      81.185  31.170 100.943  0.00  0.00    -0.572 OA
ATOM     25  O5S SGN d 306      81.719  28.868 100.878  0.00  0.00    -0.572 OA
ATOM     26  C2  SGN d 306      87.461  30.508 104.265  0.00  0.00     0.081 C 
ATOM     27  O5  SGN d 306      85.609  31.178 102.851  0.00  0.00    -0.350 OA
ATOM     28  C6  SGN d 306      84.813  29.873 100.967  0.00  0.00     0.067 C 
ATOM     29  S2  SGN d 306      82.171  30.196 100.571  0.00  0.00     0.251 S 
ATOM     30  S1  SGN d 306      88.970  30.639 106.542  0.00  0.00     0.156 S 
ATOM     31  O3S SGN d 306      90.304  31.064 106.887  0.00  0.00    -0.296 OA
ATOM     32  O4  SGN d 306      87.190  28.162 101.359  0.00  0.00    -0.348 OA
ATOM     33  O3  SGN d 306      88.652  28.498 103.773  0.00  0.00    -0.391 OA
ATOM     34  O6S SGN d 306      82.480  30.293  99.167  0.00  0.00    -0.572 OA
ATOM     35  C5  SGN d 306      86.030  30.283 101.778  0.00  0.00     0.091 C 
ATOM     36  O1  SGN d 306      87.548  32.551 102.977  0.00  0.00    -0.369 OA
ATOM     37  N   SGN d 306      88.651  31.047 104.862  0.00  0.00    -0.210 NA
ATOM     38  O6  SGN d 306      83.646  30.479 101.479  0.00  0.00    -0.254 OA
ATOM     39  C4  SGN d 306      86.733  29.053 102.394  0.00  0.00     0.095 C 
ATOM     40  O2S SGN d 306      88.005  31.341 107.330  0.00  0.00    -0.296 OA
ATOM     41  C1  SGN d 306      86.666  31.693 103.694  0.00  0.00     0.147 C 
ATOM     42  H   SGN d 306      88.603  30.076 102.495  0.00  0.00     0.089 H 
ATOM     43  H   SGN d 306      87.937  28.941 106.494  0.00  0.00     0.231 HD
ATOM     44  H   SGN d 306      86.826  29.977 104.943  0.00  0.00     0.076 H 
ATOM     45  H   SGN d 306      84.704  28.809 101.011  0.00  0.00     0.080 H 
ATOM     46  H   SGN d 306      84.951  30.190  99.955  0.00  0.00     0.080 H 
ATOM     47  H   SGN d 306      90.947  30.580 106.346  0.00  0.00     0.231 HD
ATOM     48  H   SGN d 306      88.066  28.030 104.388  0.00  0.00     0.210 HD
ATOM     49  H   SGN d 306      86.720  30.774 101.124  0.00  0.00     0.090 H 
ATOM     50  H   SGN d 306      88.240  32.875 103.575  0.00  0.00     0.212 HD
ATOM     51  H   SGN d 306      88.590  32.064 104.800  0.00  0.00     0.140 HD
ATOM     52  H   SGN d 306      86.053  28.521 103.025  0.00  0.00     0.091 H 
ATOM     53  H   SGN d 306      87.113  31.045 107.087  0.00  0.00     0.231 HD
ATOM     54  H   SGN d 306      86.220  32.268 104.478  0.00  0.00     0.131 H 
ATOM     55  C2  UAP d 301      78.473  11.195 101.993  0.00  0.00     0.132 C 
ATOM     56  S   UAP d 301      77.792   9.320 100.291  0.00  0.00     0.252 S 
ATOM     57  O1S UAP d 301      77.736   7.921 100.469  0.00  0.00    -0.572 OA
ATOM     58  C1  UAP d 301      77.592  12.321 102.492  0.00  0.00     0.161 C 
ATOM     59  O61 UAP d 301      78.889  11.211 107.043  0.00  0.00    -0.646 OA
ATOM     60  C5  UAP d 301      78.306  11.713 104.763  0.00  0.00     0.127 C 
ATOM     61  O3  UAP d 301      80.780  11.591 102.284  0.00  0.00    -0.393 OA
ATOM     62  O2  UAP d 301      77.715  10.039 101.875  0.00  0.00    -0.244 OA
ATOM     63  O5  UAP d 301      77.315  12.214 103.884  0.00  0.00    -0.343 OA
ATOM     64  C6  UAP d 301      78.040  11.690 106.263  0.00  0.00     0.203 C 
ATOM     65  O62 UAP d 301      76.935  12.142 106.634  0.00  0.00    -0.646 OA
ATOM     66  O3S UAP d 301      76.645   9.804  99.587  0.00  0.00    -0.572 OA
ATOM     67  O2S UAP d 301      79.027   9.689  99.644  0.00  0.00    -0.572 OA
ATOM     68  C3  UAP d 301      79.730  10.833 102.799  0.00  0.00     0.069 C 
ATOM     69  C4  UAP d 301      79.618  11.054 104.333  0.00  0.00    -0.005 C 
ATOM     70  H   UAP d 301      78.845  11.585 101.070  0.00  0.00     0.097 H 
ATOM     71  H   UAP d 301      76.633  12.305 102.016  0.00  0.00     0.133 H 
ATOM     72  H   UAP d 301      78.447  12.498 104.050  0.00  0.00     0.100 H 
ATOM     73  H   UAP d 301      80.843  11.448 101.327  0.00  0.00     0.210 HD
ATOM     74  H   UAP d 301      79.887   9.780 102.692  0.00  0.00     0.087 H 
ATOM     75  H   UAP d 301      79.694  10.103 104.818  0.00  0.00     0.041 H 
ATOM     76  H   UAP d 301      80.409  11.719 104.613  0.00  0.00     0.041 H 
ATOM     77  O5  IDS d 305      86.177  26.130 102.181  0.00  0.00    -0.340 OA
ATOM     78  O62 IDS d 305      85.823  24.521 104.411  0.00  0.00    -0.646 OA
ATOM     79  C1  IDS d 305      86.432  26.981 101.062  0.00  0.00     0.161 C 
ATOM     80  O3  IDS d 305      89.208  25.188 100.157  0.00  0.00    -0.390 OA
ATOM     81  C6  IDS d 305      86.895  24.339 103.791  0.00  0.00     0.206 C 
ATOM     82  C2  IDS d 305      87.107  26.238  99.878  0.00  0.00     0.134 C 
ATOM     83  C5  IDS d 305      87.031  25.045 102.442  0.00  0.00     0.152 C 
ATOM     84  C3  IDS d 305      87.866  24.913 100.082  0.00  0.00     0.094 C 
ATOM     85  S   IDS d 305      84.820  25.706  98.446  0.00  0.00     0.252 S 
ATOM     86  C4  IDS d 305      87.414  24.101 101.311  0.00  0.00     0.103 C 
ATOM     87  O3S IDS d 305      84.398  26.030  97.133  0.00  0.00    -0.572 OA
ATOM     88  O1S IDS d 305      83.974  26.334  99.397  0.00  0.00    -0.572 OA
ATOM     89  O2  IDS d 305      86.461  26.349  98.617  0.00  0.00    -0.244 OA
ATOM     90  O61 IDS d 305      87.713  23.454 104.094  0.00  0.00    -0.646 OA
ATOM     91  O2S IDS d 305      84.843  24.302  98.646  0.00  0.00    -0.572 OA
ATOM     92  H   IDS d 305      85.451  27.296 100.777  0.00  0.00     0.133 H 
ATOM     93  H   IDS d 305      89.477  25.699  99.377  0.00  0.00     0.210 HD
ATOM     94  H   IDS d 305      87.957  26.888  99.862  0.00  0.00     0.097 H 
ATOM     95  H   IDS d 305      87.906  25.655 102.533  0.00  0.00     0.104 H 
ATOM     96  H   IDS d 305      87.641  24.290  99.242  0.00  0.00     0.091 H 
ATOM     97  H   IDS d 305      88.225  23.469 101.606  0.00  0.00     0.092 H 
ATOM     98  O6  SGN d 304      84.624  19.822 104.203  0.00  0.00    -0.254 OA
ATOM     99  S2  SGN d 304      84.364  18.960 105.701  0.00  0.00     0.251 S 
ATOM    100  O5S SGN d 304      84.464  17.552 105.421  0.00  0.00    -0.572 OA
ATOM    101  N   SGN d 304      85.716  21.829  98.812  0.00  0.00    -0.210 NA
ATOM    102  O3S SGN d 304      87.119  20.086  97.481  0.00  0.00    -0.296 OA
ATOM    103  C6  SGN d 304      84.386  21.227 104.191  0.00  0.00     0.067 C 
ATOM    104  O3  SGN d 304      83.206  20.753  99.429  0.00  0.00    -0.391 OA
ATOM    105  C5  SGN d 304      84.598  21.694 102.773  0.00  0.00     0.091 C 
ATOM    106  O2S SGN d 304      87.191  22.311  96.776  0.00  0.00    -0.296 OA
ATOM    107  O1  SGN d 304      86.263  23.308 100.993  0.00  0.00    -0.348 OA
ATOM    108  O4S SGN d 304      85.366  19.351 106.645  0.00  0.00    -0.572 OA
ATOM    109  C1  SGN d 304      86.383  21.889 101.123  0.00  0.00     0.150 C 
ATOM    110  C3  SGN d 304      83.997  21.435 100.384  0.00  0.00     0.083 C 
ATOM    111  C2  SGN d 304      85.479  21.187 100.081  0.00  0.00     0.081 C 
ATOM    112  S1  SGN d 304      87.176  21.448  97.907  0.00  0.00     0.156 S 
ATOM    113  O6S SGN d 304      83.041  19.281 106.187  0.00  0.00    -0.572 OA
ATOM    114  O1S SGN d 304      88.344  21.656  98.715  0.00  0.00    -0.296 OA
ATOM    115  O5  SGN d 304      85.989  21.450 102.436  0.00  0.00    -0.349 OA
ATOM    116  C4  SGN d 304      83.701  20.918 101.786  0.00  0.00     0.095 C 
ATOM    117  O4  SGN d 304      82.317  21.165 102.072  0.00  0.00    -0.348 OA
ATOM    118  H   SGN d 304      85.730  22.834  98.985  0.00  0.00     0.140 HD
ATOM    119  H   SGN d 304      86.328  19.952  96.935  0.00  0.00     0.231 HD
ATOM    120  H   SGN d 304      85.071  21.722 104.848  0.00  0.00     0.080 H 
ATOM    121  H   SGN d 304      83.394  21.450 104.524  0.00  0.00     0.080 H 
ATOM    122  H   SGN d 304      83.405  21.094  98.542  0.00  0.00     0.210 HD
ATOM    123  H   SGN d 304      84.348  22.732 102.700  0.00  0.00     0.090 H 
ATOM    124  H   SGN d 304      86.396  22.158  96.242  0.00  0.00     0.231 HD
ATOM    125  H   SGN d 304      87.410  21.633 100.960  0.00  0.00     0.131 H 
ATOM    126  H   SGN d 304      83.770  22.480 100.332  0.00  0.00     0.089 H 
ATOM    127  H   SGN d 304      85.694  20.139 100.091  0.00  0.00     0.076 H 
ATOM    128  H   SGN d 304      88.318  21.060  99.480  0.00  0.00     0.231 HD
ATOM    129  H   SGN d 304      83.897  19.869 101.870  0.00  0.00     0.091 H 
ATOM    130  O5S SGN d 302      76.719  14.386  95.976  0.00  0.00    -0.572 OA
ATOM    131  C4  SGN d 302      77.597  14.654 101.905  0.00  0.00     0.095 C 
ATOM    132  O1S SGN d 302      75.544  17.833 105.865  0.00  0.00    -0.296 OA
ATOM    133  O3  SGN d 302      77.127  15.028 104.223  0.00  0.00    -0.391 OA
ATOM    134  O2S SGN d 302      74.548  18.142 103.744  0.00  0.00    -0.296 OA
ATOM    135  C1  SGN d 302      77.526  17.510 101.434  0.00  0.00     0.150 C 
ATOM    136  C5  SGN d 302      78.219  15.289 100.670  0.00  0.00     0.091 C 
ATOM    137  O3S SGN d 302      75.799  19.883 104.698  0.00  0.00    -0.296 OA
ATOM    138  O5  SGN d 302      77.517  16.524 100.367  0.00  0.00    -0.349 OA
ATOM    139  C6  SGN d 302      78.138  14.316  99.502  0.00  0.00     0.067 C 
ATOM    140  S1  SGN d 302      75.675  18.452 104.569  0.00  0.00     0.156 S 
ATOM    141  O4S SGN d 302      78.806  15.421  96.370  0.00  0.00    -0.572 OA
ATOM    142  O6S SGN d 302      78.493  13.123  96.852  0.00  0.00    -0.572 OA
ATOM    143  O4  SGN d 302      78.307  13.489 102.208  0.00  0.00    -0.348 OA
ATOM    144  N   SGN d 302      77.110  17.802 103.766  0.00  0.00    -0.210 NA
ATOM    145  C3  SGN d 302      77.702  15.617 103.071  0.00  0.00     0.083 C 
ATOM    146  C2  SGN d 302      76.924  16.864 102.685  0.00  0.00     0.081 C 
ATOM    147  S2  SGN d 302      77.876  14.427  96.827  0.00  0.00     0.251 S 
ATOM    148  O6  SGN d 302      77.351  14.833  98.453  0.00  0.00    -0.254 OA
ATOM    149  O1  SGN d 302      78.849  17.924 101.778  0.00  0.00    -0.348 OA
ATOM    150  H   SGN d 302      76.568  14.425 101.724  0.00  0.00     0.091 H 
ATOM    151  H   SGN d 302      74.759  18.185 106.313  0.00  0.00     0.231 HD
ATOM    152  H   SGN d 302      77.627  14.233 104.465  0.00  0.00     0.210 HD
ATOM    153  H   SGN d 302      73.740  18.486 104.158  0.00  0.00     0.231 HD
ATOM    154  H   SGN d 302      76.974  18.361 101.095  0.00  0.00     0.131 H 
ATOM    155  H   SGN d 302      79.249  15.515 100.848  0.00  0.00     0.090 H 
ATOM    156  H   SGN d 302      75.011  20.237 105.139  0.00  0.00     0.231 HD
ATOM    157  H   SGN d 302      77.704  13.399  99.843  0.00  0.00     0.080 H 
ATOM    158  H   SGN d 302      79.128  14.153  99.132  0.00  0.00     0.080 H 
ATOM    159  H   SGN d 302      77.670  17.333 104.479  0.00  0.00     0.140 HD
ATOM    160  H   SGN d 302      78.722  15.855 103.286  0.00  0.00     0.089 H 
ATOM    161  H   SGN d 302      75.899  16.616 102.501  0.00  0.00     0.076 H 
ENDROOT
TORSDOF 50
ENDMDL
MODEL 65
REMARK VINA RESULT:      -9.4      4.461     15.493
REMARK  0 active torsions:
REMARK  status: ('A' for Active; 'I' for Inactive)
REMARK       I    between atoms: S_1  and  O2_2 
REMARK       I    between atoms: O2_2  and  C2_99 
REMARK       I    between atoms: C3_3  and  O3_50 
REMARK       I    between atoms: C2_5  and  O2_57 
REMARK       I    between atoms: O1S_6  and  S1_33 
REMARK       I    between atoms: O3_7  and  C3_52 
REMARK       I    between atoms: O6_9  and  C6_34 
REMARK       I    between atoms: O6_9  and  S2_17 
REMARK       I    between atoms: C2_13  and  N_73 
REMARK       I    between atoms: S_16  and  O2_57 
REMARK       I    between atoms: C1_20  and  O4_43 
REMARK       I    between atoms: C6_21  and  C5_67 
REMARK       I    between atoms: C6_21  and  O6_75 
REMARK       I    between atoms: N_22  and  C2_66 
REMARK       I    between atoms: N_22  and  S1_69 
REMARK       I    between atoms: S2_23  and  O6_75 
REMARK       I    between atoms: C1_24  and  O4_78 
REMARK       I    between atoms: C4_25  and  O4_78 
REMARK       I    between atoms: O3_26  and  C3_81 
REMARK       I    between atoms: O1S_27  and  S1_60 
REMARK       I    between atoms: O3S_28  and  S1_69 
REMARK       I    between atoms: O3_29  and  C3_87 
REMARK       I    between atoms: C6_30  and  C5_80 
REMARK       I    between atoms: O2S_32  and  S1_60 
REMARK       I    between atoms: S1_33  and  N_73 
REMARK       I    between atoms: S1_33  and  O2S_94 
REMARK       I    between atoms: S1_33  and  O3S_35 
REMARK       I    between atoms: C6_34  and  C5_38 
REMARK       I    between atoms: C2_36  and  O2_93 
REMARK       I    between atoms: O3_37  and  C3_65 
REMARK       I    between atoms: C1_40  and  O1_105 
REMARK       I    between atoms: O2S_41  and  S1_69 
REMARK       I    between atoms: C5_42  and  C6_54 
REMARK       I    between atoms: O4_43  and  C4_92 
REMARK       I    between atoms: O1_44  and  C1_62 
REMARK       I    between atoms: O1_44  and  C4_83 
REMARK       I    between atoms: C1_45  and  O4_102 
REMARK       I    between atoms: C4_46  and  O1_105 
REMARK       I    between atoms: O3S_47  and  S1_60 
REMARK       I    between atoms: C5_53  and  C6_61 
REMARK       I    between atoms: C6_54  and  O6_98 
REMARK       I    between atoms: O3_56  and  C3_84 
REMARK       I    between atoms: C5_59  and  C6_63 
REMARK       I    between atoms: S1_60  and  N_86 
REMARK       I    between atoms: S1_69  and  O1S_91 
REMARK       I    between atoms: O1_70  and  C1_96 
REMARK       I    between atoms: S_82  and  O2_93 
REMARK       I    between atoms: N_86  and  C2_90 
REMARK       I    between atoms: S2_95  and  O6_98 
REMARK       I    between atoms: C4_100  and  O4_102 
ROOT
ATOM      1  S   IDS d 303      88.243  21.764 104.593  0.00  0.00     0.252 S 
ATOM      2  O2  IDS d 303      87.558  23.057 103.627  0.00  0.00    -0.244 OA
ATOM      3  O61 IDS d 303      83.564  26.045 100.839  0.00  0.00    -0.646 OA
ATOM      4  O3  IDS d 303      87.412  23.457 100.095  0.00  0.00    -0.390 OA
ATOM      5  O3S IDS d 303      89.337  21.213 103.832  0.00  0.00    -0.572 OA
ATOM      6  C1  IDS d 303      85.702  22.179 102.389  0.00  0.00     0.161 C 
ATOM      7  C4  IDS d 303      86.431  25.028 101.656  0.00  0.00     0.103 C 
ATOM      8  O2S IDS d 303      88.681  22.316 105.845  0.00  0.00    -0.572 OA
ATOM      9  C3  IDS d 303      87.425  23.871 101.411  0.00  0.00     0.094 C 
ATOM     10  C5  IDS d 303      85.025  24.444 101.771  0.00  0.00     0.152 C 
ATOM     11  C6  IDS d 303      83.976  25.514 101.873  0.00  0.00     0.206 C 
ATOM     12  O62 IDS d 303      83.439  25.648 102.989  0.00  0.00    -0.646 OA
ATOM     13  O5  IDS d 303      84.808  23.273 102.536  0.00  0.00    -0.340 OA
ATOM     14  C2  IDS d 303      87.161  22.680 102.349  0.00  0.00     0.134 C 
ATOM     15  O1S IDS d 303      87.216  20.797 104.806  0.00  0.00    -0.572 OA
ATOM     16  H   IDS d 303      87.580  24.217  99.515  0.00  0.00     0.210 HD
ATOM     17  H   IDS d 303      85.537  21.560 103.246  0.00  0.00     0.133 H 
ATOM     18  H   IDS d 303      86.521  25.731 100.853  0.00  0.00     0.092 H 
ATOM     19  H   IDS d 303      88.400  24.254 101.631  0.00  0.00     0.091 H 
ATOM     20  H   IDS d 303      84.904  23.965 100.822  0.00  0.00     0.104 H 
ATOM     21  H   IDS d 303      87.721  21.853 101.963  0.00  0.00     0.097 H 
ATOM     22  C3  SGN d 306      85.124  11.871  97.626  0.00  0.00     0.083 C 
ATOM     23  O1S SGN d 306      84.750  10.045 100.802  0.00  0.00    -0.296 OA
ATOM     24  O4S SGN d 306      91.315  15.234  95.719  0.00  0.00    -0.572 OA
ATOM     25  O5S SGN d 306      89.683  16.652  96.676  0.00  0.00    -0.572 OA
ATOM     26  C2  SGN d 306      86.185  10.945  98.201  0.00  0.00     0.081 C 
ATOM     27  O5  SGN d 306      87.871  12.065  96.867  0.00  0.00    -0.350 OA
ATOM     28  C6  SGN d 306      87.587  14.281  95.921  0.00  0.00     0.067 C 
ATOM     29  S2  SGN d 306      89.926  15.597  95.733  0.00  0.00     0.251 S 
ATOM     30  S1  SGN d 306      85.331   9.031  99.958  0.00  0.00     0.156 S 
ATOM     31  O3S SGN d 306      84.471   7.875  99.905  0.00  0.00    -0.296 OA
ATOM     32  O4  SGN d 306      84.767  14.108  96.784  0.00  0.00    -0.348 OA
ATOM     33  O3  SGN d 306      84.078  12.007  98.570  0.00  0.00    -0.391 OA
ATOM     34  O6S SGN d 306      89.493  16.006  94.421  0.00  0.00    -0.572 OA
ATOM     35  C5  SGN d 306      86.891  12.984  96.296  0.00  0.00     0.091 C 
ATOM     36  O1  SGN d 306      86.946  10.009  96.108  0.00  0.00    -0.369 OA
ATOM     37  N   SGN d 306      85.544   9.667  98.332  0.00  0.00    -0.210 NA
ATOM     38  O6  SGN d 306      88.963  14.213  96.223  0.00  0.00    -0.254 OA
ATOM     39  C4  SGN d 306      85.769  13.229  97.327  0.00  0.00     0.095 C 
ATOM     40  O2S SGN d 306      86.629   8.664 100.433  0.00  0.00    -0.296 OA
ATOM     41  C1  SGN d 306      87.370  10.761  97.240  0.00  0.00     0.147 C 
ATOM     42  H   SGN d 306      84.720  11.473  96.719  0.00  0.00     0.089 H 
ATOM     43  H   SGN d 306      85.337  10.817 100.831  0.00  0.00     0.231 HD
ATOM     44  H   SGN d 306      86.560  11.350  99.119  0.00  0.00     0.076 H 
ATOM     45  H   SGN d 306      87.146  15.087  96.469  0.00  0.00     0.080 H 
ATOM     46  H   SGN d 306      87.472  14.441  94.869  0.00  0.00     0.080 H 
ATOM     47  H   SGN d 306      83.596   8.138  99.581  0.00  0.00     0.231 HD
ATOM     48  H   SGN d 306      84.434  12.369  99.397  0.00  0.00     0.210 HD
ATOM     49  H   SGN d 306      86.454  12.568  95.412  0.00  0.00     0.090 H 
ATOM     50  H   SGN d 306      86.618   9.144  96.399  0.00  0.00     0.212 HD
ATOM     51  H   SGN d 306      86.102   8.991  97.810  0.00  0.00     0.140 HD
ATOM     52  H   SGN d 306      86.173  13.678  98.209  0.00  0.00     0.091 H 
ATOM     53  H   SGN d 306      87.196   9.451 100.464  0.00  0.00     0.231 HD
ATOM     54  H   SGN d 306      88.163  10.218  97.711  0.00  0.00     0.131 H 
ATOM     55  C2  UAP d 301      83.634  30.616 106.296  0.00  0.00     0.132 C 
ATOM     56  S   UAP d 301      82.992  33.101 105.762  0.00  0.00     0.252 S 
ATOM     57  O1S UAP d 301      82.356  34.061 106.577  0.00  0.00    -0.572 OA
ATOM     58  C1  UAP d 301      85.031  30.030 106.310  0.00  0.00     0.161 C 
ATOM     59  O61 UAP d 301      84.084  28.088 110.664  0.00  0.00    -0.646 OA
ATOM     60  C5  UAP d 301      84.474  29.065 108.500  0.00  0.00     0.127 C 
ATOM     61  O3  UAP d 301      81.927  29.001 106.094  0.00  0.00    -0.393 OA
ATOM     62  O2  UAP d 301      83.671  31.899 106.822  0.00  0.00    -0.244 OA
ATOM     63  O5  UAP d 301      85.430  29.617 107.612  0.00  0.00    -0.343 OA
ATOM     64  C6  UAP d 301      84.923  28.536 109.857  0.00  0.00     0.203 C 
ATOM     65  O62 UAP d 301      86.147  28.613 110.101  0.00  0.00    -0.646 OA
ATOM     66  O3S UAP d 301      84.098  33.667 105.053  0.00  0.00    -0.572 OA
ATOM     67  O2S UAP d 301      82.031  32.489 104.877  0.00  0.00    -0.572 OA
ATOM     68  C3  UAP d 301      82.512  29.859 107.023  0.00  0.00     0.069 C 
ATOM     69  C4  UAP d 301      82.960  29.058 108.277  0.00  0.00    -0.005 C 
ATOM     70  H   UAP d 301      83.372  30.561 105.261  0.00  0.00     0.097 H 
ATOM     71  H   UAP d 301      85.760  30.756 106.014  0.00  0.00     0.133 H 
ATOM     72  H   UAP d 301      84.641  28.749 107.492  0.00  0.00     0.100 H 
ATOM     73  H   UAP d 301      81.650  29.508 105.315  0.00  0.00     0.210 HD
ATOM     74  H   UAP d 301      81.827  30.588 107.403  0.00  0.00     0.087 H 
ATOM     75  H   UAP d 301      82.490  29.486 109.138  0.00  0.00     0.041 H 
ATOM     76  H   UAP d 301      82.672  28.040 108.119  0.00  0.00     0.041 H 
ATOM     77  O5  IDS d 305      84.722  15.729  98.573  0.00  0.00    -0.340 OA
ATOM     78  O62 IDS d 305      84.555  16.061 101.321  0.00  0.00    -0.646 OA
ATOM     79  C1  IDS d 305      84.762  15.490  97.164  0.00  0.00     0.161 C 
ATOM     80  O3  IDS d 305      81.358  15.762  96.883  0.00  0.00    -0.390 OA
ATOM     81  C6  IDS d 305      83.457  15.919 100.737  0.00  0.00     0.206 C 
ATOM     82  C2  IDS d 305      83.627  16.218  96.396  0.00  0.00     0.134 C 
ATOM     83  C5  IDS d 305      83.488  15.953  99.208  0.00  0.00     0.152 C 
ATOM     84  C3  IDS d 305      82.343  16.691  97.104  0.00  0.00     0.094 C 
ATOM     85  S   IDS d 305      85.069  18.441  95.659  0.00  0.00     0.252 S 
ATOM     86  C4  IDS d 305      82.507  16.952  98.614  0.00  0.00     0.103 C 
ATOM     87  O3S IDS d 305      85.384  19.024  94.407  0.00  0.00    -0.572 OA
ATOM     88  O1S IDS d 305      86.254  17.992  96.298  0.00  0.00    -0.572 OA
ATOM     89  O2  IDS d 305      84.032  17.047  95.314  0.00  0.00    -0.244 OA
ATOM     90  O61 IDS d 305      82.362  15.997 101.319  0.00  0.00    -0.646 OA
ATOM     91  O2S IDS d 305      84.368  19.354  96.487  0.00  0.00    -0.572 OA
ATOM     92  H   IDS d 305      85.708  15.901  96.883  0.00  0.00     0.133 H 
ATOM     93  H   IDS d 305      81.267  15.608  95.929  0.00  0.00     0.210 HD
ATOM     94  H   IDS d 305      83.234  15.314  95.978  0.00  0.00     0.097 H 
ATOM     95  H   IDS d 305      83.071  15.016  98.900  0.00  0.00     0.104 H 
ATOM     96  H   IDS d 305      82.085  17.641  96.686  0.00  0.00     0.091 H 
ATOM     97  H   IDS d 305      81.545  16.855  99.072  0.00  0.00     0.092 H 
ATOM     98  O6  SGN d 304      83.152  20.178 103.476  0.00  0.00    -0.254 OA
ATOM     99  S2  SGN d 304      83.170  20.253 105.222  0.00  0.00     0.251 S 
ATOM    100  O5S SGN d 304      82.326  21.348 105.623  0.00  0.00    -0.572 OA
ATOM    101  N   SGN d 304      82.398  20.616  97.686  0.00  0.00    -0.210 NA
ATOM    102  O3S SGN d 304      80.117  21.756  97.169  0.00  0.00    -0.296 OA
ATOM    103  C6  SGN d 304      84.065  19.290 102.837  0.00  0.00     0.067 C 
ATOM    104  O3  SGN d 304      84.075  22.413  99.025  0.00  0.00    -0.391 OA
ATOM    105  C5  SGN d 304      83.899  19.488 101.351  0.00  0.00     0.091 C 
ATOM    106  O2S SGN d 304      81.074  20.429  95.503  0.00  0.00    -0.296 OA
ATOM    107  O1  SGN d 304      83.029  18.267  98.841  0.00  0.00    -0.348 OA
ATOM    108  O4S SGN d 304      82.668  19.020 105.749  0.00  0.00    -0.572 OA
ATOM    109  C1  SGN d 304      82.227  19.173  99.604  0.00  0.00     0.150 C 
ATOM    110  C3  SGN d 304      83.902  21.075  99.449  0.00  0.00     0.083 C 
ATOM    111  C2  SGN d 304      82.473  20.625  99.126  0.00  0.00     0.081 C 
ATOM    112  S1  SGN d 304      80.826  20.547  96.900  0.00  0.00     0.156 S 
ATOM    113  O6S SGN d 304      84.530  20.485 105.653  0.00  0.00    -0.572 OA
ATOM    114  O1S SGN d 304      80.069  19.423  97.372  0.00  0.00    -0.296 OA
ATOM    115  O5  SGN d 304      82.544  19.097 101.006  0.00  0.00    -0.349 OA
ATOM    116  C4  SGN d 304      84.110  20.964 100.955  0.00  0.00     0.095 C 
ATOM    117  O4  SGN d 304      85.453  21.372 101.253  0.00  0.00    -0.348 OA
ATOM    118  H   SGN d 304      82.924  19.803  97.366  0.00  0.00     0.140 HD
ATOM    119  H   SGN d 304      80.632  22.512  96.847  0.00  0.00     0.231 HD
ATOM    120  H   SGN d 304      83.839  18.277 103.100  0.00  0.00     0.080 H 
ATOM    121  H   SGN d 304      85.071  19.490 103.141  0.00  0.00     0.080 H 
ATOM    122  H   SGN d 304      83.940  22.468  98.065  0.00  0.00     0.210 HD
ATOM    123  H   SGN d 304      84.627  18.900 100.831  0.00  0.00     0.090 H 
ATOM    124  H   SGN d 304      81.585  21.196  95.200  0.00  0.00     0.231 HD
ATOM    125  H   SGN d 304      81.202  18.900  99.460  0.00  0.00     0.131 H 
ATOM    126  H   SGN d 304      84.616  20.461  98.943  0.00  0.00     0.089 H 
ATOM    127  H   SGN d 304      81.760  21.267  99.599  0.00  0.00     0.076 H 
ATOM    128  H   SGN d 304      79.909  19.518  98.324  0.00  0.00     0.231 HD
ATOM    129  H   SGN d 304      83.425  21.583 101.496  0.00  0.00     0.091 H 
ATOM    130  O5S SGN d 302      85.794  31.958  99.739  0.00  0.00    -0.572 OA
ATOM    131  C4  SGN d 302      86.118  28.607 104.705  0.00  0.00     0.095 C 
ATOM    132  O1S SGN d 302      90.094  25.566 106.930  0.00  0.00    -0.296 OA
ATOM    133  O3  SGN d 302      87.071  27.524 106.616  0.00  0.00    -0.391 OA
ATOM    134  O2S SGN d 302      90.761  26.825 105.045  0.00  0.00    -0.296 OA
ATOM    135  C1  SGN d 302      87.554  26.791 102.966  0.00  0.00     0.150 C 
ATOM    136  C5  SGN d 302      85.720  28.388 103.252  0.00  0.00     0.091 C 
ATOM    137  O3S SGN d 302      90.736  24.483 104.919  0.00  0.00    -0.296 OA
ATOM    138  O5  SGN d 302      86.894  27.996 102.493  0.00  0.00    -0.349 OA
ATOM    139  C6  SGN d 302      85.111  29.666 102.694  0.00  0.00     0.067 C 
ATOM    140  S1  SGN d 302      90.093  25.641 105.490  0.00  0.00     0.156 S 
ATOM    141  O4S SGN d 302      84.613  29.947  99.355  0.00  0.00    -0.572 OA
ATOM    142  O6S SGN d 302      83.788  31.553 100.888  0.00  0.00    -0.572 OA
ATOM    143  O4  SGN d 302      84.973  28.944 105.431  0.00  0.00    -0.348 OA
ATOM    144  N   SGN d 302      88.422  25.733 104.921  0.00  0.00    -0.210 NA
ATOM    145  C3  SGN d 302      86.701  27.325 105.264  0.00  0.00     0.083 C 
ATOM    146  C2  SGN d 302      87.934  27.001 104.434  0.00  0.00     0.081 C 
ATOM    147  S2  SGN d 302      84.968  30.941 100.329  0.00  0.00     0.251 S 
ATOM    148  O6  SGN d 302      85.875  30.177 101.625  0.00  0.00    -0.254 OA
ATOM    149  O1  SGN d 302      86.699  25.650 102.918  0.00  0.00    -0.348 OA
ATOM    150  H   SGN d 302      86.845  29.389 104.774  0.00  0.00     0.091 H 
ATOM    151  H   SGN d 302      91.008  25.514 107.251  0.00  0.00     0.231 HD
ATOM    152  H   SGN d 302      86.281  27.729 107.141  0.00  0.00     0.210 HD
ATOM    153  H   SGN d 302      91.685  26.807 105.342  0.00  0.00     0.231 HD
ATOM    154  H   SGN d 302      88.401  26.616 102.335  0.00  0.00     0.131 H 
ATOM    155  H   SGN d 302      84.990  27.609 103.182  0.00  0.00     0.090 H 
ATOM    156  H   SGN d 302      91.652  24.434 105.233  0.00  0.00     0.231 HD
ATOM    157  H   SGN d 302      85.067  30.399 103.472  0.00  0.00     0.080 H 
ATOM    158  H   SGN d 302      84.131  29.439 102.329  0.00  0.00     0.080 H 
ATOM    159  H   SGN d 302      87.822  25.458 105.699  0.00  0.00     0.140 HD
ATOM    160  H   SGN d 302      85.992  26.525 105.222  0.00  0.00     0.089 H 
ATOM    161  H   SGN d 302      88.646  27.796 104.510  0.00  0.00     0.076 H 
ENDROOT
TORSDOF 50
ENDMDL
MODEL 66
REMARK VINA RESULT:      -9.4      3.968     15.832
REMARK  0 active torsions:
REMARK  status: ('A' for Active; 'I' for Inactive)
REMARK       I    between atoms: S_1  and  O2_2 
REMARK       I    between atoms: O2_2  and  C2_99 
REMARK       I    between atoms: C3_3  and  O3_50 
REMARK       I    between atoms: C2_5  and  O2_57 
REMARK       I    between atoms: O1S_6  and  S1_33 
REMARK       I    between atoms: O3_7  and  C3_52 
REMARK       I    between atoms: O6_9  and  C6_34 
REMARK       I    between atoms: O6_9  and  S2_17 
REMARK       I    between atoms: C2_13  and  N_73 
REMARK       I    between atoms: S_16  and  O2_57 
REMARK       I    between atoms: C1_20  and  O4_43 
REMARK       I    between atoms: C6_21  and  C5_67 
REMARK       I    between atoms: C6_21  and  O6_75 
REMARK       I    between atoms: N_22  and  C2_66 
REMARK       I    between atoms: N_22  and  S1_69 
REMARK       I    between atoms: S2_23  and  O6_75 
REMARK       I    between atoms: C1_24  and  O4_78 
REMARK       I    between atoms: C4_25  and  O4_78 
REMARK       I    between atoms: O3_26  and  C3_81 
REMARK       I    between atoms: O1S_27  and  S1_60 
REMARK       I    between atoms: O3S_28  and  S1_69 
REMARK       I    between atoms: O3_29  and  C3_87 
REMARK       I    between atoms: C6_30  and  C5_80 
REMARK       I    between atoms: O2S_32  and  S1_60 
REMARK       I    between atoms: S1_33  and  N_73 
REMARK       I    between atoms: S1_33  and  O2S_94 
REMARK       I    between atoms: S1_33  and  O3S_35 
REMARK       I    between atoms: C6_34  and  C5_38 
REMARK       I    between atoms: C2_36  and  O2_93 
REMARK       I    between atoms: O3_37  and  C3_65 
REMARK       I    between atoms: C1_40  and  O1_105 
REMARK       I    between atoms: O2S_41  and  S1_69 
REMARK       I    between atoms: C5_42  and  C6_54 
REMARK       I    between atoms: O4_43  and  C4_92 
REMARK       I    between atoms: O1_44  and  C1_62 
REMARK       I    between atoms: O1_44  and  C4_83 
REMARK       I    between atoms: C1_45  and  O4_102 
REMARK       I    between atoms: C4_46  and  O1_105 
REMARK       I    between atoms: O3S_47  and  S1_60 
REMARK       I    between atoms: C5_53  and  C6_61 
REMARK       I    between atoms: C6_54  and  O6_98 
REMARK       I    between atoms: O3_56  and  C3_84 
REMARK       I    between atoms: C5_59  and  C6_63 
REMARK       I    between atoms: S1_60  and  N_86 
REMARK       I    between atoms: S1_69  and  O1S_91 
REMARK       I    between atoms: O1_70  and  C1_96 
REMARK       I    between atoms: S_82  and  O2_93 
REMARK       I    between atoms: N_86  and  C2_90 
REMARK       I    between atoms: S2_95  and  O6_98 
REMARK       I    between atoms: C4_100  and  O4_102 
ROOT
ATOM      1  S   IDS d 303      78.123  20.450 105.162  0.00  0.00     0.252 S 
ATOM      2  O2  IDS d 303      79.649  19.896 104.500  0.00  0.00    -0.244 OA
ATOM      3  O61 IDS d 303      83.373  18.094 100.559  0.00  0.00    -0.646 OA
ATOM      4  O3  IDS d 303      81.042  16.625 104.362  0.00  0.00    -0.390 OA
ATOM      5  O3S IDS d 303      77.794  19.559 106.247  0.00  0.00    -0.572 OA
ATOM      6  C1  IDS d 303      79.191  18.467 102.629  0.00  0.00     0.161 C 
ATOM      7  C4  IDS d 303      82.119  18.573 103.407  0.00  0.00     0.103 C 
ATOM      8  O2S IDS d 303      78.288  21.805 105.609  0.00  0.00    -0.572 OA
ATOM      9  C3  IDS d 303      81.063  18.004 104.382  0.00  0.00     0.094 C 
ATOM     10  C5  IDS d 303      81.549  18.523 101.992  0.00  0.00     0.152 C 
ATOM     11  C6  IDS d 303      82.563  18.931 100.962  0.00  0.00     0.206 C 
ATOM     12  O62 IDS d 303      82.382  20.042 100.426  0.00  0.00    -0.646 OA
ATOM     13  O5  IDS d 303      80.213  18.924 101.754  0.00  0.00    -0.340 OA
ATOM     14  C2  IDS d 303      79.659  18.565 104.097  0.00  0.00     0.134 C 
ATOM     15  O1S IDS d 303      77.152  20.383 104.118  0.00  0.00    -0.572 OA
ATOM     16  H   IDS d 303      81.933  16.285 104.544  0.00  0.00     0.210 HD
ATOM     17  H   IDS d 303      78.356  19.113 102.453  0.00  0.00     0.133 H 
ATOM     18  H   IDS d 303      83.020  18.004 103.510  0.00  0.00     0.092 H 
ATOM     19  H   IDS d 303      81.351  18.320 105.363  0.00  0.00     0.091 H 
ATOM     20  H   IDS d 303      81.364  17.478 101.863  0.00  0.00     0.104 H 
ATOM     21  H   IDS d 303      78.967  17.957 104.643  0.00  0.00     0.097 H 
ATOM     22  C3  SGN d 306      70.681  10.966 101.876  0.00  0.00     0.083 C 
ATOM     23  O1S SGN d 306      68.031  13.491 101.470  0.00  0.00    -0.296 OA
ATOM     24  O4S SGN d 306      74.344  10.069 108.125  0.00  0.00    -0.572 OA
ATOM     25  O5S SGN d 306      75.457  11.398 106.517  0.00  0.00    -0.572 OA
ATOM     26  C2  SGN d 306      69.612  11.248 102.921  0.00  0.00     0.081 C 
ATOM     27  O5  SGN d 306      71.037  10.281 104.626  0.00  0.00    -0.350 OA
ATOM     28  C6  SGN d 306      73.435  10.007 104.381  0.00  0.00     0.067 C 
ATOM     29  S2  SGN d 306      74.711  10.192 106.743  0.00  0.00     0.251 S 
ATOM     30  S1  SGN d 306      67.291  12.390 102.033  0.00  0.00     0.156 S 
ATOM     31  O3S SGN d 306      66.212  12.014 101.153  0.00  0.00    -0.296 OA
ATOM     32  O4  SGN d 306      73.070  10.798 101.558  0.00  0.00    -0.348 OA
ATOM     33  O3  SGN d 306      70.559  11.914 100.832  0.00  0.00    -0.391 OA
ATOM     34  O6S SGN d 306      75.485   9.053 106.317  0.00  0.00    -0.572 OA
ATOM     35  C5  SGN d 306      72.097  10.000 103.663  0.00  0.00     0.091 C 
ATOM     36  O1  SGN d 306      69.299   8.972 103.666  0.00  0.00    -0.369 OA
ATOM     37  N   SGN d 306      68.359  11.013 102.258  0.00  0.00    -0.210 NA
ATOM     38  O6  SGN d 306      73.261  10.271 105.756  0.00  0.00    -0.254 OA
ATOM     39  C4  SGN d 306      72.056  11.064 102.544  0.00  0.00     0.095 C 
ATOM     40  O2S SGN d 306      66.782  12.736 103.324  0.00  0.00    -0.296 OA
ATOM     41  C1  SGN d 306      69.689  10.270 104.103  0.00  0.00     0.147 C 
ATOM     42  H   SGN d 306      70.564   9.985 101.465  0.00  0.00     0.089 H 
ATOM     43  H   SGN d 306      68.753  13.736 102.069  0.00  0.00     0.231 HD
ATOM     44  H   SGN d 306      69.732  12.241 103.302  0.00  0.00     0.076 H 
ATOM     45  H   SGN d 306      74.059  10.764 103.954  0.00  0.00     0.080 H 
ATOM     46  H   SGN d 306      73.890   9.045 104.269  0.00  0.00     0.080 H 
ATOM     47  H   SGN d 306      66.571  11.782 100.283  0.00  0.00     0.231 HD
ATOM     48  H   SGN d 306      70.664  12.808 101.194  0.00  0.00     0.210 HD
ATOM     49  H   SGN d 306      71.957   9.037 103.218  0.00  0.00     0.090 H 
ATOM     50  H   SGN d 306      68.392   9.005 103.324  0.00  0.00     0.212 HD
ATOM     51  H   SGN d 306      67.851  10.317 102.805  0.00  0.00     0.140 HD
ATOM     52  H   SGN d 306      72.229  12.035 102.956  0.00  0.00     0.091 H 
ATOM     53  H   SGN d 306      67.517  12.986 103.905  0.00  0.00     0.231 HD
ATOM     54  H   SGN d 306      69.022  10.562 104.887  0.00  0.00     0.131 H 
ATOM     55  C2  UAP d 301      86.197  24.627 100.706  0.00  0.00     0.132 C 
ATOM     56  S   UAP d 301      88.742  24.826 100.106  0.00  0.00     0.252 S 
ATOM     57  O1S UAP d 301      89.440  25.884  99.487  0.00  0.00    -0.572 OA
ATOM     58  C1  UAP d 301      85.609  24.467 102.092  0.00  0.00     0.161 C 
ATOM     59  O61 UAP d 301      82.522  28.091 101.110  0.00  0.00    -0.646 OA
ATOM     60  C5  UAP d 301      84.069  26.293 101.518  0.00  0.00     0.127 C 
ATOM     61  O3  UAP d 301      84.735  23.980  98.971  0.00  0.00    -0.393 OA
ATOM     62  O2  UAP d 301      87.276  25.496 100.764  0.00  0.00    -0.244 OA
ATOM     63  O5  UAP d 301      84.835  25.595 102.483  0.00  0.00    -0.343 OA
ATOM     64  C6  UAP d 301      83.167  27.441 101.957  0.00  0.00     0.203 C 
ATOM     65  O62 UAP d 301      83.151  27.691 103.182  0.00  0.00    -0.646 OA
ATOM     66  O3S UAP d 301      89.467  24.303 101.223  0.00  0.00    -0.572 OA
ATOM     67  O2S UAP d 301      88.423  23.808  99.135  0.00  0.00    -0.572 OA
ATOM     68  C3  UAP d 301      85.283  25.113  99.570  0.00  0.00     0.069 C 
ATOM     69  C4  UAP d 301      84.150  26.084 100.004  0.00  0.00    -0.005 C 
ATOM     70  H   UAP d 301      86.445  23.620 100.443  0.00  0.00     0.097 H 
ATOM     71  H   UAP d 301      86.377  24.387 102.834  0.00  0.00     0.133 H 
ATOM     72  H   UAP d 301      84.050  25.236 101.679  0.00  0.00     0.100 H 
ATOM     73  H   UAP d 301      85.448  23.380  98.703  0.00  0.00     0.210 HD
ATOM     74  H   UAP d 301      85.885  25.688  98.898  0.00  0.00     0.087 H 
ATOM     75  H   UAP d 301      84.323  27.034  99.541  0.00  0.00     0.041 H 
ATOM     76  H   UAP d 301      83.225  25.644  99.699  0.00  0.00     0.041 H 
ATOM     77  O5  IDS d 305      74.115  12.975 101.540  0.00  0.00    -0.340 OA
ATOM     78  O62 IDS d 305      73.652  15.705 101.378  0.00  0.00    -0.646 OA
ATOM     79  C1  IDS d 305      74.287  11.557 101.576  0.00  0.00     0.161 C 
ATOM     80  O3  IDS d 305      74.684  11.380  98.178  0.00  0.00    -0.390 OA
ATOM     81  C6  IDS d 305      73.701  15.109 100.278  0.00  0.00     0.206 C 
ATOM     82  C2  IDS d 305      75.222  11.033 100.455  0.00  0.00     0.134 C 
ATOM     83  C5  IDS d 305      74.168  13.654 100.310  0.00  0.00     0.152 C 
ATOM     84  C3  IDS d 305      75.495  11.852  99.179  0.00  0.00     0.094 C 
ATOM     85  S   IDS d 305      77.539  10.954 101.935  0.00  0.00     0.252 S 
ATOM     86  C4  IDS d 305      75.312  13.373  99.346  0.00  0.00     0.103 C 
ATOM     87  O3S IDS d 305      78.449   9.918 102.261  0.00  0.00    -0.572 OA
ATOM     88  O1S IDS d 305      76.907  11.433 103.112  0.00  0.00    -0.572 OA
ATOM     89  O2  IDS d 305      76.318  10.231 100.874  0.00  0.00    -0.244 OA
ATOM     90  O61 IDS d 305      73.628  15.694  99.184  0.00  0.00    -0.646 OA
ATOM     91  O2S IDS d 305      78.189  12.011 101.250  0.00  0.00    -0.572 OA
ATOM     92  H   IDS d 305      74.745  11.400 102.530  0.00  0.00     0.133 H 
ATOM     93  H   IDS d 305      74.810  10.422  98.085  0.00  0.00     0.210 HD
ATOM     94  H   IDS d 305      74.482  10.376 100.046  0.00  0.00     0.097 H 
ATOM     95  H   IDS d 305      73.366  13.093  99.877  0.00  0.00     0.104 H 
ATOM     96  H   IDS d 305      76.529  11.723  98.937  0.00  0.00     0.091 H 
ATOM     97  H   IDS d 305      75.103  13.789  98.383  0.00  0.00     0.092 H 
ATOM     98  O6  SGN d 304      77.006  18.950 100.045  0.00  0.00    -0.254 OA
ATOM     99  S2  SGN d 304      76.580  20.645 100.063  0.00  0.00     0.251 S 
ATOM    100  O5S SGN d 304      77.529  21.346  99.239  0.00  0.00    -0.572 OA
ATOM    101  N   SGN d 304      79.089  13.528  99.301  0.00  0.00    -0.210 NA
ATOM    102  O3S SGN d 304      80.367  13.369  97.040  0.00  0.00    -0.296 OA
ATOM    103  C6  SGN d 304      76.322  18.080 100.943  0.00  0.00     0.067 C 
ATOM    104  O3  SGN d 304      80.402  15.317 101.008  0.00  0.00    -0.391 OA
ATOM    105  C5  SGN d 304      76.938  16.713 100.781  0.00  0.00     0.091 C 
ATOM    106  O2S SGN d 304      79.555  11.389  97.975  0.00  0.00    -0.296 OA
ATOM    107  O1  SGN d 304      76.499  13.964  99.891  0.00  0.00    -0.348 OA
ATOM    108  O4S SGN d 304      75.257  20.800  99.540  0.00  0.00    -0.572 OA
ATOM    109  C1  SGN d 304      77.163  14.957  99.104  0.00  0.00     0.150 C 
ATOM    110  C3  SGN d 304      79.002  15.343 100.812  0.00  0.00     0.083 C 
ATOM    111  C2  SGN d 304      78.686  14.911  99.376  0.00  0.00     0.081 C 
ATOM    112  S1  SGN d 304      79.273  12.762  97.728  0.00  0.00     0.156 S 
ATOM    113  O6S SGN d 304      76.657  21.118 101.427  0.00  0.00    -0.572 OA
ATOM    114  O1S SGN d 304      78.074  12.899  96.952  0.00  0.00    -0.296 OA
ATOM    115  O5  SGN d 304      76.684  16.277  99.420  0.00  0.00    -0.349 OA
ATOM    116  C4  SGN d 304      78.462  16.753 101.017  0.00  0.00     0.095 C 
ATOM    117  O4  SGN d 304      78.746  17.149 102.367  0.00  0.00    -0.348 OA
ATOM    118  H   SGN d 304      78.392  12.988  99.814  0.00  0.00     0.140 HD
ATOM    119  H   SGN d 304      81.175  13.273  97.569  0.00  0.00     0.231 HD
ATOM    120  H   SGN d 304      75.280  18.045 100.700  0.00  0.00     0.080 H 
ATOM    121  H   SGN d 304      76.411  18.424 101.952  0.00  0.00     0.080 H 
ATOM    122  H   SGN d 304      80.731  14.413 100.874  0.00  0.00     0.210 HD
ATOM    123  H   SGN d 304      76.511  16.044 101.499  0.00  0.00     0.090 H 
ATOM    124  H   SGN d 304      80.367  11.315  98.499  0.00  0.00     0.231 HD
ATOM    125  H   SGN d 304      76.959  14.746  98.075  0.00  0.00     0.131 H 
ATOM    126  H   SGN d 304      78.546  14.679 101.516  0.00  0.00     0.089 H 
ATOM    127  H   SGN d 304      79.178  15.551  98.674  0.00  0.00     0.076 H 
ATOM    128  H   SGN d 304      77.897  13.839  96.794  0.00  0.00     0.231 HD
ATOM    129  H   SGN d 304      78.913  17.451 100.343  0.00  0.00     0.091 H 
ATOM    130  O5S SGN d 302      89.317  18.714 102.891  0.00  0.00    -0.572 OA
ATOM    131  C4  SGN d 302      84.685  22.518 103.156  0.00  0.00     0.095 C 
ATOM    132  O1S SGN d 302      81.069  23.765 107.077  0.00  0.00    -0.296 OA
ATOM    133  O3  SGN d 302      83.085  24.037 104.089  0.00  0.00    -0.391 OA
ATOM    134  O2S SGN d 302      82.803  22.314 107.767  0.00  0.00    -0.296 OA
ATOM    135  C1  SGN d 302      83.416  20.326 104.561  0.00  0.00     0.150 C 
ATOM    136  C5  SGN d 302      84.895  21.065 102.754  0.00  0.00     0.091 C 
ATOM    137  O3S SGN d 302      80.594  21.527 107.701  0.00  0.00    -0.296 OA
ATOM    138  O5  SGN d 302      84.716  20.219 103.922  0.00  0.00    -0.349 OA
ATOM    139  C6  SGN d 302      86.289  20.897 102.167  0.00  0.00     0.067 C 
ATOM    140  S1  SGN d 302      81.552  22.407 107.079  0.00  0.00     0.156 S 
ATOM    141  O4S SGN d 302      87.519  17.778 101.676  0.00  0.00    -0.572 OA
ATOM    142  O6S SGN d 302      88.635  19.710 100.878  0.00  0.00    -0.572 OA
ATOM    143  O4  SGN d 302      84.819  23.315 102.016  0.00  0.00    -0.348 OA
ATOM    144  N   SGN d 302      81.831  21.895 105.409  0.00  0.00    -0.210 NA
ATOM    145  C3  SGN d 302      83.286  22.685 103.716  0.00  0.00     0.083 C 
ATOM    146  C2  SGN d 302      83.192  21.792 104.943  0.00  0.00     0.081 C 
ATOM    147  S2  SGN d 302      88.187  18.994 102.048  0.00  0.00     0.251 S 
ATOM    148  O6  SGN d 302      87.072  20.015 102.941  0.00  0.00    -0.254 OA
ATOM    149  O1  SGN d 302      82.350  19.959 103.686  0.00  0.00    -0.348 OA
ATOM    150  H   SGN d 302      85.402  22.804 103.896  0.00  0.00     0.091 H 
ATOM    151  H   SGN d 302      80.914  24.054 107.990  0.00  0.00     0.231 HD
ATOM    152  H   SGN d 302      83.146  24.601 103.303  0.00  0.00     0.210 HD
ATOM    153  H   SGN d 302      82.685  22.589 108.690  0.00  0.00     0.231 HD
ATOM    154  H   SGN d 302      83.414  19.668 105.405  0.00  0.00     0.131 H 
ATOM    155  H   SGN d 302      84.181  20.779 102.011  0.00  0.00     0.090 H 
ATOM    156  H   SGN d 302      80.443  21.809 108.617  0.00  0.00     0.231 HD
ATOM    157  H   SGN d 302      86.771  21.852 102.135  0.00  0.00     0.080 H 
ATOM    158  H   SGN d 302      86.193  20.487 101.184  0.00  0.00     0.080 H 
ATOM    159  H   SGN d 302      81.355  22.565 104.804  0.00  0.00     0.140 HD
ATOM    160  H   SGN d 302      82.544  22.420 102.993  0.00  0.00     0.089 H 
ATOM    161  H   SGN d 302      83.921  22.088 105.669  0.00  0.00     0.076 H 
ENDROOT
TORSDOF 50
ENDMDL
MODEL 67
REMARK VINA RESULT:      -9.4      4.516      7.417
REMARK  0 active torsions:
REMARK  status: ('A' for Active; 'I' for Inactive)
REMARK       I    between atoms: S_1  and  O2_2 
REMARK       I    between atoms: O2_2  and  C2_99 
REMARK       I    between atoms: C3_3  and  O3_50 
REMARK       I    between atoms: C2_5  and  O2_57 
REMARK       I    between atoms: O1S_6  and  S1_33 
REMARK       I    between atoms: O3_7  and  C3_52 
REMARK       I    between atoms: O6_9  and  C6_34 
REMARK       I    between atoms: O6_9  and  S2_17 
REMARK       I    between atoms: C2_13  and  N_73 
REMARK       I    between atoms: S_16  and  O2_57 
REMARK       I    between atoms: C1_20  and  O4_43 
REMARK       I    between atoms: C6_21  and  C5_67 
REMARK       I    between atoms: C6_21  and  O6_75 
REMARK       I    between atoms: N_22  and  C2_66 
REMARK       I    between atoms: N_22  and  S1_69 
REMARK       I    between atoms: S2_23  and  O6_75 
REMARK       I    between atoms: C1_24  and  O4_78 
REMARK       I    between atoms: C4_25  and  O4_78 
REMARK       I    between atoms: O3_26  and  C3_81 
REMARK       I    between atoms: O1S_27  and  S1_60 
REMARK       I    between atoms: O3S_28  and  S1_69 
REMARK       I    between atoms: O3_29  and  C3_87 
REMARK       I    between atoms: C6_30  and  C5_80 
REMARK       I    between atoms: O2S_32  and  S1_60 
REMARK       I    between atoms: S1_33  and  N_73 
REMARK       I    between atoms: S1_33  and  O2S_94 
REMARK       I    between atoms: S1_33  and  O3S_35 
REMARK       I    between atoms: C6_34  and  C5_38 
REMARK       I    between atoms: C2_36  and  O2_93 
REMARK       I    between atoms: O3_37  and  C3_65 
REMARK       I    between atoms: C1_40  and  O1_105 
REMARK       I    between atoms: O2S_41  and  S1_69 
REMARK       I    between atoms: C5_42  and  C6_54 
REMARK       I    between atoms: O4_43  and  C4_92 
REMARK       I    between atoms: O1_44  and  C1_62 
REMARK       I    between atoms: O1_44  and  C4_83 
REMARK       I    between atoms: C1_45  and  O4_102 
REMARK       I    between atoms: C4_46  and  O1_105 
REMARK       I    between atoms: O3S_47  and  S1_60 
REMARK       I    between atoms: C5_53  and  C6_61 
REMARK       I    between atoms: C6_54  and  O6_98 
REMARK       I    between atoms: O3_56  and  C3_84 
REMARK       I    between atoms: C5_59  and  C6_63 
REMARK       I    between atoms: S1_60  and  N_86 
REMARK       I    between atoms: S1_69  and  O1S_91 
REMARK       I    between atoms: O1_70  and  C1_96 
REMARK       I    between atoms: S_82  and  O2_93 
REMARK       I    between atoms: N_86  and  C2_90 
REMARK       I    between atoms: S2_95  and  O6_98 
REMARK       I    between atoms: C4_100  and  O4_102 
ROOT
ATOM      1  S   IDS d 303      82.476  21.421 103.893  0.00  0.00     0.252 S 
ATOM      2  O2  IDS d 303      82.713  21.765 102.191  0.00  0.00    -0.244 OA
ATOM      3  O61 IDS d 303      85.513  23.130  97.400  0.00  0.00    -0.646 OA
ATOM      4  O3  IDS d 303      82.285  24.796 100.377  0.00  0.00    -0.390 OA
ATOM      5  O3S IDS d 303      81.442  22.313 104.356  0.00  0.00    -0.572 OA
ATOM      6  C1  IDS d 303      84.535  23.309 101.975  0.00  0.00     0.161 C 
ATOM      7  C4  IDS d 303      83.088  22.743  99.372  0.00  0.00     0.103 C 
ATOM      8  O2S IDS d 303      82.098  20.041 104.029  0.00  0.00    -0.572 OA
ATOM      9  C3  IDS d 303      82.357  23.429 100.549  0.00  0.00     0.094 C 
ATOM     10  C5  IDS d 303      84.591  22.926  99.563  0.00  0.00     0.152 C 
ATOM     11  C6  IDS d 303      85.375  22.408  98.390  0.00  0.00     0.206 C 
ATOM     12  O62 IDS d 303      86.014  21.356  98.582  0.00  0.00    -0.646 OA
ATOM     13  O5  IDS d 303      85.170  22.736 100.840  0.00  0.00    -0.340 OA
ATOM     14  C2  IDS d 303      83.008  23.093 101.901  0.00  0.00     0.134 C 
ATOM     15  O1S IDS d 303      83.714  21.666 104.558  0.00  0.00    -0.572 OA
ATOM     16  H   IDS d 303      81.873  24.994  99.522  0.00  0.00     0.210 HD
ATOM     17  H   IDS d 303      84.950  22.801 102.820  0.00  0.00     0.133 H 
ATOM     18  H   IDS d 303      82.733  23.169  98.456  0.00  0.00     0.092 H 
ATOM     19  H   IDS d 303      81.360  23.040 100.557  0.00  0.00     0.091 H 
ATOM     20  H   IDS d 303      84.688  23.991  99.567  0.00  0.00     0.104 H 
ATOM     21  H   IDS d 303      82.603  23.777 102.617  0.00  0.00     0.097 H 
ATOM     22  C3  SGN d 306      86.779  32.010 108.941  0.00  0.00     0.083 C 
ATOM     23  O1S SGN d 306      87.982  29.921 111.725  0.00  0.00    -0.296 OA
ATOM     24  O4S SGN d 306      79.788  32.138 106.847  0.00  0.00    -0.572 OA
ATOM     25  O5S SGN d 306      81.171  30.715 105.561  0.00  0.00    -0.572 OA
ATOM     26  C2  SGN d 306      86.042  31.853 110.262  0.00  0.00     0.081 C 
ATOM     27  O5  SGN d 306      83.982  32.539 109.185  0.00  0.00    -0.350 OA
ATOM     28  C6  SGN d 306      83.627  32.463 106.786  0.00  0.00     0.067 C 
ATOM     29  S2  SGN d 306      81.047  32.010 106.170  0.00  0.00     0.251 S 
ATOM     30  S1  SGN d 306      87.537  31.099 112.425  0.00  0.00     0.156 S 
ATOM     31  O3S SGN d 306      88.621  31.661 113.192  0.00  0.00    -0.296 OA
ATOM     32  O4  SGN d 306      86.503  31.833 106.547  0.00  0.00    -0.348 OA
ATOM     33  O3  SGN d 306      87.885  31.127 108.928  0.00  0.00    -0.391 OA
ATOM     34  O6S SGN d 306      81.195  33.036 105.168  0.00  0.00    -0.572 OA
ATOM     35  C5  SGN d 306      84.642  32.693 107.892  0.00  0.00     0.091 C 
ATOM     36  O1  SGN d 306      85.237  34.124 110.439  0.00  0.00    -0.369 OA
ATOM     37  N   SGN d 306      86.967  32.295 111.269  0.00  0.00    -0.210 NA
ATOM     38  O6  SGN d 306      82.356  32.181 107.328  0.00  0.00    -0.254 OA
ATOM     39  C4  SGN d 306      85.809  31.686 107.799  0.00  0.00     0.095 C 
ATOM     40  O2S SGN d 306      86.432  30.789 113.279  0.00  0.00    -0.296 OA
ATOM     41  C1  SGN d 306      84.811  32.768 110.348  0.00  0.00     0.147 C 
ATOM     42  H   SGN d 306      87.136  33.011 108.818  0.00  0.00     0.089 H 
ATOM     43  H   SGN d 306      87.246  29.551 111.213  0.00  0.00     0.231 HD
ATOM     44  H   SGN d 306      85.714  30.841 110.376  0.00  0.00     0.076 H 
ATOM     45  H   SGN d 306      83.944  31.637 106.185  0.00  0.00     0.080 H 
ATOM     46  H   SGN d 306      83.559  33.350 106.192  0.00  0.00     0.080 H 
ATOM     47  H   SGN d 306      89.362  31.867 112.602  0.00  0.00     0.231 HD
ATOM     48  H   SGN d 306      87.572  30.215 109.037  0.00  0.00     0.210 HD
ATOM     49  H   SGN d 306      85.039  33.681 107.786  0.00  0.00     0.090 H 
ATOM     50  H   SGN d 306      85.788  34.237 111.229  0.00  0.00     0.212 HD
ATOM     51  H   SGN d 306      86.511  33.039 111.797  0.00  0.00     0.140 HD
ATOM     52  H   SGN d 306      85.437  30.686 107.866  0.00  0.00     0.091 H 
ATOM     53  H   SGN d 306      85.712  30.412 112.750  0.00  0.00     0.231 HD
ATOM     54  H   SGN d 306      84.232  32.551 111.221  0.00  0.00     0.131 H 
ATOM     55  C2  UAP d 301      85.150  16.249  95.610  0.00  0.00     0.132 C 
ATOM     56  S   UAP d 301      85.135  15.696  93.047  0.00  0.00     0.252 S 
ATOM     57  O1S UAP d 301      85.642  14.568  92.368  0.00  0.00    -0.572 OA
ATOM     58  C1  UAP d 301      83.937  16.447  96.495  0.00  0.00     0.161 C 
ATOM     59  O61 UAP d 301      85.879  13.356  99.706  0.00  0.00    -0.646 OA
ATOM     60  C5  UAP d 301      84.989  14.889  98.079  0.00  0.00     0.127 C 
ATOM     61  O3  UAP d 301      87.134  17.164  96.498  0.00  0.00    -0.393 OA
ATOM     62  O2  UAP d 301      84.896  15.228  94.707  0.00  0.00    -0.244 OA
ATOM     63  O5  UAP d 301      83.822  15.433  97.488  0.00  0.00    -0.343 OA
ATOM     64  C6  UAP d 301      84.859  13.874  99.208  0.00  0.00     0.203 C 
ATOM     65  O62 UAP d 301      83.694  13.587  99.559  0.00  0.00    -0.646 OA
ATOM     66  O3S UAP d 301      83.844  16.067  92.556  0.00  0.00    -0.572 OA
ATOM     67  O2S UAP d 301      86.081  16.783  92.976  0.00  0.00    -0.572 OA
ATOM     68  C3  UAP d 301      86.502  15.944  96.273  0.00  0.00     0.069 C 
ATOM     69  C4  UAP d 301      86.420  15.136  97.599  0.00  0.00    -0.005 C 
ATOM     70  H   UAP d 301      85.275  17.217  95.172  0.00  0.00     0.097 H 
ATOM     71  H   UAP d 301      83.029  16.387  95.931  0.00  0.00     0.133 H 
ATOM     72  H   UAP d 301      84.763  15.931  97.994  0.00  0.00     0.100 H 
ATOM     73  H   UAP d 301      87.182  17.662  95.666  0.00  0.00     0.210 HD
ATOM     74  H   UAP d 301      87.049  15.308  95.607  0.00  0.00     0.087 H 
ATOM     75  H   UAP d 301      86.894  14.188  97.447  0.00  0.00     0.041 H 
ATOM     76  H   UAP d 301      86.907  15.719  98.352  0.00  0.00     0.041 H 
ATOM     77  O5  IDS d 305      86.422  29.527 105.834  0.00  0.00    -0.340 OA
ATOM     78  O62 IDS d 305      86.880  26.903 106.608  0.00  0.00    -0.646 OA
ATOM     79  C1  IDS d 305      86.247  30.902 105.486  0.00  0.00     0.161 C 
ATOM     80  O3  IDS d 305      89.431  31.135 104.243  0.00  0.00    -0.390 OA
ATOM     81  C6  IDS d 305      87.892  27.523 106.209  0.00  0.00     0.206 C 
ATOM     82  C2  IDS d 305      87.073  31.320 104.241  0.00  0.00     0.134 C 
ATOM     83  C5  IDS d 305      87.647  28.891 105.571  0.00  0.00     0.152 C 
ATOM     84  C3  IDS d 305      88.300  30.513 103.776  0.00  0.00     0.094 C 
ATOM     85  S   IDS d 305      85.080  31.004 102.373  0.00  0.00     0.252 S 
ATOM     86  C4  IDS d 305      88.288  29.031 104.198  0.00  0.00     0.103 C 
ATOM     87  O3S IDS d 305      84.474  31.881 101.440  0.00  0.00    -0.572 OA
ATOM     88  O1S IDS d 305      84.125  30.583 103.335  0.00  0.00    -0.572 OA
ATOM     89  O2  IDS d 305      86.348  31.936 103.184  0.00  0.00    -0.244 OA
ATOM     90  O61 IDS d 305      89.010  26.992 106.088  0.00  0.00    -0.646 OA
ATOM     91  O2S IDS d 305      85.661  29.886 101.722  0.00  0.00    -0.572 OA
ATOM     92  H   IDS d 305      85.203  30.956 105.261  0.00  0.00     0.133 H 
ATOM     93  H   IDS d 305      89.424  32.066 103.969  0.00  0.00     0.210 HD
ATOM     94  H   IDS d 305      87.600  32.093 104.762  0.00  0.00     0.097 H 
ATOM     95  H   IDS d 305      88.220  29.579 106.158  0.00  0.00     0.104 H 
ATOM     96  H   IDS d 305      88.278  30.496 102.706  0.00  0.00     0.091 H 
ATOM     97  H   IDS d 305      89.300  28.685 104.216  0.00  0.00     0.092 H 
ATOM     98  O6  SGN d 304      87.594  23.244 103.499  0.00  0.00    -0.254 OA
ATOM     99  S2  SGN d 304      87.796  21.631 104.142  0.00  0.00     0.251 S 
ATOM    100  O5S SGN d 304      88.417  20.827 103.122  0.00  0.00    -0.572 OA
ATOM    101  N   SGN d 304      87.439  28.320 100.583  0.00  0.00    -0.210 NA
ATOM    102  O3S SGN d 304      89.312  28.366  98.777  0.00  0.00    -0.296 OA
ATOM    103  C6  SGN d 304      86.828  24.175 104.259  0.00  0.00     0.067 C 
ATOM    104  O3  SGN d 304      85.596  26.299  99.986  0.00  0.00    -0.391 OA
ATOM    105  C5  SGN d 304      86.742  25.440 103.443  0.00  0.00     0.091 C 
ATOM    106  O2S SGN d 304      88.462  30.411  99.520  0.00  0.00    -0.296 OA
ATOM    107  O1  SGN d 304      87.518  28.253 103.273  0.00  0.00    -0.348 OA
ATOM    108  O4S SGN d 304      88.631  21.692 105.303  0.00  0.00    -0.572 OA
ATOM    109  C1  SGN d 304      88.190  27.201 102.576  0.00  0.00     0.150 C 
ATOM    110  C3  SGN d 304      86.123  26.488 101.285  0.00  0.00     0.083 C 
ATOM    111  C2  SGN d 304      87.559  27.011 101.176  0.00  0.00     0.081 C 
ATOM    112  S1  SGN d 304      88.864  29.104  99.915  0.00  0.00     0.156 S 
ATOM    113  O6S SGN d 304      86.490  21.106 104.468  0.00  0.00    -0.572 OA
ATOM    114  O1S SGN d 304      89.912  29.174 100.892  0.00  0.00    -0.296 OA
ATOM    115  O5  SGN d 304      88.090  25.956 103.292  0.00  0.00    -0.349 OA
ATOM    116  C4  SGN d 304      86.151  25.167 102.044  0.00  0.00     0.095 C 
ATOM    117  O4  SGN d 304      84.803  24.686 102.159  0.00  0.00    -0.348 OA
ATOM    118  H   SGN d 304      87.071  28.940 101.305  0.00  0.00     0.140 HD
ATOM    119  H   SGN d 304      88.600  28.323  98.120  0.00  0.00     0.231 HD
ATOM    120  H   SGN d 304      87.310  24.373 105.194  0.00  0.00     0.080 H 
ATOM    121  H   SGN d 304      85.853  23.787 104.470  0.00  0.00     0.080 H 
ATOM    122  H   SGN d 304      85.584  27.148  99.516  0.00  0.00     0.210 HD
ATOM    123  H   SGN d 304      86.103  26.140 103.940  0.00  0.00     0.090 H 
ATOM    124  H   SGN d 304      87.755  30.346  98.860  0.00  0.00     0.231 HD
ATOM    125  H   SGN d 304      89.221  27.475 102.489  0.00  0.00     0.131 H 
ATOM    126  H   SGN d 304      85.504  27.187 101.807  0.00  0.00     0.089 H 
ATOM    127  H   SGN d 304      88.165  26.330 100.616  0.00  0.00     0.076 H 
ATOM    128  H   SGN d 304      90.174  28.276 101.150  0.00  0.00     0.231 HD
ATOM    129  H   SGN d 304      86.745  24.433 101.540  0.00  0.00     0.091 H 
ATOM    130  O5S SGN d 302      81.875  21.555  92.356  0.00  0.00    -0.572 OA
ATOM    131  C4  SGN d 302      82.992  18.473  97.381  0.00  0.00     0.095 C 
ATOM    132  O1S SGN d 302      80.146  17.641 101.987  0.00  0.00    -0.296 OA
ATOM    133  O3  SGN d 302      82.577  17.177  99.352  0.00  0.00    -0.391 OA
ATOM    134  O2S SGN d 302      78.963  18.795 100.298  0.00  0.00    -0.296 OA
ATOM    135  C1  SGN d 302      81.783  20.779  98.649  0.00  0.00     0.150 C 
ATOM    136  C5  SGN d 302      83.230  19.892  96.884  0.00  0.00     0.091 C 
ATOM    137  O3S SGN d 302      79.500  19.903 102.294  0.00  0.00    -0.296 OA
ATOM    138  O5  SGN d 302      82.083  20.714  97.229  0.00  0.00    -0.349 OA
ATOM    139  C6  SGN d 302      83.453  19.872  95.378  0.00  0.00     0.067 C 
ATOM    140  S1  SGN d 302      79.935  18.912 101.341  0.00  0.00     0.156 S 
ATOM    141  O4S SGN d 302      83.417  22.789  93.655  0.00  0.00    -0.572 OA
ATOM    142  O6S SGN d 302      84.057  20.742  92.649  0.00  0.00    -0.572 OA
ATOM    143  O4  SGN d 302      84.120  17.705  97.079  0.00  0.00    -0.348 OA
ATOM    144  N   SGN d 302      81.450  19.434 100.592  0.00  0.00    -0.210 NA
ATOM    145  C3  SGN d 302      82.796  18.496  98.884  0.00  0.00     0.083 C 
ATOM    146  C2  SGN d 302      81.568  19.350  99.156  0.00  0.00     0.081 C 
ATOM    147  S2  SGN d 302      82.982  21.475  93.270  0.00  0.00     0.251 S 
ATOM    148  O6  SGN d 302      82.455  20.601  94.699  0.00  0.00    -0.254 OA
ATOM    149  O1  SGN d 302      82.860  21.330  99.406  0.00  0.00    -0.348 OA
ATOM    150  H   SGN d 302      82.124  18.059  96.914  0.00  0.00     0.091 H 
ATOM    151  H   SGN d 302      79.320  17.347 102.401  0.00  0.00     0.231 HD
ATOM    152  H   SGN d 302      83.363  16.637  99.176  0.00  0.00     0.210 HD
ATOM    153  H   SGN d 302      78.116  18.508 100.676  0.00  0.00     0.231 HD
ATOM    154  H   SGN d 302      80.920  21.400  98.770  0.00  0.00     0.131 H 
ATOM    155  H   SGN d 302      84.100  20.306  97.346  0.00  0.00     0.090 H 
ATOM    156  H   SGN d 302      78.669  19.615 102.703  0.00  0.00     0.231 HD
ATOM    157  H   SGN d 302      83.435  18.857  95.037  0.00  0.00     0.080 H 
ATOM    158  H   SGN d 302      84.400  20.325  95.173  0.00  0.00     0.080 H 
ATOM    159  H   SGN d 302      82.196  18.864 100.990  0.00  0.00     0.140 HD
ATOM    160  H   SGN d 302      83.655  18.893  99.382  0.00  0.00     0.089 H 
ATOM    161  H   SGN d 302      80.711  18.925  98.676  0.00  0.00     0.076 H 
ENDROOT
TORSDOF 50
ENDMDL
MODEL 68
REMARK VINA RESULT:      -9.3      6.078     15.008
REMARK  0 active torsions:
REMARK  status: ('A' for Active; 'I' for Inactive)
REMARK       I    between atoms: S_1  and  O2_2 
REMARK       I    between atoms: O2_2  and  C2_99 
REMARK       I    between atoms: C3_3  and  O3_50 
REMARK       I    between atoms: C2_5  and  O2_57 
REMARK       I    between atoms: O1S_6  and  S1_33 
REMARK       I    between atoms: O3_7  and  C3_52 
REMARK       I    between atoms: O6_9  and  C6_34 
REMARK       I    between atoms: O6_9  and  S2_17 
REMARK       I    between atoms: C2_13  and  N_73 
REMARK       I    between atoms: S_16  and  O2_57 
REMARK       I    between atoms: C1_20  and  O4_43 
REMARK       I    between atoms: C6_21  and  C5_67 
REMARK       I    between atoms: C6_21  and  O6_75 
REMARK       I    between atoms: N_22  and  C2_66 
REMARK       I    between atoms: N_22  and  S1_69 
REMARK       I    between atoms: S2_23  and  O6_75 
REMARK       I    between atoms: C1_24  and  O4_78 
REMARK       I    between atoms: C4_25  and  O4_78 
REMARK       I    between atoms: O3_26  and  C3_81 
REMARK       I    between atoms: O1S_27  and  S1_60 
REMARK       I    between atoms: O3S_28  and  S1_69 
REMARK       I    between atoms: O3_29  and  C3_87 
REMARK       I    between atoms: C6_30  and  C5_80 
REMARK       I    between atoms: O2S_32  and  S1_60 
REMARK       I    between atoms: S1_33  and  N_73 
REMARK       I    between atoms: S1_33  and  O2S_94 
REMARK       I    between atoms: S1_33  and  O3S_35 
REMARK       I    between atoms: C6_34  and  C5_38 
REMARK       I    between atoms: C2_36  and  O2_93 
REMARK       I    between atoms: O3_37  and  C3_65 
REMARK       I    between atoms: C1_40  and  O1_105 
REMARK       I    between atoms: O2S_41  and  S1_69 
REMARK       I    between atoms: C5_42  and  C6_54 
REMARK       I    between atoms: O4_43  and  C4_92 
REMARK       I    between atoms: O1_44  and  C1_62 
REMARK       I    between atoms: O1_44  and  C4_83 
REMARK       I    between atoms: C1_45  and  O4_102 
REMARK       I    between atoms: C4_46  and  O1_105 
REMARK       I    between atoms: O3S_47  and  S1_60 
REMARK       I    between atoms: C5_53  and  C6_61 
REMARK       I    between atoms: C6_54  and  O6_98 
REMARK       I    between atoms: O3_56  and  C3_84 
REMARK       I    between atoms: C5_59  and  C6_63 
REMARK       I    between atoms: S1_60  and  N_86 
REMARK       I    between atoms: S1_69  and  O1S_91 
REMARK       I    between atoms: O1_70  and  C1_96 
REMARK       I    between atoms: S_82  and  O2_93 
REMARK       I    between atoms: N_86  and  C2_90 
REMARK       I    between atoms: S2_95  and  O6_98 
REMARK       I    between atoms: C4_100  and  O4_102 
ROOT
ATOM      1  S   IDS d 303      88.250  25.255 103.529  0.00  0.00     0.252 S 
ATOM      2  O2  IDS d 303      87.186  25.755 102.228  0.00  0.00    -0.244 OA
ATOM      3  O61 IDS d 303      82.653  25.643  98.751  0.00  0.00    -0.646 OA
ATOM      4  O3  IDS d 303      87.308  25.019  98.749  0.00  0.00    -0.390 OA
ATOM      5  O3S IDS d 303      89.558  25.077 102.949  0.00  0.00    -0.572 OA
ATOM      6  C1  IDS d 303      86.077  23.812 101.367  0.00  0.00     0.161 C 
ATOM      7  C4  IDS d 303      85.551  26.336  99.772  0.00  0.00     0.103 C 
ATOM      8  O2S IDS d 303      88.243  26.278 104.538  0.00  0.00    -0.572 OA
ATOM      9  C3  IDS d 303      86.977  25.748  99.873  0.00  0.00     0.094 C 
ATOM     10  C5  IDS d 303      84.548  25.231 100.096  0.00  0.00     0.152 C 
ATOM     11  C6  IDS d 303      83.129  25.680  99.888  0.00  0.00     0.206 C 
ATOM     12  O62 IDS d 303      82.457  25.864 100.921  0.00  0.00    -0.646 OA
ATOM     13  O5  IDS d 303      84.780  24.364 101.190  0.00  0.00    -0.340 OA
ATOM     14  C2  IDS d 303      87.156  24.891 101.138  0.00  0.00     0.134 C 
ATOM     15  O1S IDS d 303      87.741  24.031 104.055  0.00  0.00    -0.572 OA
ATOM     16  H   IDS d 303      87.191  25.570  97.959  0.00  0.00     0.210 HD
ATOM     17  H   IDS d 303      86.100  23.459 102.376  0.00  0.00     0.133 H 
ATOM     18  H   IDS d 303      85.417  26.740  98.790  0.00  0.00     0.092 H 
ATOM     19  H   IDS d 303      87.646  26.580  99.940  0.00  0.00     0.091 H 
ATOM     20  H   IDS d 303      84.767  24.503  99.344  0.00  0.00     0.104 H 
ATOM     21  H   IDS d 303      88.066  24.342 101.013  0.00  0.00     0.097 H 
ATOM     22  C3  SGN d 306      90.708  13.514 100.032  0.00  0.00     0.083 C 
ATOM     23  O1S SGN d 306      90.800  12.710 103.625  0.00  0.00    -0.296 OA
ATOM     24  O4S SGN d 306      94.949  18.641  97.033  0.00  0.00    -0.572 OA
ATOM     25  O5S SGN d 306      92.755  19.359  97.544  0.00  0.00    -0.572 OA
ATOM     26  C2  SGN d 306      91.991  13.385 100.839  0.00  0.00     0.081 C 
ATOM     27  O5  SGN d 306      93.154  14.721  99.184  0.00  0.00    -0.350 OA
ATOM     28  C6  SGN d 306      92.035  16.186  97.608  0.00  0.00     0.067 C 
ATOM     29  S2  SGN d 306      93.553  18.314  96.967  0.00  0.00     0.251 S 
ATOM     30  S1  SGN d 306      91.867  11.882 103.121  0.00  0.00     0.156 S 
ATOM     31  O3S SGN d 306      91.622  10.500 103.448  0.00  0.00    -0.296 OA
ATOM     32  O4  SGN d 306      89.502  14.993  98.550  0.00  0.00    -0.348 OA
ATOM     33  O3  SGN d 306      89.604  13.417 100.913  0.00  0.00    -0.391 OA
ATOM     34  O6S SGN d 306      93.146  18.086  95.603  0.00  0.00    -0.572 OA
ATOM     35  C5  SGN d 306      91.946  14.883  98.381  0.00  0.00     0.091 C 
ATOM     36  O1  SGN d 306      93.336  12.350  99.120  0.00  0.00    -0.369 OA
ATOM     37  N   SGN d 306      91.973  12.052 101.374  0.00  0.00    -0.210 NA
ATOM     38  O6  SGN d 306      93.251  16.847  97.883  0.00  0.00    -0.254 OA
ATOM     39  C4  SGN d 306      90.716  14.867  99.314  0.00  0.00     0.095 C 
ATOM     40  O2S SGN d 306      93.125  12.305 103.655  0.00  0.00    -0.296 OA
ATOM     41  C1  SGN d 306      93.242  13.500  99.954  0.00  0.00     0.147 C 
ATOM     42  H   SGN d 306      90.635  12.735  99.302  0.00  0.00     0.089 H 
ATOM     43  H   SGN d 306      90.975  13.637 103.400  0.00  0.00     0.231 HD
ATOM     44  H   SGN d 306      92.033  14.159 101.578  0.00  0.00     0.076 H 
ATOM     45  H   SGN d 306      91.220  16.819  97.891  0.00  0.00     0.080 H 
ATOM     46  H   SGN d 306      91.990  15.969  96.561  0.00  0.00     0.080 H 
ATOM     47  H   SGN d 306      90.767  10.227 103.080  0.00  0.00     0.231 HD
ATOM     48  H   SGN d 306      89.660  14.120 101.579  0.00  0.00     0.210 HD
ATOM     49  H   SGN d 306      91.849  14.080  97.680  0.00  0.00     0.090 H 
ATOM     50  H   SGN d 306      93.393  11.554  99.671  0.00  0.00     0.212 HD
ATOM     51  H   SGN d 306      92.831  11.591 101.073  0.00  0.00     0.140 HD
ATOM     52  H   SGN d 306      90.769  15.683 100.004  0.00  0.00     0.091 H 
ATOM     53  H   SGN d 306      93.276  13.235 103.428  0.00  0.00     0.231 HD
ATOM     54  H   SGN d 306      94.130  13.541 100.550  0.00  0.00     0.131 H 
ATOM     55  C2  UAP d 301      80.028  31.077 102.528  0.00  0.00     0.132 C 
ATOM     56  S   UAP d 301      78.421  32.722 101.268  0.00  0.00     0.252 S 
ATOM     57  O1S UAP d 301      77.332  33.471 101.762  0.00  0.00    -0.572 OA
ATOM     58  C1  UAP d 301      81.526  31.229 102.688  0.00  0.00     0.161 C 
ATOM     59  O61 UAP d 301      81.017  30.399 107.450  0.00  0.00    -0.646 OA
ATOM     60  C5  UAP d 301      81.193  30.785 105.082  0.00  0.00     0.127 C 
ATOM     61  O3  UAP d 301      79.252  28.877 102.875  0.00  0.00    -0.393 OA
ATOM     62  O2  UAP d 301      79.428  32.323 102.631  0.00  0.00    -0.244 OA
ATOM     63  O5  UAP d 301      81.906  31.435 104.044  0.00  0.00    -0.343 OA
ATOM     64  C6  UAP d 301      81.663  30.932 106.524  0.00  0.00     0.203 C 
ATOM     65  O62 UAP d 301      82.686  31.627 106.703  0.00  0.00    -0.646 OA
ATOM     66  O3S UAP d 301      79.239  33.504 100.393  0.00  0.00    -0.572 OA
ATOM     67  O2S UAP d 301      77.946  31.514 100.639  0.00  0.00    -0.572 OA
ATOM     68  C3  UAP d 301      79.279  30.132 103.479  0.00  0.00     0.069 C 
ATOM     69  C4  UAP d 301      79.880  30.021 104.908  0.00  0.00    -0.005 C 
ATOM     70  H   UAP d 301      79.945  30.616 101.566  0.00  0.00     0.097 H 
ATOM     71  H   UAP d 301      81.888  32.090 102.165  0.00  0.00     0.133 H 
ATOM     72  H   UAP d 301      81.604  30.308 104.217  0.00  0.00     0.100 H 
ATOM     73  H   UAP d 301      78.876  28.955 101.985  0.00  0.00     0.210 HD
ATOM     74  H   UAP d 301      78.301  30.540 103.633  0.00  0.00     0.087 H 
ATOM     75  H   UAP d 301      79.167  30.410 105.606  0.00  0.00     0.041 H 
ATOM     76  H   UAP d 301      80.094  28.987 105.079  0.00  0.00     0.041 H 
ATOM     77  O5  IDS d 305      88.527  16.847  99.752  0.00  0.00    -0.340 OA
ATOM     78  O62 IDS d 305      87.899  17.832 102.267  0.00  0.00    -0.646 OA
ATOM     79  C1  IDS d 305      88.839  16.263  98.485  0.00  0.00     0.161 C 
ATOM     80  O3  IDS d 305      85.730  14.850  98.216  0.00  0.00    -0.390 OA
ATOM     81  C6  IDS d 305      87.056  17.042 101.781  0.00  0.00     0.206 C 
ATOM     82  C2  IDS d 305      87.602  16.136  97.557  0.00  0.00     0.134 C 
ATOM     83  C5  IDS d 305      87.255  16.650 100.317  0.00  0.00     0.152 C 
ATOM     84  C3  IDS d 305      86.166  16.147  98.116  0.00  0.00     0.094 C 
ATOM     85  S   IDS d 305      87.987  18.459  96.136  0.00  0.00     0.252 S 
ATOM     86  C4  IDS d 305      86.012  16.872  99.467  0.00  0.00     0.103 C 
ATOM     87  O3S IDS d 305      88.161  18.737  94.757  0.00  0.00    -0.572 OA
ATOM     88  O1S IDS d 305      89.161  18.806  96.853  0.00  0.00    -0.572 OA
ATOM     89  O2  IDS d 305      87.726  16.711  96.263  0.00  0.00    -0.244 OA
ATOM     90  O61 IDS d 305      85.979  16.772 102.337  0.00  0.00    -0.646 OA
ATOM     91  O2S IDS d 305      86.860  19.141  96.658  0.00  0.00    -0.572 OA
ATOM     92  H   IDS d 305      89.532  16.963  98.068  0.00  0.00     0.133 H 
ATOM     93  H   IDS d 305      85.833  14.407  97.358  0.00  0.00     0.210 HD
ATOM     94  H   IDS d 305      87.704  15.076  97.448  0.00  0.00     0.097 H 
ATOM     95  H   IDS d 305      87.337  15.583 100.322  0.00  0.00     0.104 H 
ATOM     96  H   IDS d 305      85.566  16.709  97.431  0.00  0.00     0.091 H 
ATOM     97  H   IDS d 305      85.146  16.479  99.956  0.00  0.00     0.092 H 
ATOM     98  O6  SGN d 304      84.566  21.267 103.079  0.00  0.00    -0.254 OA
ATOM     99  S2  SGN d 304      84.337  21.836 104.716  0.00  0.00     0.251 S 
ATOM    100  O5S SGN d 304      83.054  22.485 104.779  0.00  0.00    -0.572 OA
ATOM    101  N   SGN d 304      84.405  19.641  97.456  0.00  0.00    -0.210 NA
ATOM    102  O3S SGN d 304      81.936  19.407  96.668  0.00  0.00    -0.296 OA
ATOM    103  C6  SGN d 304      85.848  20.756 102.723  0.00  0.00     0.067 C 
ATOM    104  O3  SGN d 304      84.936  22.305  98.134  0.00  0.00    -0.391 OA
ATOM    105  C5  SGN d 304      85.794  20.424 101.253  0.00  0.00     0.091 C 
ATOM    106  O2S SGN d 304      83.577  18.255  95.470  0.00  0.00    -0.296 OA
ATOM    107  O1  SGN d 304      85.866  18.283  99.264  0.00  0.00    -0.348 OA
ATOM    108  O4S SGN d 304      84.373  20.718 105.609  0.00  0.00    -0.572 OA
ATOM    109  C1  SGN d 304      84.659  18.895  99.729  0.00  0.00     0.150 C 
ATOM    110  C3  SGN d 304      85.323  21.220  98.955  0.00  0.00     0.083 C 
ATOM    111  C2  SGN d 304      84.293  20.093  98.821  0.00  0.00     0.081 C 
ATOM    112  S1  SGN d 304      83.135  18.638  96.768  0.00  0.00     0.156 S 
ATOM    113  O6S SGN d 304      85.390  22.778 105.021  0.00  0.00    -0.572 OA
ATOM    114  O1S SGN d 304      82.903  17.480  97.582  0.00  0.00    -0.296 OA
ATOM    115  O5  SGN d 304      84.805  19.375 101.078  0.00  0.00    -0.349 OA
ATOM    116  C4  SGN d 304      85.375  21.650 100.416  0.00  0.00     0.095 C 
ATOM    117  O4  SGN d 304      86.351  22.695 100.541  0.00  0.00    -0.348 OA
ATOM    118  H   SGN d 304      85.272  19.107  97.391  0.00  0.00     0.140 HD
ATOM    119  H   SGN d 304      82.099  20.188  96.116  0.00  0.00     0.231 HD
ATOM    120  H   SGN d 304      86.065  19.875 103.291  0.00  0.00     0.080 H 
ATOM    121  H   SGN d 304      86.616  21.473 102.926  0.00  0.00     0.080 H 
ATOM    122  H   SGN d 304      84.908  22.016  97.208  0.00  0.00     0.210 HD
ATOM    123  H   SGN d 304      86.764  20.114 100.923  0.00  0.00     0.090 H 
ATOM    124  H   SGN d 304      83.728  19.049  94.933  0.00  0.00     0.231 HD
ATOM    125  H   SGN d 304      83.887  18.154  99.702  0.00  0.00     0.131 H 
ATOM    126  H   SGN d 304      86.292  20.886  98.646  0.00  0.00     0.089 H 
ATOM    127  H   SGN d 304      83.318  20.441  99.090  0.00  0.00     0.076 H 
ATOM    128  H   SGN d 304      82.603  17.757  98.462  0.00  0.00     0.231 HD
ATOM    129  H   SGN d 304      84.426  22.011 100.755  0.00  0.00     0.091 H 
ATOM    130  O5S SGN d 302      82.148  31.330  95.826  0.00  0.00    -0.572 OA
ATOM    131  C4  SGN d 302      83.318  30.073 101.575  0.00  0.00     0.095 C 
ATOM    132  O1S SGN d 302      87.927  29.970 104.534  0.00  0.00    -0.296 OA
ATOM    133  O3  SGN d 302      84.412  30.142 103.704  0.00  0.00    -0.391 OA
ATOM    134  O2S SGN d 302      88.190  30.799 102.336  0.00  0.00    -0.296 OA
ATOM    135  C1  SGN d 302      85.609  28.708 100.447  0.00  0.00     0.150 C 
ATOM    136  C5  SGN d 302      83.238  29.292 100.271  0.00  0.00     0.091 C 
ATOM    137  O3S SGN d 302      89.220  28.781 102.940  0.00  0.00    -0.296 OA
ATOM    138  O5  SGN d 302      84.546  29.284  99.641  0.00  0.00    -0.349 OA
ATOM    139  C6  SGN d 302      82.197  29.929  99.360  0.00  0.00     0.067 C 
ATOM    140  S1  SGN d 302      88.068  29.623 103.141  0.00  0.00     0.156 S 
ATOM    141  O4S SGN d 302      82.036  28.987  96.110  0.00  0.00    -0.572 OA
ATOM    142  O6S SGN d 302      80.406  30.396  97.092  0.00  0.00    -0.572 OA
ATOM    143  O4  SGN d 302      82.063  30.037 102.189  0.00  0.00    -0.348 OA
ATOM    144  N   SGN d 302      86.611  28.772 102.612  0.00  0.00    -0.210 NA
ATOM    145  C3  SGN d 302      84.336  29.420 102.488  0.00  0.00     0.083 C 
ATOM    146  C2  SGN d 302      85.674  29.477 101.769  0.00  0.00     0.081 C 
ATOM    147  S2  SGN d 302      81.793  30.263  96.722  0.00  0.00     0.251 S 
ATOM    148  O6  SGN d 302      82.780  30.406  98.168  0.00  0.00    -0.254 OA
ATOM    149  O1  SGN d 302      85.360  27.341 100.774  0.00  0.00    -0.348 OA
ATOM    150  H   SGN d 302      83.609  31.084 101.382  0.00  0.00     0.091 H 
ATOM    151  H   SGN d 302      88.722  30.438 104.832  0.00  0.00     0.231 HD
ATOM    152  H   SGN d 302      83.556  30.102 104.158  0.00  0.00     0.210 HD
ATOM    153  H   SGN d 302      88.983  31.292 102.602  0.00  0.00     0.231 HD
ATOM    154  H   SGN d 302      86.515  28.769  99.881  0.00  0.00     0.131 H 
ATOM    155  H   SGN d 302      82.942  28.282 100.462  0.00  0.00     0.090 H 
ATOM    156  H   SGN d 302      90.018  29.249 103.231  0.00  0.00     0.231 HD
ATOM    157  H   SGN d 302      81.739  30.748  99.875  0.00  0.00     0.080 H 
ATOM    158  H   SGN d 302      81.472  29.185  99.107  0.00  0.00     0.080 H 
ATOM    159  H   SGN d 302      86.106  28.487 103.451  0.00  0.00     0.140 HD
ATOM    160  H   SGN d 302      84.065  28.410 102.712  0.00  0.00     0.089 H 
ATOM    161  H   SGN d 302      85.946  30.494 101.578  0.00  0.00     0.076 H 
ENDROOT
TORSDOF 50
ENDMDL
MODEL 69
REMARK VINA RESULT:      -9.3      3.662      5.808
REMARK  0 active torsions:
REMARK  status: ('A' for Active; 'I' for Inactive)
REMARK       I    between atoms: S_1  and  O2_2 
REMARK       I    between atoms: O2_2  and  C2_99 
REMARK       I    between atoms: C3_3  and  O3_50 
REMARK       I    between atoms: C2_5  and  O2_57 
REMARK       I    between atoms: O1S_6  and  S1_33 
REMARK       I    between atoms: O3_7  and  C3_52 
REMARK       I    between atoms: O6_9  and  C6_34 
REMARK       I    between atoms: O6_9  and  S2_17 
REMARK       I    between atoms: C2_13  and  N_73 
REMARK       I    between atoms: S_16  and  O2_57 
REMARK       I    between atoms: C1_20  and  O4_43 
REMARK       I    between atoms: C6_21  and  C5_67 
REMARK       I    between atoms: C6_21  and  O6_75 
REMARK       I    between atoms: N_22  and  C2_66 
REMARK       I    between atoms: N_22  and  S1_69 
REMARK       I    between atoms: S2_23  and  O6_75 
REMARK       I    between atoms: C1_24  and  O4_78 
REMARK       I    between atoms: C4_25  and  O4_78 
REMARK       I    between atoms: O3_26  and  C3_81 
REMARK       I    between atoms: O1S_27  and  S1_60 
REMARK       I    between atoms: O3S_28  and  S1_69 
REMARK       I    between atoms: O3_29  and  C3_87 
REMARK       I    between atoms: C6_30  and  C5_80 
REMARK       I    between atoms: O2S_32  and  S1_60 
REMARK       I    between atoms: S1_33  and  N_73 
REMARK       I    between atoms: S1_33  and  O2S_94 
REMARK       I    between atoms: S1_33  and  O3S_35 
REMARK       I    between atoms: C6_34  and  C5_38 
REMARK       I    between atoms: C2_36  and  O2_93 
REMARK       I    between atoms: O3_37  and  C3_65 
REMARK       I    between atoms: C1_40  and  O1_105 
REMARK       I    between atoms: O2S_41  and  S1_69 
REMARK       I    between atoms: C5_42  and  C6_54 
REMARK       I    between atoms: O4_43  and  C4_92 
REMARK       I    between atoms: O1_44  and  C1_62 
REMARK       I    between atoms: O1_44  and  C4_83 
REMARK       I    between atoms: C1_45  and  O4_102 
REMARK       I    between atoms: C4_46  and  O1_105 
REMARK       I    between atoms: O3S_47  and  S1_60 
REMARK       I    between atoms: C5_53  and  C6_61 
REMARK       I    between atoms: C6_54  and  O6_98 
REMARK       I    between atoms: O3_56  and  C3_84 
REMARK       I    between atoms: C5_59  and  C6_63 
REMARK       I    between atoms: S1_60  and  N_86 
REMARK       I    between atoms: S1_69  and  O1S_91 
REMARK       I    between atoms: O1_70  and  C1_96 
REMARK       I    between atoms: S_82  and  O2_93 
REMARK       I    between atoms: N_86  and  C2_90 
REMARK       I    between atoms: S2_95  and  O6_98 
REMARK       I    between atoms: C4_100  and  O4_102 
ROOT
ATOM      1  S   IDS d 303      79.126  21.394 104.855  0.00  0.00     0.252 S 
ATOM      2  O2  IDS d 303      78.801  21.258 103.138  0.00  0.00    -0.244 OA
ATOM      3  O61 IDS d 303      79.724  19.925  97.659  0.00  0.00    -0.646 OA
ATOM      4  O3  IDS d 303      79.259  23.622 100.518  0.00  0.00    -0.390 OA
ATOM      5  O3S IDS d 303      78.960  22.785 105.200  0.00  0.00    -0.572 OA
ATOM      6  C1  IDS d 303      80.886  21.364 101.959  0.00  0.00     0.161 C 
ATOM      7  C4  IDS d 303      78.452  21.367 100.153  0.00  0.00     0.103 C 
ATOM      8  O2S IDS d 303      78.202  20.550 105.560  0.00  0.00    -0.572 OA
ATOM      9  C3  IDS d 303      78.701  22.526 101.144  0.00  0.00     0.094 C 
ATOM     10  C5  IDS d 303      79.776  20.650  99.904  0.00  0.00     0.152 C 
ATOM     11  C6  IDS d 303      79.653  19.592  98.844  0.00  0.00     0.206 C 
ATOM     12  O62 IDS d 303      79.697  18.412  99.242  0.00  0.00    -0.646 OA
ATOM     13  O5  IDS d 303      80.636  20.357 100.989  0.00  0.00    -0.340 OA
ATOM     14  C2  IDS d 303      79.575  22.087 102.332  0.00  0.00     0.134 C 
ATOM     15  O1S IDS d 303      80.467  20.958 105.074  0.00  0.00    -0.572 OA
ATOM     16  H   IDS d 303      78.698  23.888  99.772  0.00  0.00     0.210 HD
ATOM     17  H   IDS d 303      81.290  20.849 102.806  0.00  0.00     0.133 H 
ATOM     18  H   IDS d 303      78.026  21.770  99.258  0.00  0.00     0.092 H 
ATOM     19  H   IDS d 303      77.743  22.812 101.527  0.00  0.00     0.091 H 
ATOM     20  H   IDS d 303      80.384  21.435  99.504  0.00  0.00     0.104 H 
ATOM     21  H   IDS d 303      79.890  22.980 102.831  0.00  0.00     0.097 H 
ATOM     22  C3  SGN d 306      89.731  27.999 104.611  0.00  0.00     0.083 C 
ATOM     23  O1S SGN d 306      90.726  26.071 107.587  0.00  0.00    -0.296 OA
ATOM     24  O4S SGN d 306      83.579  31.916 104.331  0.00  0.00    -0.572 OA
ATOM     25  O5S SGN d 306      83.421  29.771 103.350  0.00  0.00    -0.572 OA
ATOM     26  C2  SGN d 306      89.613  28.518 106.036  0.00  0.00     0.081 C 
ATOM     27  O5  SGN d 306      87.940  30.113 105.306  0.00  0.00    -0.350 OA
ATOM     28  C6  SGN d 306      86.671  29.887 103.250  0.00  0.00     0.067 C 
ATOM     29  S2  SGN d 306      84.214  30.962 103.467  0.00  0.00     0.251 S 
ATOM     30  S1  SGN d 306      91.251  27.375 107.905  0.00  0.00     0.156 S 
ATOM     31  O3S SGN d 306      92.671  27.297 108.140  0.00  0.00    -0.296 OA
ATOM     32  O4  SGN d 306      88.475  27.646 102.577  0.00  0.00    -0.348 OA
ATOM     33  O3  SGN d 306      90.136  26.643 104.653  0.00  0.00    -0.391 OA
ATOM     34  O6S SGN d 306      84.440  31.528 102.161  0.00  0.00    -0.572 OA
ATOM     35  C5  SGN d 306      88.008  29.640 103.926  0.00  0.00     0.091 C 
ATOM     36  O1  SGN d 306      90.196  30.817 105.575  0.00  0.00    -0.369 OA
ATOM     37  N   SGN d 306      90.947  28.476 106.568  0.00  0.00    -0.210 NA
ATOM     38  O6  SGN d 306      85.768  30.503 104.142  0.00  0.00    -0.254 OA
ATOM     39  C4  SGN d 306      88.368  28.139 103.926  0.00  0.00     0.095 C 
ATOM     40  O2S SGN d 306      90.587  27.919 109.049  0.00  0.00    -0.296 OA
ATOM     41  C1  SGN d 306      89.156  29.985 106.078  0.00  0.00     0.147 C 
ATOM     42  H   SGN d 306      90.456  28.558 104.058  0.00  0.00     0.089 H 
ATOM     43  H   SGN d 306      89.771  26.135 107.432  0.00  0.00     0.231 HD
ATOM     44  H   SGN d 306      88.901  27.931 106.578  0.00  0.00     0.076 H 
ATOM     45  H   SGN d 306      86.263  28.952 102.927  0.00  0.00     0.080 H 
ATOM     46  H   SGN d 306      86.824  30.535 102.412  0.00  0.00     0.080 H 
ATOM     47  H   SGN d 306      93.108  26.927 107.357  0.00  0.00     0.231 HD
ATOM     48  H   SGN d 306      89.485  26.126 105.152  0.00  0.00     0.210 HD
ATOM     49  H   SGN d 306      88.764  30.169 103.383  0.00  0.00     0.090 H 
ATOM     50  H   SGN d 306      90.992  30.703 106.118  0.00  0.00     0.212 HD
ATOM     51  H   SGN d 306      91.178  29.417 106.888  0.00  0.00     0.140 HD
ATOM     52  H   SGN d 306      87.609  27.580 104.432  0.00  0.00     0.091 H 
ATOM     53  H   SGN d 306      89.633  27.966 108.877  0.00  0.00     0.231 HD
ATOM     54  H   SGN d 306      88.951  30.293 107.082  0.00  0.00     0.131 H 
ATOM     55  C2  UAP d 301      75.300  14.425  98.586  0.00  0.00     0.132 C 
ATOM     56  S   UAP d 301      73.990  13.595  96.472  0.00  0.00     0.252 S 
ATOM     57  O1S UAP d 301      73.546  12.297  96.141  0.00  0.00    -0.572 OA
ATOM     58  C1  UAP d 301      74.819  15.440  99.603  0.00  0.00     0.161 C 
ATOM     59  O61 UAP d 301      76.054  12.350 103.147  0.00  0.00    -0.646 OA
ATOM     60  C5  UAP d 301      75.484  13.834 101.340  0.00  0.00     0.127 C 
ATOM     61  O3  UAP d 301      77.638  14.111  98.590  0.00  0.00    -0.393 OA
ATOM     62  O2  UAP d 301      74.235  13.628  98.196  0.00  0.00    -0.244 OA
ATOM     63  O5  UAP d 301      74.621  14.862 100.889  0.00  0.00    -0.343 OA
ATOM     64  C6  UAP d 301      75.328  13.286 102.754  0.00  0.00     0.203 C 
ATOM     65  O62 UAP d 301      74.429  13.805 103.450  0.00  0.00    -0.646 OA
ATOM     66  O3S UAP d 301      72.986  14.577  96.202  0.00  0.00    -0.572 OA
ATOM     67  O2S UAP d 301      75.231  13.882  95.795  0.00  0.00    -0.572 OA
ATOM     68  C3  UAP d 301      76.453  13.486  98.974  0.00  0.00     0.069 C 
ATOM     69  C4  UAP d 301      76.517  13.105 100.479  0.00  0.00    -0.005 C 
ATOM     70  H   UAP d 301      75.704  15.047  97.815  0.00  0.00     0.097 H 
ATOM     71  H   UAP d 301      73.865  15.842  99.330  0.00  0.00     0.133 H 
ATOM     72  H   UAP d 301      75.795  14.777 100.945  0.00  0.00     0.100 H 
ATOM     73  H   UAP d 301      77.591  14.345  97.651  0.00  0.00     0.210 HD
ATOM     74  H   UAP d 301      76.292  12.556  98.470  0.00  0.00     0.087 H 
ATOM     75  H   UAP d 301      76.348  12.051 100.568  0.00  0.00     0.041 H 
ATOM     76  H   UAP d 301      77.483  13.395 100.836  0.00  0.00     0.041 H 
ATOM     77  O5  IDS d 305      86.979  25.761 102.777  0.00  0.00    -0.340 OA
ATOM     78  O62 IDS d 305      86.332  23.539 104.305  0.00  0.00    -0.646 OA
ATOM     79  C1  IDS d 305      87.390  26.897 102.013  0.00  0.00     0.161 C 
ATOM     80  O3  IDS d 305      89.460  24.998 100.051  0.00  0.00    -0.390 OA
ATOM     81  C6  IDS d 305      87.260  23.365 103.482  0.00  0.00     0.206 C 
ATOM     82  C2  IDS d 305      87.737  26.542 100.542  0.00  0.00     0.134 C 
ATOM     83  C5  IDS d 305      87.500  24.491 102.476  0.00  0.00     0.152 C 
ATOM     84  C3  IDS d 305      88.094  25.104 100.119  0.00  0.00     0.094 C 
ATOM     85  S   IDS d 305      85.300  27.181  99.440  0.00  0.00     0.252 S 
ATOM     86  C4  IDS d 305      87.514  24.007 101.033  0.00  0.00     0.103 C 
ATOM     87  O3S IDS d 305      84.899  28.087  98.427  0.00  0.00    -0.572 OA
ATOM     88  O1S IDS d 305      84.740  27.566 100.686  0.00  0.00    -0.572 OA
ATOM     89  O2  IDS d 305      87.065  27.292  99.540  0.00  0.00    -0.244 OA
ATOM     90  O61 IDS d 305      87.808  22.265 103.298  0.00  0.00    -0.646 OA
ATOM     91  O2S IDS d 305      84.931  25.852  99.114  0.00  0.00    -0.572 OA
ATOM     92  H   IDS d 305      86.524  27.523 102.037  0.00  0.00     0.133 H 
ATOM     93  H   IDS d 305      89.811  25.694  99.473  0.00  0.00     0.210 HD
ATOM     94  H   IDS d 305      88.736  26.921 100.612  0.00  0.00     0.097 H 
ATOM     95  H   IDS d 305      88.517  24.787 102.625  0.00  0.00     0.104 H 
ATOM     96  H   IDS d 305      87.641  24.936  99.164  0.00  0.00     0.091 H 
ATOM     97  H   IDS d 305      88.128  23.136 100.934  0.00  0.00     0.092 H 
ATOM     98  O6  SGN d 304      83.817  19.738 102.634  0.00  0.00    -0.254 OA
ATOM     99  S2  SGN d 304      83.425  18.445 103.743  0.00  0.00     0.251 S 
ATOM    100  O5S SGN d 304      83.094  17.282 102.962  0.00  0.00    -0.572 OA
ATOM    101  N   SGN d 304      85.064  23.382  98.223  0.00  0.00    -0.210 NA
ATOM    102  O3S SGN d 304      85.807  22.025  96.131  0.00  0.00    -0.296 OA
ATOM    103  C6  SGN d 304      83.995  21.047 103.170  0.00  0.00     0.067 C 
ATOM    104  O3  SGN d 304      82.399  22.785  98.843  0.00  0.00    -0.391 OA
ATOM    105  C5  SGN d 304      84.233  21.969 102.001  0.00  0.00     0.091 C 
ATOM    106  O2S SGN d 304      86.469  24.260  96.272  0.00  0.00    -0.296 OA
ATOM    107  O1  SGN d 304      86.165  23.704 100.659  0.00  0.00    -0.348 OA
ATOM    108  O4S SGN d 304      84.561  18.180 104.573  0.00  0.00    -0.572 OA
ATOM    109  C1  SGN d 304      85.879  22.365 100.246  0.00  0.00     0.150 C 
ATOM    110  C3  SGN d 304      83.418  22.825  99.824  0.00  0.00     0.083 C 
ATOM    111  C2  SGN d 304      84.740  22.369  99.198  0.00  0.00     0.081 C 
ATOM    112  S1  SGN d 304      86.284  23.051  97.001  0.00  0.00     0.156 S 
ATOM    113  O6S SGN d 304      82.288  18.856 104.536  0.00  0.00    -0.572 OA
ATOM    114  O1S SGN d 304      87.516  22.638  97.611  0.00  0.00    -0.296 OA
ATOM    115  O5  SGN d 304      85.468  21.553 101.360  0.00  0.00    -0.349 OA
ATOM    116  C4  SGN d 304      83.084  21.884 100.975  0.00  0.00     0.095 C 
ATOM    117  O4  SGN d 304      81.853  22.322 101.569  0.00  0.00    -0.348 OA
ATOM    118  H   SGN d 304      85.378  24.203  98.741  0.00  0.00     0.140 HD
ATOM    119  H   SGN d 304      84.975  22.310  95.722  0.00  0.00     0.231 HD
ATOM    120  H   SGN d 304      84.837  21.063 103.830  0.00  0.00     0.080 H 
ATOM    121  H   SGN d 304      83.135  21.351 103.730  0.00  0.00     0.080 H 
ATOM    122  H   SGN d 304      82.626  23.389  98.118  0.00  0.00     0.210 HD
ATOM    123  H   SGN d 304      84.289  22.979 102.351  0.00  0.00     0.090 H 
ATOM    124  H   SGN d 304      85.629  24.524  95.867  0.00  0.00     0.231 HD
ATOM    125  H   SGN d 304      86.774  21.957  99.824  0.00  0.00     0.131 H 
ATOM    126  H   SGN d 304      83.498  23.826 100.192  0.00  0.00     0.089 H 
ATOM    127  H   SGN d 304      84.644  21.384  98.792  0.00  0.00     0.076 H 
ATOM    128  H   SGN d 304      87.373  21.815  98.103  0.00  0.00     0.231 HD
ATOM    129  H   SGN d 304      82.974  20.873 100.641  0.00  0.00     0.091 H 
ATOM    130  O5S SGN d 302      74.126  20.048  94.527  0.00  0.00    -0.572 OA
ATOM    131  C4  SGN d 302      75.456  17.739  99.903  0.00  0.00     0.095 C 
ATOM    132  O1S SGN d 302      74.689  19.491 105.036  0.00  0.00    -0.296 OA
ATOM    133  O3  SGN d 302      75.276  17.270 102.245  0.00  0.00    -0.391 OA
ATOM    134  O2S SGN d 302      73.679  20.840 103.379  0.00  0.00    -0.296 OA
ATOM    135  C1  SGN d 302      76.180  20.476 100.511  0.00  0.00     0.150 C 
ATOM    136  C5  SGN d 302      76.147  18.641  98.891  0.00  0.00     0.091 C 
ATOM    137  O3S SGN d 302      75.441  21.709 104.659  0.00  0.00    -0.296 OA
ATOM    138  O5  SGN d 302      75.812  20.024  99.181  0.00  0.00    -0.349 OA
ATOM    139  C6  SGN d 302      75.707  18.256  97.485  0.00  0.00     0.067 C 
ATOM    140  S1  SGN d 302      74.902  20.519 104.048  0.00  0.00     0.156 S 
ATOM    141  O4S SGN d 302      76.446  20.311  94.894  0.00  0.00    -0.572 OA
ATOM    142  O6S SGN d 302      75.517  18.158  94.565  0.00  0.00    -0.572 OA
ATOM    143  O4  SGN d 302      75.819  16.416  99.637  0.00  0.00    -0.348 OA
ATOM    144  N   SGN d 302      76.029  19.916 102.826  0.00  0.00    -0.210 NA
ATOM    145  C3  SGN d 302      75.915  18.109 101.299  0.00  0.00     0.083 C 
ATOM    146  C2  SGN d 302      75.505  19.555 101.531  0.00  0.00     0.081 C 
ATOM    147  S2  SGN d 302      75.303  19.472  95.119  0.00  0.00     0.251 S 
ATOM    148  O6  SGN d 302      75.032  19.318  96.847  0.00  0.00    -0.254 OA
ATOM    149  O1  SGN d 302      77.585  20.391 100.743  0.00  0.00    -0.348 OA
ATOM    150  H   SGN d 302      74.394  17.854  99.835  0.00  0.00     0.091 H 
ATOM    151  H   SGN d 302      74.071  19.814 105.711  0.00  0.00     0.231 HD
ATOM    152  H   SGN d 302      75.542  16.350 102.092  0.00  0.00     0.210 HD
ATOM    153  H   SGN d 302      73.035  21.175 104.023  0.00  0.00     0.231 HD
ATOM    154  H   SGN d 302      75.874  21.497 100.603  0.00  0.00     0.131 H 
ATOM    155  H   SGN d 302      77.208  18.524  98.954  0.00  0.00     0.090 H 
ATOM    156  H   SGN d 302      74.822  22.038 105.328  0.00  0.00     0.231 HD
ATOM    157  H   SGN d 302      75.052  17.412  97.544  0.00  0.00     0.080 H 
ATOM    158  H   SGN d 302      76.580  18.021  96.913  0.00  0.00     0.080 H 
ATOM    159  H   SGN d 302      76.477  19.085 103.213  0.00  0.00     0.140 HD
ATOM    160  H   SGN d 302      76.973  17.991 101.404  0.00  0.00     0.089 H 
ATOM    161  H   SGN d 302      74.442  19.652 101.453  0.00  0.00     0.076 H 
ENDROOT
TORSDOF 50
ENDMDL
MODEL 70
REMARK VINA RESULT:      -9.3      3.620      6.128
REMARK  0 active torsions:
REMARK  status: ('A' for Active; 'I' for Inactive)
REMARK       I    between atoms: S_1  and  O2_2 
REMARK       I    between atoms: O2_2  and  C2_99 
REMARK       I    between atoms: C3_3  and  O3_50 
REMARK       I    between atoms: C2_5  and  O2_57 
REMARK       I    between atoms: O1S_6  and  S1_33 
REMARK       I    between atoms: O3_7  and  C3_52 
REMARK       I    between atoms: O6_9  and  C6_34 
REMARK       I    between atoms: O6_9  and  S2_17 
REMARK       I    between atoms: C2_13  and  N_73 
REMARK       I    between atoms: S_16  and  O2_57 
REMARK       I    between atoms: C1_20  and  O4_43 
REMARK       I    between atoms: C6_21  and  C5_67 
REMARK       I    between atoms: C6_21  and  O6_75 
REMARK       I    between atoms: N_22  and  C2_66 
REMARK       I    between atoms: N_22  and  S1_69 
REMARK       I    between atoms: S2_23  and  O6_75 
REMARK       I    between atoms: C1_24  and  O4_78 
REMARK       I    between atoms: C4_25  and  O4_78 
REMARK       I    between atoms: O3_26  and  C3_81 
REMARK       I    between atoms: O1S_27  and  S1_60 
REMARK       I    between atoms: O3S_28  and  S1_69 
REMARK       I    between atoms: O3_29  and  C3_87 
REMARK       I    between atoms: C6_30  and  C5_80 
REMARK       I    between atoms: O2S_32  and  S1_60 
REMARK       I    between atoms: S1_33  and  N_73 
REMARK       I    between atoms: S1_33  and  O2S_94 
REMARK       I    between atoms: S1_33  and  O3S_35 
REMARK       I    between atoms: C6_34  and  C5_38 
REMARK       I    between atoms: C2_36  and  O2_93 
REMARK       I    between atoms: O3_37  and  C3_65 
REMARK       I    between atoms: C1_40  and  O1_105 
REMARK       I    between atoms: O2S_41  and  S1_69 
REMARK       I    between atoms: C5_42  and  C6_54 
REMARK       I    between atoms: O4_43  and  C4_92 
REMARK       I    between atoms: O1_44  and  C1_62 
REMARK       I    between atoms: O1_44  and  C4_83 
REMARK       I    between atoms: C1_45  and  O4_102 
REMARK       I    between atoms: C4_46  and  O1_105 
REMARK       I    between atoms: O3S_47  and  S1_60 
REMARK       I    between atoms: C5_53  and  C6_61 
REMARK       I    between atoms: C6_54  and  O6_98 
REMARK       I    between atoms: O3_56  and  C3_84 
REMARK       I    between atoms: C5_59  and  C6_63 
REMARK       I    between atoms: S1_60  and  N_86 
REMARK       I    between atoms: S1_69  and  O1S_91 
REMARK       I    between atoms: O1_70  and  C1_96 
REMARK       I    between atoms: S_82  and  O2_93 
REMARK       I    between atoms: N_86  and  C2_90 
REMARK       I    between atoms: S2_95  and  O6_98 
REMARK       I    between atoms: C4_100  and  O4_102 
ROOT
ATOM      1  S   IDS d 303      84.069  19.600 106.144  0.00  0.00     0.252 S 
ATOM      2  O2  IDS d 303      83.027  19.120 104.819  0.00  0.00    -0.244 OA
ATOM      3  O61 IDS d 303      81.553  17.676  99.490  0.00  0.00    -0.646 OA
ATOM      4  O3  IDS d 303      80.991  21.091 102.666  0.00  0.00    -0.390 OA
ATOM      5  O3S IDS d 303      83.497  20.797 106.709  0.00  0.00    -0.572 OA
ATOM      6  C1  IDS d 303      83.930  20.006 102.783  0.00  0.00     0.161 C 
ATOM      7  C4  IDS d 303      81.220  18.688 102.454  0.00  0.00     0.103 C 
ATOM      8  O2S IDS d 303      84.117  18.525 107.096  0.00  0.00    -0.572 OA
ATOM      9  C3  IDS d 303      81.384  19.949 103.333  0.00  0.00     0.094 C 
ATOM     10  C5  IDS d 303      82.395  18.619 101.482  0.00  0.00     0.152 C 
ATOM     11  C6  IDS d 303      82.245  17.497 100.495  0.00  0.00     0.206 C 
ATOM     12  O62 IDS d 303      83.006  16.523 100.655  0.00  0.00    -0.646 OA
ATOM     13  O5  IDS d 303      83.708  18.883 101.942  0.00  0.00    -0.340 OA
ATOM     14  C2  IDS d 303      82.824  20.101 103.854  0.00  0.00     0.134 C 
ATOM     15  O1S IDS d 303      85.366  19.846 105.603  0.00  0.00    -0.572 OA
ATOM     16  H   IDS d 303      80.083  20.981 102.344  0.00  0.00     0.210 HD
ATOM     17  H   IDS d 303      84.884  19.837 103.236  0.00  0.00     0.133 H 
ATOM     18  H   IDS d 303      80.275  18.742 101.955  0.00  0.00     0.092 H 
ATOM     19  H   IDS d 303      80.740  19.817 104.178  0.00  0.00     0.091 H 
ATOM     20  H   IDS d 303      82.293  19.537 100.942  0.00  0.00     0.104 H 
ATOM     21  H   IDS d 303      82.907  21.095 104.243  0.00  0.00     0.097 H 
ATOM     22  C3  SGN d 306      88.838  30.184 101.522  0.00  0.00     0.083 C 
ATOM     23  O1S SGN d 306      91.932  29.298 103.312  0.00  0.00    -0.296 OA
ATOM     24  O4S SGN d 306      82.393  30.844 104.883  0.00  0.00    -0.572 OA
ATOM     25  O5S SGN d 306      82.743  28.753 103.835  0.00  0.00    -0.572 OA
ATOM     26  C2  SGN d 306      89.234  30.768 102.870  0.00  0.00     0.081 C 
ATOM     27  O5  SGN d 306      86.916  31.334 103.295  0.00  0.00    -0.350 OA
ATOM     28  C6  SGN d 306      85.046  30.307 102.140  0.00  0.00     0.067 C 
ATOM     29  S2  SGN d 306      82.855  30.178 103.698  0.00  0.00     0.251 S 
ATOM     30  S1  SGN d 306      91.896  30.727 103.497  0.00  0.00     0.156 S 
ATOM     31  O3S SGN d 306      93.100  31.327 102.977  0.00  0.00    -0.296 OA
ATOM     32  O4  SGN d 306      87.044  29.055 100.362  0.00  0.00    -0.348 OA
ATOM     33  O3  SGN d 306      89.765  29.174 101.173  0.00  0.00    -0.391 OA
ATOM     34  O6S SGN d 306      82.113  30.618 102.544  0.00  0.00    -0.572 OA
ATOM     35  C5  SGN d 306      86.485  30.775 102.017  0.00  0.00     0.091 C 
ATOM     36  O1  SGN d 306      88.405  33.006 102.493  0.00  0.00    -0.369 OA
ATOM     37  N   SGN d 306      90.507  31.398 102.653  0.00  0.00    -0.210 NA
ATOM     38  O6  SGN d 306      84.550  30.556 103.438  0.00  0.00    -0.254 OA
ATOM     39  C4  SGN d 306      87.422  29.609 101.635  0.00  0.00     0.095 C 
ATOM     40  O2S SGN d 306      91.736  31.051 104.881  0.00  0.00    -0.296 OA
ATOM     41  C1  SGN d 306      88.261  31.864 103.331  0.00  0.00     0.147 C 
ATOM     42  H   SGN d 306      88.846  30.937 100.761  0.00  0.00     0.089 H 
ATOM     43  H   SGN d 306      91.118  28.906 103.665  0.00  0.00     0.231 HD
ATOM     44  H   SGN d 306      89.242  29.996 103.611  0.00  0.00     0.076 H 
ATOM     45  H   SGN d 306      85.000  29.257 101.942  0.00  0.00     0.080 H 
ATOM     46  H   SGN d 306      84.448  30.845 101.434  0.00  0.00     0.080 H 
ATOM     47  H   SGN d 306      93.196  31.100 102.040  0.00  0.00     0.231 HD
ATOM     48  H   SGN d 306      89.766  28.485 101.856  0.00  0.00     0.210 HD
ATOM     49  H   SGN d 306      86.535  31.516 101.246  0.00  0.00     0.090 H 
ATOM     50  H   SGN d 306      89.318  33.331 102.544  0.00  0.00     0.212 HD
ATOM     51  H   SGN d 306      90.417  32.373 102.937  0.00  0.00     0.140 HD
ATOM     52  H   SGN d 306      87.365  28.837 102.373  0.00  0.00     0.091 H 
ATOM     53  H   SGN d 306      90.923  30.642 105.216  0.00  0.00     0.231 HD
ATOM     54  H   SGN d 306      88.475  32.169 104.334  0.00  0.00     0.131 H 
ATOM     55  C2  UAP d 301      81.207  10.937 101.756  0.00  0.00     0.132 C 
ATOM     56  S   UAP d 301      79.547   9.350 100.490  0.00  0.00     0.252 S 
ATOM     57  O1S UAP d 301      79.633   7.961 100.255  0.00  0.00    -0.572 OA
ATOM     58  C1  UAP d 301      80.908  11.743 103.003  0.00  0.00     0.161 C 
ATOM     59  O61 UAP d 301      84.984  10.008 105.003  0.00  0.00    -0.646 OA
ATOM     60  C5  UAP d 301      82.991  10.838 103.941  0.00  0.00     0.127 C 
ATOM     61  O3  UAP d 301      83.080  11.712 100.549  0.00  0.00    -0.393 OA
ATOM     62  O2  UAP d 301      80.580   9.703 101.847  0.00  0.00    -0.244 OA
ATOM     63  O5  UAP d 301      81.666  11.303 104.125  0.00  0.00    -0.343 OA
ATOM     64  C6  UAP d 301      83.831  10.459 105.155  0.00  0.00     0.203 C 
ATOM     65  O62 UAP d 301      83.284  10.600 106.270  0.00  0.00    -0.646 OA
ATOM     66  O3S UAP d 301      78.229   9.732 100.893  0.00  0.00    -0.572 OA
ATOM     67  O2S UAP d 301      79.997  10.078  99.329  0.00  0.00    -0.572 OA
ATOM     68  C3  UAP d 301      82.675  10.673 101.385  0.00  0.00     0.069 C 
ATOM     69  C4  UAP d 301      83.649  10.552 102.590  0.00  0.00    -0.005 C 
ATOM     70  H   UAP d 301      80.840  11.572 100.978  0.00  0.00     0.097 H 
ATOM     71  H   UAP d 301      79.885  11.635 103.300  0.00  0.00     0.133 H 
ATOM     72  H   UAP d 301      82.601  11.764 103.574  0.00  0.00     0.100 H 
ATOM     73  H   UAP d 301      82.467  11.781  99.800  0.00  0.00     0.210 HD
ATOM     74  H   UAP d 301      82.718   9.715 100.910  0.00  0.00     0.087 H 
ATOM     75  H   UAP d 301      84.041   9.556 102.610  0.00  0.00     0.041 H 
ATOM     76  H   UAP d 301      84.413  11.287 102.452  0.00  0.00     0.041 H 
ATOM     77  O5  IDS d 305      86.881  26.739 101.027  0.00  0.00    -0.340 OA
ATOM     78  O62 IDS d 305      88.164  24.673 102.359  0.00  0.00    -0.646 OA
ATOM     79  C1  IDS d 305      86.294  27.833 100.320  0.00  0.00     0.161 C 
ATOM     80  O3  IDS d 305      87.689  26.843  97.352  0.00  0.00    -0.390 OA
ATOM     81  C6  IDS d 305      88.516  24.835 101.169  0.00  0.00     0.206 C 
ATOM     82  C2  IDS d 305      85.971  27.493  98.841  0.00  0.00     0.134 C 
ATOM     83  C5  IDS d 305      87.684  25.813 100.339  0.00  0.00     0.152 C 
ATOM     84  C3  IDS d 305      86.665  26.330  98.108  0.00  0.00     0.094 C 
ATOM     85  S   IDS d 305      83.328  26.824  99.202  0.00  0.00     0.252 S 
ATOM     86  C4  IDS d 305      87.186  25.213  99.032  0.00  0.00     0.103 C 
ATOM     87  O3S IDS d 305      82.117  27.319  98.658  0.00  0.00    -0.572 OA
ATOM     88  O1S IDS d 305      83.366  27.067 100.600  0.00  0.00    -0.572 OA
ATOM     89  O2  IDS d 305      84.634  27.730  98.420  0.00  0.00    -0.244 OA
ATOM     90  O61 IDS d 305      89.320  24.086 100.589  0.00  0.00    -0.646 OA
ATOM     91  O2S IDS d 305      83.485  25.442  98.929  0.00  0.00    -0.572 OA
ATOM     92  H   IDS d 305      85.384  28.000 100.858  0.00  0.00     0.133 H 
ATOM     93  H   IDS d 305      87.346  27.545  96.776  0.00  0.00     0.210 HD
ATOM     94  H   IDS d 305      86.575  28.287  98.453  0.00  0.00     0.097 H 
ATOM     95  H   IDS d 305      88.379  26.552  99.998  0.00  0.00     0.104 H 
ATOM     96  H   IDS d 305      85.926  25.859  97.495  0.00  0.00     0.091 H 
ATOM     97  H   IDS d 305      87.980  24.706  98.524  0.00  0.00     0.092 H 
ATOM     98  O6  SGN d 304      87.165  19.972 101.677  0.00  0.00    -0.254 OA
ATOM     99  S2  SGN d 304      88.011  18.790 102.648  0.00  0.00     0.251 S 
ATOM    100  O5S SGN d 304      87.894  17.516 101.989  0.00  0.00    -0.572 OA
ATOM    101  N   SGN d 304      84.241  23.207  97.769  0.00  0.00    -0.210 NA
ATOM    102  O3S SGN d 304      84.347  22.082  95.425  0.00  0.00    -0.296 OA
ATOM    103  C6  SGN d 304      86.980  21.276 102.222  0.00  0.00     0.067 C 
ATOM    104  O3  SGN d 304      82.848  21.557  99.550  0.00  0.00    -0.391 OA
ATOM    105  C5  SGN d 304      86.156  22.054 101.227  0.00  0.00     0.091 C 
ATOM    106  O2S SGN d 304      83.908  24.374  95.515  0.00  0.00    -0.296 OA
ATOM    107  O1  SGN d 304      86.135  24.291  99.346  0.00  0.00    -0.348 OA
ATOM    108  O4S SGN d 304      89.386  19.171 102.754  0.00  0.00    -0.572 OA
ATOM    109  C1  SGN d 304      86.315  22.927  98.955  0.00  0.00     0.150 C 
ATOM    110  C3  SGN d 304      84.077  22.173  99.886  0.00  0.00     0.083 C 
ATOM    111  C2  SGN d 304      84.944  22.287  98.628  0.00  0.00     0.081 C 
ATOM    112  S1  SGN d 304      84.678  23.313  96.068  0.00  0.00     0.156 S 
ATOM    113  O6S SGN d 304      87.384  18.740 103.949  0.00  0.00    -0.572 OA
ATOM    114  O1S SGN d 304      86.080  23.578  95.919  0.00  0.00    -0.296 OA
ATOM    115  O5  SGN d 304      86.934  22.162 100.006  0.00  0.00    -0.349 OA
ATOM    116  C4  SGN d 304      84.829  21.333 100.912  0.00  0.00     0.095 C 
ATOM    117  O4  SGN d 304      84.021  21.240 102.094  0.00  0.00    -0.348 OA
ATOM    118  H   SGN d 304      84.367  24.139  98.165  0.00  0.00     0.140 HD
ATOM    119  H   SGN d 304      83.398  21.909  95.528  0.00  0.00     0.231 HD
ATOM    120  H   SGN d 304      87.928  21.752 102.368  0.00  0.00     0.080 H 
ATOM    121  H   SGN d 304      86.489  21.227 103.172  0.00  0.00     0.080 H 
ATOM    122  H   SGN d 304      82.381  22.102  98.898  0.00  0.00     0.210 HD
ATOM    123  H   SGN d 304      85.922  23.015 101.634  0.00  0.00     0.090 H 
ATOM    124  H   SGN d 304      82.964  24.179  95.624  0.00  0.00     0.231 HD
ATOM    125  H   SGN d 304      86.949  22.916  98.092  0.00  0.00     0.131 H 
ATOM    126  H   SGN d 304      83.873  23.140 100.296  0.00  0.00     0.089 H 
ATOM    127  H   SGN d 304      85.110  21.323  98.197  0.00  0.00     0.076 H 
ATOM    128  H   SGN d 304      86.590  22.846  96.301  0.00  0.00     0.231 HD
ATOM    129  H   SGN d 304      85.032  20.348 100.545  0.00  0.00     0.091 H 
ATOM    130  O5S SGN d 302      75.784  14.875  99.625  0.00  0.00    -0.572 OA
ATOM    131  C4  SGN d 302      80.501  14.100 103.250  0.00  0.00     0.095 C 
ATOM    132  O1S SGN d 302      81.729  15.942 108.261  0.00  0.00    -0.296 OA
ATOM    133  O3  SGN d 302      81.755  13.896 105.281  0.00  0.00    -0.391 OA
ATOM    134  O2S SGN d 302      79.545  16.473 107.529  0.00  0.00    -0.296 OA
ATOM    135  C1  SGN d 302      80.117  16.922 103.776  0.00  0.00     0.150 C 
ATOM    136  C5  SGN d 302      80.100  15.083 102.160  0.00  0.00     0.091 C 
ATOM    137  O3S SGN d 302      81.104  18.195 107.860  0.00  0.00    -0.296 OA
ATOM    138  O5  SGN d 302      79.379  16.191 102.761  0.00  0.00    -0.349 OA
ATOM    139  C6  SGN d 302      79.241  14.370 101.125  0.00  0.00     0.067 C 
ATOM    140  S1  SGN d 302      80.930  16.824 107.447  0.00  0.00     0.156 S 
ATOM    141  O4S SGN d 302      77.566  16.198  98.815  0.00  0.00    -0.572 OA
ATOM    142  O6S SGN d 302      77.677  13.835  98.708  0.00  0.00    -0.572 OA
ATOM    143  O4  SGN d 302      81.228  13.061 102.663  0.00  0.00    -0.348 OA
ATOM    144  N   SGN d 302      81.419  16.646 105.757  0.00  0.00    -0.210 NA
ATOM    145  C3  SGN d 302      81.377  14.808 104.265  0.00  0.00     0.083 C 
ATOM    146  C2  SGN d 302      80.543  15.930 104.862  0.00  0.00     0.081 C 
ATOM    147  S2  SGN d 302      77.209  14.969  99.466  0.00  0.00     0.251 S 
ATOM    148  O6  SGN d 302      77.946  14.925 101.059  0.00  0.00    -0.254 OA
ATOM    149  O1  SGN d 302      81.312  17.508 103.261  0.00  0.00    -0.348 OA
ATOM    150  H   SGN d 302      79.630  13.715 103.738  0.00  0.00     0.091 H 
ATOM    151  H   SGN d 302      81.466  16.033 109.190  0.00  0.00     0.231 HD
ATOM    152  H   SGN d 302      82.286  13.183 104.894  0.00  0.00     0.210 HD
ATOM    153  H   SGN d 302      79.243  16.560 108.447  0.00  0.00     0.231 HD
ATOM    154  H   SGN d 302      79.481  17.698 104.145  0.00  0.00     0.131 H 
ATOM    155  H   SGN d 302      80.969  15.466 101.668  0.00  0.00     0.090 H 
ATOM    156  H   SGN d 302      80.834  18.290 108.787  0.00  0.00     0.231 HD
ATOM    157  H   SGN d 302      79.163  13.336 101.389  0.00  0.00     0.080 H 
ATOM    158  H   SGN d 302      79.705  14.484 100.167  0.00  0.00     0.080 H 
ATOM    159  H   SGN d 302      82.317  16.162 105.752  0.00  0.00     0.140 HD
ATOM    160  H   SGN d 302      82.265  15.193 103.810  0.00  0.00     0.089 H 
ATOM    161  H   SGN d 302      79.674  15.527 105.340  0.00  0.00     0.076 H 
ENDROOT
TORSDOF 50
ENDMDL
MODEL 71
REMARK VINA RESULT:      -9.2      5.049      8.163
REMARK  0 active torsions:
REMARK  status: ('A' for Active; 'I' for Inactive)
REMARK       I    between atoms: S_1  and  O2_2 
REMARK       I    between atoms: O2_2  and  C2_99 
REMARK       I    between atoms: C3_3  and  O3_50 
REMARK       I    between atoms: C2_5  and  O2_57 
REMARK       I    between atoms: O1S_6  and  S1_33 
REMARK       I    between atoms: O3_7  and  C3_52 
REMARK       I    between atoms: O6_9  and  C6_34 
REMARK       I    between atoms: O6_9  and  S2_17 
REMARK       I    between atoms: C2_13  and  N_73 
REMARK       I    between atoms: S_16  and  O2_57 
REMARK       I    between atoms: C1_20  and  O4_43 
REMARK       I    between atoms: C6_21  and  C5_67 
REMARK       I    between atoms: C6_21  and  O6_75 
REMARK       I    between atoms: N_22  and  C2_66 
REMARK       I    between atoms: N_22  and  S1_69 
REMARK       I    between atoms: S2_23  and  O6_75 
REMARK       I    between atoms: C1_24  and  O4_78 
REMARK       I    between atoms: C4_25  and  O4_78 
REMARK       I    between atoms: O3_26  and  C3_81 
REMARK       I    between atoms: O1S_27  and  S1_60 
REMARK       I    between atoms: O3S_28  and  S1_69 
REMARK       I    between atoms: O3_29  and  C3_87 
REMARK       I    between atoms: C6_30  and  C5_80 
REMARK       I    between atoms: O2S_32  and  S1_60 
REMARK       I    between atoms: S1_33  and  N_73 
REMARK       I    between atoms: S1_33  and  O2S_94 
REMARK       I    between atoms: S1_33  and  O3S_35 
REMARK       I    between atoms: C6_34  and  C5_38 
REMARK       I    between atoms: C2_36  and  O2_93 
REMARK       I    between atoms: O3_37  and  C3_65 
REMARK       I    between atoms: C1_40  and  O1_105 
REMARK       I    between atoms: O2S_41  and  S1_69 
REMARK       I    between atoms: C5_42  and  C6_54 
REMARK       I    between atoms: O4_43  and  C4_92 
REMARK       I    between atoms: O1_44  and  C1_62 
REMARK       I    between atoms: O1_44  and  C4_83 
REMARK       I    between atoms: C1_45  and  O4_102 
REMARK       I    between atoms: C4_46  and  O1_105 
REMARK       I    between atoms: O3S_47  and  S1_60 
REMARK       I    between atoms: C5_53  and  C6_61 
REMARK       I    between atoms: C6_54  and  O6_98 
REMARK       I    between atoms: O3_56  and  C3_84 
REMARK       I    between atoms: C5_59  and  C6_63 
REMARK       I    between atoms: S1_60  and  N_86 
REMARK       I    between atoms: S1_69  and  O1S_91 
REMARK       I    between atoms: O1_70  and  C1_96 
REMARK       I    between atoms: S_82  and  O2_93 
REMARK       I    between atoms: N_86  and  C2_90 
REMARK       I    between atoms: S2_95  and  O6_98 
REMARK       I    between atoms: C4_100  and  O4_102 
ROOT
ATOM      1  S   IDS d 303      75.291  21.363  99.060  0.00  0.00     0.252 S 
ATOM      2  O2  IDS d 303      75.542  19.628  99.052  0.00  0.00    -0.244 OA
ATOM      3  O61 IDS d 303      75.925  14.320 101.132  0.00  0.00    -0.646 OA
ATOM      4  O3  IDS d 303      78.550  17.741  99.270  0.00  0.00    -0.390 OA
ATOM      5  O3S IDS d 303      76.472  21.955  98.481  0.00  0.00    -0.572 OA
ATOM      6  C1  IDS d 303      76.405  18.977 101.192  0.00  0.00     0.161 C 
ATOM      7  C4  IDS d 303      76.350  16.734  99.154  0.00  0.00     0.103 C 
ATOM      8  O2S IDS d 303      74.111  21.654  98.293  0.00  0.00    -0.572 OA
ATOM      9  C3  IDS d 303      77.235  17.982  98.932  0.00  0.00     0.094 C 
ATOM     10  C5  IDS d 303      76.030  16.626 100.643  0.00  0.00     0.152 C 
ATOM     11  C6  IDS d 303      75.286  15.362 100.969  0.00  0.00     0.206 C 
ATOM     12  O62 IDS d 303      74.082  15.496 101.261  0.00  0.00    -0.646 OA
ATOM     13  O5  IDS d 303      75.658  17.781 101.371  0.00  0.00    -0.340 OA
ATOM     14  C2  IDS d 303      76.701  19.206  99.695  0.00  0.00     0.134 C 
ATOM     15  O1S IDS d 303      75.116  21.766 100.417  0.00  0.00    -0.572 OA
ATOM     16  H   IDS d 303      78.874  16.967  98.782  0.00  0.00     0.210 HD
ATOM     17  H   IDS d 303      75.787  19.759 101.581  0.00  0.00     0.133 H 
ATOM     18  H   IDS d 303      76.871  15.876  98.781  0.00  0.00     0.092 H 
ATOM     19  H   IDS d 303      77.195  18.202  97.885  0.00  0.00     0.091 H 
ATOM     20  H   IDS d 303      77.005  16.545 101.076  0.00  0.00     0.104 H 
ATOM     21  H   IDS d 303      77.479  19.941  99.682  0.00  0.00     0.097 H 
ATOM     22  C3  SGN d 306      83.875  24.834 107.450  0.00  0.00     0.083 C 
ATOM     23  O1S SGN d 306      81.500  27.467 108.445  0.00  0.00    -0.296 OA
ATOM     24  O4S SGN d 306      86.291  24.090 100.604  0.00  0.00    -0.572 OA
ATOM     25  O5S SGN d 306      84.496  22.659 101.171  0.00  0.00    -0.572 OA
ATOM     26  C2  SGN d 306      83.964  26.278 106.981  0.00  0.00     0.081 C 
ATOM     27  O5  SGN d 306      85.290  25.566 105.080  0.00  0.00    -0.350 OA
ATOM     28  C6  SGN d 306      85.340  23.287 104.251  0.00  0.00     0.067 C 
ATOM     29  S2  SGN d 306      85.759  23.197 101.594  0.00  0.00     0.251 S 
ATOM     30  S1  SGN d 306      82.758  28.164 108.551  0.00  0.00     0.156 S 
ATOM     31  O3S SGN d 306      82.932  28.676 109.888  0.00  0.00    -0.296 OA
ATOM     32  O4  SGN d 306      83.803  22.550 106.663  0.00  0.00    -0.348 OA
ATOM     33  O3  SGN d 306      82.678  24.668 108.188  0.00  0.00    -0.391 OA
ATOM     34  O6S SGN d 306      86.682  22.123 101.862  0.00  0.00    -0.572 OA
ATOM     35  C5  SGN d 306      85.222  24.165 105.484  0.00  0.00     0.091 C 
ATOM     36  O1  SGN d 306      86.374  26.460 107.000  0.00  0.00    -0.369 OA
ATOM     37  N   SGN d 306      84.076  27.062 108.179  0.00  0.00    -0.210 NA
ATOM     38  O6  SGN d 306      85.489  24.075 103.090  0.00  0.00    -0.254 OA
ATOM     39  C4  SGN d 306      83.889  23.918 106.222  0.00  0.00     0.095 C 
ATOM     40  O2S SGN d 306      82.824  29.228 107.598  0.00  0.00    -0.296 OA
ATOM     41  C1  SGN d 306      85.233  26.536 106.152  0.00  0.00     0.147 C 
ATOM     42  H   SGN d 306      84.704  24.583 108.079  0.00  0.00     0.089 H 
ATOM     43  H   SGN d 306      81.393  27.128 107.543  0.00  0.00     0.231 HD
ATOM     44  H   SGN d 306      83.116  26.515 106.373  0.00  0.00     0.076 H 
ATOM     45  H   SGN d 306      84.457  22.690 104.159  0.00  0.00     0.080 H 
ATOM     46  H   SGN d 306      86.202  22.661 104.355  0.00  0.00     0.080 H 
ATOM     47  H   SGN d 306      82.884  27.945 110.523  0.00  0.00     0.231 HD
ATOM     48  H   SGN d 306      81.919  24.892 107.627  0.00  0.00     0.210 HD
ATOM     49  H   SGN d 306      86.026  23.924 106.148  0.00  0.00     0.090 H 
ATOM     50  H   SGN d 306      86.298  27.123 107.704  0.00  0.00     0.212 HD
ATOM     51  H   SGN d 306      84.927  27.619 108.101  0.00  0.00     0.140 HD
ATOM     52  H   SGN d 306      83.066  24.117 105.569  0.00  0.00     0.091 H 
ATOM     53  H   SGN d 306      82.705  28.869 106.705  0.00  0.00     0.231 HD
ATOM     54  H   SGN d 306      85.215  27.514 105.719  0.00  0.00     0.131 H 
ATOM     55  C2  UAP d 301      69.548  13.068  98.228  0.00  0.00     0.132 C 
ATOM     56  S   UAP d 301      69.036  10.593  97.528  0.00  0.00     0.252 S 
ATOM     57  O1S UAP d 301      67.805   9.903  97.499  0.00  0.00    -0.572 OA
ATOM     58  C1  UAP d 301      70.130  14.151  97.344  0.00  0.00     0.161 C 
ATOM     59  O61 UAP d 301      66.566  17.126  98.786  0.00  0.00    -0.646 OA
ATOM     60  C5  UAP d 301      68.310  15.603  98.132  0.00  0.00     0.127 C 
ATOM     61  O3  UAP d 301      69.760  13.506 100.536  0.00  0.00    -0.393 OA
ATOM     62  O2  UAP d 301      68.668  12.295  97.485  0.00  0.00    -0.244 OA
ATOM     63  O5  UAP d 301      69.207  15.209  97.109  0.00  0.00    -0.343 OA
ATOM     64  C6  UAP d 301      67.391  16.798  97.909  0.00  0.00     0.203 C 
ATOM     65  O62 UAP d 301      67.500  17.380  96.808  0.00  0.00    -0.646 OA
ATOM     66  O3S UAP d 301      69.810  10.331  96.354  0.00  0.00    -0.572 OA
ATOM     67  O2S UAP d 301      69.753  10.277  98.739  0.00  0.00    -0.572 OA
ATOM     68  C3  UAP d 301      68.814  13.482  99.513  0.00  0.00     0.069 C 
ATOM     69  C4  UAP d 301      68.075  14.847  99.441  0.00  0.00    -0.005 C 
ATOM     70  H   UAP d 301      70.422  12.553  98.568  0.00  0.00     0.097 H 
ATOM     71  H   UAP d 301      70.372  13.772  96.373  0.00  0.00     0.133 H 
ATOM     72  H   UAP d 301      69.369  15.496  98.241  0.00  0.00     0.100 H 
ATOM     73  H   UAP d 301      70.216  12.651 100.575  0.00  0.00     0.210 HD
ATOM     74  H   UAP d 301      68.037  12.766  99.683  0.00  0.00     0.087 H 
ATOM     75  H   UAP d 301      67.025  14.669  99.545  0.00  0.00     0.041 H 
ATOM     76  H   UAP d 301      68.465  15.457 100.229  0.00  0.00     0.041 H 
ATOM     77  O5  IDS d 305      81.652  22.013 105.705  0.00  0.00    -0.340 OA
ATOM     78  O62 IDS d 305      79.022  22.850 105.439  0.00  0.00    -0.646 OA
ATOM     79  C1  IDS d 305      83.009  21.618 105.916  0.00  0.00     0.161 C 
ATOM     80  O3  IDS d 305      82.189  19.785 108.692  0.00  0.00    -0.390 OA
ATOM     81  C6  IDS d 305      79.276  22.229 106.496  0.00  0.00     0.206 C 
ATOM     82  C2  IDS d 305      83.137  20.216 106.568  0.00  0.00     0.134 C 
ATOM     83  C5  IDS d 305      80.650  21.564 106.583  0.00  0.00     0.152 C 
ATOM     84  C3  IDS d 305      81.974  19.579 107.353  0.00  0.00     0.094 C 
ATOM     85  S   IDS d 305      83.495  18.780 104.250  0.00  0.00     0.252 S 
ATOM     86  C4  IDS d 305      80.577  20.089 106.948  0.00  0.00     0.103 C 
ATOM     87  O3S IDS d 305      84.525  17.924 103.786  0.00  0.00    -0.572 OA
ATOM     88  O1S IDS d 305      83.409  19.929 103.422  0.00  0.00    -0.572 OA
ATOM     89  O2  IDS d 305      83.958  19.278 105.886  0.00  0.00    -0.244 OA
ATOM     90  O61 IDS d 305      78.409  21.934 107.336  0.00  0.00    -0.646 OA
ATOM     91  O2S IDS d 305      82.251  18.103 104.300  0.00  0.00    -0.572 OA
ATOM     92  H   IDS d 305      83.404  21.590 104.922  0.00  0.00     0.133 H 
ATOM     93  H   IDS d 305      83.072  19.460 108.931  0.00  0.00     0.210 HD
ATOM     94  H   IDS d 305      83.693  20.578 107.408  0.00  0.00     0.097 H 
ATOM     95  H   IDS d 305      81.112  21.989 107.451  0.00  0.00     0.104 H 
ATOM     96  H   IDS d 305      81.967  18.536 107.114  0.00  0.00     0.091 H 
ATOM     97  H   IDS d 305      79.917  19.938 107.777  0.00  0.00     0.092 H 
ATOM     98  O6  SGN d 304      75.338  19.899 104.307  0.00  0.00    -0.254 OA
ATOM     99  S2  SGN d 304      73.746  20.592 104.103  0.00  0.00     0.251 S 
ATOM    100  O5S SGN d 304      72.785  19.527 104.216  0.00  0.00    -0.572 OA
ATOM    101  N   SGN d 304      80.191  16.751 105.216  0.00  0.00    -0.210 NA
ATOM    102  O3S SGN d 304      79.625  14.625 106.606  0.00  0.00    -0.296 OA
ATOM    103  C6  SGN d 304      76.467  20.730 104.047  0.00  0.00     0.067 C 
ATOM    104  O3  SGN d 304      78.887  16.640 102.741  0.00  0.00    -0.391 OA
ATOM    105  C5  SGN d 304      77.692  19.866 104.212  0.00  0.00     0.091 C 
ATOM    106  O2S SGN d 304      81.833  15.384 106.625  0.00  0.00    -0.296 OA
ATOM    107  O1  SGN d 304      80.096  19.377 105.802  0.00  0.00    -0.348 OA
ATOM    108  O4S SGN d 304      73.528  21.569 105.125  0.00  0.00    -0.572 OA
ATOM    109  C1  SGN d 304      78.883  18.633 105.947  0.00  0.00     0.150 C 
ATOM    110  C3  SGN d 304      78.889  17.802 103.548  0.00  0.00     0.083 C 
ATOM    111  C2  SGN d 304      78.913  17.391 105.024  0.00  0.00     0.081 C 
ATOM    112  S1  SGN d 304      80.466  15.778 106.655  0.00  0.00     0.156 S 
ATOM    113  O6S SGN d 304      73.677  21.191 102.789  0.00  0.00    -0.572 OA
ATOM    114  O1S SGN d 304      80.186  16.534 107.842  0.00  0.00    -0.296 OA
ATOM    115  O5  SGN d 304      77.737  19.432 105.597  0.00  0.00    -0.349 OA
ATOM    116  C4  SGN d 304      77.630  18.624 103.300  0.00  0.00     0.095 C 
ATOM    117  O4  SGN d 304      77.618  19.020 101.920  0.00  0.00    -0.348 OA
ATOM    118  H   SGN d 304      80.895  17.489 105.219  0.00  0.00     0.140 HD
ATOM    119  H   SGN d 304      79.819  14.118 105.803  0.00  0.00     0.231 HD
ATOM    120  H   SGN d 304      76.493  21.543 104.743  0.00  0.00     0.080 H 
ATOM    121  H   SGN d 304      76.419  21.144 103.062  0.00  0.00     0.080 H 
ATOM    122  H   SGN d 304      79.694  16.128 102.910  0.00  0.00     0.210 HD
ATOM    123  H   SGN d 304      78.562  20.430 103.944  0.00  0.00     0.090 H 
ATOM    124  H   SGN d 304      82.005  14.874 105.818  0.00  0.00     0.231 HD
ATOM    125  H   SGN d 304      78.804  18.336 106.972  0.00  0.00     0.131 H 
ATOM    126  H   SGN d 304      79.752  18.386 103.303  0.00  0.00     0.089 H 
ATOM    127  H   SGN d 304      78.072  16.772 105.255  0.00  0.00     0.076 H 
ATOM    128  H   SGN d 304      79.252  16.794 107.847  0.00  0.00     0.231 HD
ATOM    129  H   SGN d 304      76.743  18.063 103.514  0.00  0.00     0.091 H 
ATOM    130  O5S SGN d 302      75.641  10.161  96.257  0.00  0.00    -0.572 OA
ATOM    131  C4  SGN d 302      72.352  15.070  97.297  0.00  0.00     0.095 C 
ATOM    132  O1S SGN d 302      72.488  20.172  95.309  0.00  0.00    -0.296 OA
ATOM    133  O3  SGN d 302      71.259  17.160  96.887  0.00  0.00    -0.391 OA
ATOM    134  O2S SGN d 302      73.969  18.667  94.249  0.00  0.00    -0.296 OA
ATOM    135  C1  SGN d 302      74.924  16.394  97.170  0.00  0.00     0.150 C 
ATOM    136  C5  SGN d 302      73.616  14.448  97.875  0.00  0.00     0.091 C 
ATOM    137  O3S SGN d 302      74.835  20.452  95.499  0.00  0.00    -0.296 OA
ATOM    138  O5  SGN d 302      74.767  14.950  97.146  0.00  0.00    -0.349 OA
ATOM    139  C6  SGN d 302      73.527  12.931  97.776  0.00  0.00     0.067 C 
ATOM    140  S1  SGN d 302      73.759  19.498  95.394  0.00  0.00     0.156 S 
ATOM    141  O4S SGN d 302      76.298  11.066  98.338  0.00  0.00    -0.572 OA
ATOM    142  O6S SGN d 302      74.157  10.088  98.074  0.00  0.00    -0.572 OA
ATOM    143  O4  SGN d 302      71.257  14.609  98.034  0.00  0.00    -0.348 OA
ATOM    144  N   SGN d 302      73.758  18.446  96.816  0.00  0.00    -0.210 NA
ATOM    145  C3  SGN d 302      72.434  16.578  97.421  0.00  0.00     0.083 C 
ATOM    146  C2  SGN d 302      73.643  17.022  96.613  0.00  0.00     0.081 C 
ATOM    147  S2  SGN d 302      75.201  10.853  97.437  0.00  0.00     0.251 S 
ATOM    148  O6  SGN d 302      74.544  12.408  96.952  0.00  0.00    -0.254 OA
ATOM    149  O1  SGN d 302      75.090  16.899  98.495  0.00  0.00    -0.348 OA
ATOM    150  H   SGN d 302      72.246  14.801  96.267  0.00  0.00     0.091 H 
ATOM    151  H   SGN d 302      72.480  20.752  94.531  0.00  0.00     0.231 HD
ATOM    152  H   SGN d 302      70.491  16.874  97.407  0.00  0.00     0.210 HD
ATOM    153  H   SGN d 302      73.975  19.214  93.448  0.00  0.00     0.231 HD
ATOM    154  H   SGN d 302      75.793  16.636  96.596  0.00  0.00     0.131 H 
ATOM    155  H   SGN d 302      73.721  14.711  98.906  0.00  0.00     0.090 H 
ATOM    156  H   SGN d 302      74.835  21.028  94.718  0.00  0.00     0.231 HD
ATOM    157  H   SGN d 302      72.575  12.665  97.365  0.00  0.00     0.080 H 
ATOM    158  H   SGN d 302      73.645  12.523  98.757  0.00  0.00     0.080 H 
ATOM    159  H   SGN d 302      72.974  18.732  97.402  0.00  0.00     0.140 HD
ATOM    160  H   SGN d 302      72.527  16.879  98.443  0.00  0.00     0.089 H 
ATOM    161  H   SGN d 302      73.523  16.740  95.587  0.00  0.00     0.076 H 
ENDROOT
TORSDOF 50
ENDMDL
MODEL 72
REMARK VINA RESULT:      -9.2      4.945     15.513
REMARK  0 active torsions:
REMARK  status: ('A' for Active; 'I' for Inactive)
REMARK       I    between atoms: S_1  and  O2_2 
REMARK       I    between atoms: O2_2  and  C2_99 
REMARK       I    between atoms: C3_3  and  O3_50 
REMARK       I    between atoms: C2_5  and  O2_57 
REMARK       I    between atoms: O1S_6  and  S1_33 
REMARK       I    between atoms: O3_7  and  C3_52 
REMARK       I    between atoms: O6_9  and  C6_34 
REMARK       I    between atoms: O6_9  and  S2_17 
REMARK       I    between atoms: C2_13  and  N_73 
REMARK       I    between atoms: S_16  and  O2_57 
REMARK       I    between atoms: C1_20  and  O4_43 
REMARK       I    between atoms: C6_21  and  C5_67 
REMARK       I    between atoms: C6_21  and  O6_75 
REMARK       I    between atoms: N_22  and  C2_66 
REMARK       I    between atoms: N_22  and  S1_69 
REMARK       I    between atoms: S2_23  and  O6_75 
REMARK       I    between atoms: C1_24  and  O4_78 
REMARK       I    between atoms: C4_25  and  O4_78 
REMARK       I    between atoms: O3_26  and  C3_81 
REMARK       I    between atoms: O1S_27  and  S1_60 
REMARK       I    between atoms: O3S_28  and  S1_69 
REMARK       I    between atoms: O3_29  and  C3_87 
REMARK       I    between atoms: C6_30  and  C5_80 
REMARK       I    between atoms: O2S_32  and  S1_60 
REMARK       I    between atoms: S1_33  and  N_73 
REMARK       I    between atoms: S1_33  and  O2S_94 
REMARK       I    between atoms: S1_33  and  O3S_35 
REMARK       I    between atoms: C6_34  and  C5_38 
REMARK       I    between atoms: C2_36  and  O2_93 
REMARK       I    between atoms: O3_37  and  C3_65 
REMARK       I    between atoms: C1_40  and  O1_105 
REMARK       I    between atoms: O2S_41  and  S1_69 
REMARK       I    between atoms: C5_42  and  C6_54 
REMARK       I    between atoms: O4_43  and  C4_92 
REMARK       I    between atoms: O1_44  and  C1_62 
REMARK       I    between atoms: O1_44  and  C4_83 
REMARK       I    between atoms: C1_45  and  O4_102 
REMARK       I    between atoms: C4_46  and  O1_105 
REMARK       I    between atoms: O3S_47  and  S1_60 
REMARK       I    between atoms: C5_53  and  C6_61 
REMARK       I    between atoms: C6_54  and  O6_98 
REMARK       I    between atoms: O3_56  and  C3_84 
REMARK       I    between atoms: C5_59  and  C6_63 
REMARK       I    between atoms: S1_60  and  N_86 
REMARK       I    between atoms: S1_69  and  O1S_91 
REMARK       I    between atoms: O1_70  and  C1_96 
REMARK       I    between atoms: S_82  and  O2_93 
REMARK       I    between atoms: N_86  and  C2_90 
REMARK       I    between atoms: S2_95  and  O6_98 
REMARK       I    between atoms: C4_100  and  O4_102 
ROOT
ATOM      1  S   IDS d 303      87.080  28.477 100.125  0.00  0.00     0.252 S 
ATOM      2  O2  IDS d 303      86.532  28.345 101.785  0.00  0.00    -0.244 OA
ATOM      3  O61 IDS d 303      85.450  25.887 106.829  0.00  0.00    -0.646 OA
ATOM      4  O3  IDS d 303      83.280  27.720 103.089  0.00  0.00    -0.390 OA
ATOM      5  O3S IDS d 303      85.966  28.981  99.360  0.00  0.00    -0.572 OA
ATOM      6  C1  IDS d 303      85.796  26.095 102.165  0.00  0.00     0.161 C 
ATOM      7  C4  IDS d 303      85.248  27.974 104.479  0.00  0.00     0.103 C 
ATOM      8  O2S IDS d 303      88.206  29.368 100.089  0.00  0.00    -0.572 OA
ATOM      9  C3  IDS d 303      84.575  28.196 103.105  0.00  0.00     0.094 C 
ATOM     10  C5  IDS d 303      85.697  26.518 104.569  0.00  0.00     0.152 C 
ATOM     11  C6  IDS d 303      86.240  26.178 105.928  0.00  0.00     0.206 C 
ATOM     12  O62 IDS d 303      87.473  26.010 105.998  0.00  0.00    -0.646 OA
ATOM     13  O5  IDS d 303      86.338  25.907 103.465  0.00  0.00    -0.340 OA
ATOM     14  C2  IDS d 303      85.390  27.569 101.961  0.00  0.00     0.134 C 
ATOM     15  O1S IDS d 303      87.462  27.172  99.694  0.00  0.00    -0.572 OA
ATOM     16  H   IDS d 303      82.778  28.123 103.815  0.00  0.00     0.210 HD
ATOM     17  H   IDS d 303      86.578  25.818 101.488  0.00  0.00     0.133 H 
ATOM     18  H   IDS d 303      84.550  28.238 105.247  0.00  0.00     0.092 H 
ATOM     19  H   IDS d 303      84.544  29.254 102.948  0.00  0.00     0.091 H 
ATOM     20  H   IDS d 303      84.774  25.991 104.452  0.00  0.00     0.104 H 
ATOM     21  H   IDS d 303      84.755  27.559 101.099  0.00  0.00     0.097 H 
ATOM     22  C3  SGN d 306      80.148  19.572  94.760  0.00  0.00     0.083 C 
ATOM     23  O1S SGN d 306      83.034  18.982  92.550  0.00  0.00    -0.296 OA
ATOM     24  O4S SGN d 306      76.941  26.098  95.396  0.00  0.00    -0.572 OA
ATOM     25  O5S SGN d 306      78.509  25.606  97.096  0.00  0.00    -0.572 OA
ATOM     26  C2  SGN d 306      80.262  20.127  93.348  0.00  0.00     0.081 C 
ATOM     27  O5  SGN d 306      78.643  21.844  93.903  0.00  0.00    -0.350 OA
ATOM     28  C6  SGN d 306      78.112  22.510  96.175  0.00  0.00     0.067 C 
ATOM     29  S2  SGN d 306      77.411  25.104  96.319  0.00  0.00     0.251 S 
ATOM     30  S1  SGN d 306      81.935  18.806  91.635  0.00  0.00     0.156 S 
ATOM     31  O3S SGN d 306      81.992  17.497  91.034  0.00  0.00    -0.296 OA
ATOM     32  O4  SGN d 306      79.740  20.208  97.055  0.00  0.00    -0.348 OA
ATOM     33  O3  SGN d 306      81.368  18.941  95.101  0.00  0.00    -0.391 OA
ATOM     34  O6S SGN d 306      76.348  24.680  97.196  0.00  0.00    -0.572 OA
ATOM     35  C5  SGN d 306      78.508  21.355  95.272  0.00  0.00     0.091 C 
ATOM     36  O1  SGN d 306      77.936  19.895  92.736  0.00  0.00    -0.369 OA
ATOM     37  N   SGN d 306      80.413  18.979  92.498  0.00  0.00    -0.210 NA
ATOM     38  O6  SGN d 306      77.983  23.702  95.431  0.00  0.00    -0.254 OA
ATOM     39  C4  SGN d 306      79.847  20.730  95.718  0.00  0.00     0.095 C 
ATOM     40  O2S SGN d 306      81.955  19.818  90.624  0.00  0.00    -0.296 OA
ATOM     41  C1  SGN d 306      78.979  20.850  92.908  0.00  0.00     0.147 C 
ATOM     42  H   SGN d 306      79.358  18.854  94.826  0.00  0.00     0.089 H 
ATOM     43  H   SGN d 306      82.986  19.866  92.947  0.00  0.00     0.231 HD
ATOM     44  H   SGN d 306      81.071  20.826  93.298  0.00  0.00     0.076 H 
ATOM     45  H   SGN d 306      78.863  22.644  96.924  0.00  0.00     0.080 H 
ATOM     46  H   SGN d 306      77.170  22.284  96.630  0.00  0.00     0.080 H 
ATOM     47  H   SGN d 306      81.977  16.821  91.729  0.00  0.00     0.231 HD
ATOM     48  H   SGN d 306      82.092  19.584  95.045  0.00  0.00     0.210 HD
ATOM     49  H   SGN d 306      77.748  20.604  95.331  0.00  0.00     0.090 H 
ATOM     50  H   SGN d 306      78.199  19.248  92.063  0.00  0.00     0.212 HD
ATOM     51  H   SGN d 306      79.668  19.015  91.802  0.00  0.00     0.140 HD
ATOM     52  H   SGN d 306      80.620  21.469  95.702  0.00  0.00     0.091 H 
ATOM     53  H   SGN d 306      81.916  20.693  91.042  0.00  0.00     0.231 HD
ATOM     54  H   SGN d 306      79.121  21.346  91.971  0.00  0.00     0.131 H 
ATOM     55  C2  UAP d 301      91.177  29.283 109.348  0.00  0.00     0.132 C 
ATOM     56  S   UAP d 301      91.176  29.860 111.906  0.00  0.00     0.252 S 
ATOM     57  O1S UAP d 301      92.258  29.958 112.807  0.00  0.00    -0.572 OA
ATOM     58  C1  UAP d 301      90.703  30.179 108.223  0.00  0.00     0.161 C 
ATOM     59  O61 UAP d 301      94.859  29.280 105.868  0.00  0.00    -0.646 OA
ATOM     60  C5  UAP d 301      92.819  29.664 107.085  0.00  0.00     0.127 C 
ATOM     61  O3  UAP d 301      91.285  27.000 108.765  0.00  0.00    -0.393 OA
ATOM     62  O2  UAP d 301      91.827  30.052 110.302  0.00  0.00    -0.244 OA
ATOM     63  O5  UAP d 301      91.766  30.571 107.361  0.00  0.00    -0.343 OA
ATOM     64  C6  UAP d 301      93.904  30.052 106.086  0.00  0.00     0.203 C 
ATOM     65  O62 UAP d 301      93.784  31.174 105.549  0.00  0.00    -0.646 OA
ATOM     66  O3S UAP d 301      90.250  30.936 112.082  0.00  0.00    -0.572 OA
ATOM     67  O2S UAP d 301      90.544  28.569 112.028  0.00  0.00    -0.572 OA
ATOM     68  C3  UAP d 301      92.100  28.103 109.009  0.00  0.00     0.069 C 
ATOM     69  C4  UAP d 301      93.054  28.335 107.804  0.00  0.00    -0.005 C 
ATOM     70  H   UAP d 301      90.267  28.829 109.680  0.00  0.00     0.097 H 
ATOM     71  H   UAP d 301      90.300  31.096 108.600  0.00  0.00     0.133 H 
ATOM     72  H   UAP d 301      91.776  29.450 106.994  0.00  0.00     0.100 H 
ATOM     73  H   UAP d 301      90.694  26.862 109.521  0.00  0.00     0.210 HD
ATOM     74  H   UAP d 301      92.756  27.959 109.843  0.00  0.00     0.087 H 
ATOM     75  H   UAP d 301      94.063  28.318 108.163  0.00  0.00     0.041 H 
ATOM     76  H   UAP d 301      92.860  27.557 107.096  0.00  0.00     0.041 H 
ATOM     77  O5  IDS d 305      81.653  21.324  98.017  0.00  0.00    -0.340 OA
ATOM     78  O62 IDS d 305      84.347  21.891  97.680  0.00  0.00    -0.646 OA
ATOM     79  C1  IDS d 305      80.277  20.962  98.150  0.00  0.00     0.161 C 
ATOM     80  O3  IDS d 305      81.050  18.158  99.961  0.00  0.00    -0.390 OA
ATOM     81  C6  IDS d 305      84.100  20.775  98.192  0.00  0.00     0.206 C 
ATOM     82  C2  IDS d 305      79.977  20.208  99.473  0.00  0.00     0.134 C 
ATOM     83  C5  IDS d 305      82.647  20.516  98.594  0.00  0.00     0.152 C 
ATOM     84  C3  IDS d 305      81.087  19.495 100.269  0.00  0.00     0.094 C 
ATOM     85  S   IDS d 305      79.136  22.381 100.934  0.00  0.00     0.252 S 
ATOM     86  C4  IDS d 305      82.501  20.061 100.039  0.00  0.00     0.103 C 
ATOM     87  O3S IDS d 305      77.930  22.688 101.613  0.00  0.00    -0.572 OA
ATOM     88  O1S IDS d 305      79.334  23.289  99.862  0.00  0.00    -0.572 OA
ATOM     89  O2  IDS d 305      78.938  20.746 100.281  0.00  0.00    -0.244 OA
ATOM     90  O61 IDS d 305      84.984  20.002  98.596  0.00  0.00    -0.646 OA
ATOM     91  O2S IDS d 305      80.242  22.402 101.820  0.00  0.00    -0.572 OA
ATOM     92  H   IDS d 305      79.783  21.910  98.156  0.00  0.00     0.133 H 
ATOM     93  H   IDS d 305      80.154  17.816 100.111  0.00  0.00     0.210 HD
ATOM     94  H   IDS d 305      79.582  19.346  98.976  0.00  0.00     0.097 H 
ATOM     95  H   IDS d 305      82.360  19.639  98.051  0.00  0.00     0.104 H 
ATOM     96  H   IDS d 305      80.887  19.663 101.306  0.00  0.00     0.091 H 
ATOM     97  H   IDS d 305      83.207  19.289 100.264  0.00  0.00     0.092 H 
ATOM     98  O6  SGN d 304      87.325  23.162 101.296  0.00  0.00    -0.254 OA
ATOM     99  S2  SGN d 304      88.982  23.560 100.911  0.00  0.00     0.251 S 
ATOM    100  O5S SGN d 304      89.750  23.466 102.125  0.00  0.00    -0.572 OA
ATOM    101  N   SGN d 304      82.119  21.594 103.473  0.00  0.00    -0.210 NA
ATOM    102  O3S SGN d 304      82.449  20.123 105.595  0.00  0.00    -0.296 OA
ATOM    103  C6  SGN d 304      86.336  23.370 100.290  0.00  0.00     0.067 C 
ATOM    104  O3  SGN d 304      83.120  24.167 103.939  0.00  0.00    -0.391 OA
ATOM    105  C5  SGN d 304      85.003  23.034 100.911  0.00  0.00     0.091 C 
ATOM    106  O2S SGN d 304      80.420  19.949 104.452  0.00  0.00    -0.296 OA
ATOM    107  O1  SGN d 304      82.729  21.197 100.881  0.00  0.00    -0.348 OA
ATOM    108  O4S SGN d 304      89.472  22.630  99.940  0.00  0.00    -0.572 OA
ATOM    109  C1  SGN d 304      83.803  21.117 101.823  0.00  0.00     0.150 C 
ATOM    110  C3  SGN d 304      83.403  23.443 102.757  0.00  0.00     0.083 C 
ATOM    111  C2  SGN d 304      83.462  21.947 103.083  0.00  0.00     0.081 C 
ATOM    112  S1  SGN d 304      81.830  20.074 104.309  0.00  0.00     0.156 S 
ATOM    113  O6S SGN d 304      89.018  24.912 100.400  0.00  0.00    -0.572 OA
ATOM    114  O1S SGN d 304      82.359  18.971 103.557  0.00  0.00    -0.296 OA
ATOM    115  O5  SGN d 304      85.027  21.625 101.261  0.00  0.00    -0.349 OA
ATOM    116  C4  SGN d 304      84.753  23.862 102.188  0.00  0.00     0.095 C 
ATOM    117  O4  SGN d 304      84.691  25.260 101.869  0.00  0.00    -0.348 OA
ATOM    118  H   SGN d 304      81.558  21.575 102.622  0.00  0.00     0.140 HD
ATOM    119  H   SGN d 304      82.087  20.870 106.098  0.00  0.00     0.231 HD
ATOM    120  H   SGN d 304      86.524  22.731  99.452  0.00  0.00     0.080 H 
ATOM    121  H   SGN d 304      86.353  24.381  99.941  0.00  0.00     0.080 H 
ATOM    122  H   SGN d 304      82.259  23.890 104.289  0.00  0.00     0.210 HD
ATOM    123  H   SGN d 304      84.222  23.256 100.214  0.00  0.00     0.090 H 
ATOM    124  H   SGN d 304      80.079  20.701 104.961  0.00  0.00     0.231 HD
ATOM    125  H   SGN d 304      83.935  20.085 102.078  0.00  0.00     0.131 H 
ATOM    126  H   SGN d 304      82.635  23.645 102.040  0.00  0.00     0.089 H 
ATOM    127  H   SGN d 304      84.202  21.754 103.831  0.00  0.00     0.076 H 
ATOM    128  H   SGN d 304      83.320  19.071 103.469  0.00  0.00     0.231 HD
ATOM    129  H   SGN d 304      85.547  23.695 102.887  0.00  0.00     0.091 H 
ATOM    130  O5S SGN d 302      84.500  30.477 111.208  0.00  0.00    -0.572 OA
ATOM    131  C4  SGN d 302      88.682  30.080 106.924  0.00  0.00     0.095 C 
ATOM    132  O1S SGN d 302      89.229  32.384 101.985  0.00  0.00    -0.296 OA
ATOM    133  O3  SGN d 302      90.073  30.730 105.086  0.00  0.00    -0.391 OA
ATOM    134  O2S SGN d 302      87.406  33.198 103.250  0.00  0.00    -0.296 OA
ATOM    135  C1  SGN d 302      86.380  30.055 105.167  0.00  0.00     0.150 C 
ATOM    136  C5  SGN d 302      87.396  29.347 107.279  0.00  0.00     0.091 C 
ATOM    137  O3S SGN d 302      86.998  31.995 101.278  0.00  0.00    -0.296 OA
ATOM    138  O5  SGN d 302      86.280  29.997 106.615  0.00  0.00    -0.349 OA
ATOM    139  C6  SGN d 302      87.210  29.352 108.790  0.00  0.00     0.067 C 
ATOM    140  S1  SGN d 302      87.875  32.136 102.414  0.00  0.00     0.156 S 
ATOM    141  O4S SGN d 302      84.230  28.409 110.098  0.00  0.00    -0.572 OA
ATOM    142  O6S SGN d 302      86.129  28.806 111.456  0.00  0.00    -0.572 OA
ATOM    143  O4  SGN d 302      89.750  29.420 107.537  0.00  0.00    -0.348 OA
ATOM    144  N   SGN d 302      87.841  30.654 103.378  0.00  0.00    -0.210 NA
ATOM    145  C3  SGN d 302      88.876  30.051 105.421  0.00  0.00     0.083 C 
ATOM    146  C2  SGN d 302      87.685  30.770 104.808  0.00  0.00     0.081 C 
ATOM    147  S2  SGN d 302      85.174  29.392 110.548  0.00  0.00     0.251 S 
ATOM    148  O6  SGN d 302      86.037  30.040 109.162  0.00  0.00    -0.254 OA
ATOM    149  O1  SGN d 302      86.443  28.757 104.576  0.00  0.00    -0.348 OA
ATOM    150  H   SGN d 302      88.632  31.095 107.257  0.00  0.00     0.091 H 
ATOM    151  H   SGN d 302      89.256  33.196 101.455  0.00  0.00     0.231 HD
ATOM    152  H   SGN d 302      90.829  30.266 105.480  0.00  0.00     0.210 HD
ATOM    153  H   SGN d 302      87.412  34.030 102.750  0.00  0.00     0.231 HD
ATOM    154  H   SGN d 302      85.511  30.561 104.801  0.00  0.00     0.131 H 
ATOM    155  H   SGN d 302      87.446  28.330 106.951  0.00  0.00     0.090 H 
ATOM    156  H   SGN d 302      87.018  32.809 100.752  0.00  0.00     0.231 HD
ATOM    157  H   SGN d 302      88.053  29.830 109.243  0.00  0.00     0.080 H 
ATOM    158  H   SGN d 302      87.125  28.338 109.121  0.00  0.00     0.080 H 
ATOM    159  H   SGN d 302      88.720  30.164 103.209  0.00  0.00     0.140 HD
ATOM    160  H   SGN d 302      88.944  29.047 105.058  0.00  0.00     0.089 H 
ATOM    161  H   SGN d 302      87.647  31.781 105.157  0.00  0.00     0.076 H 
ENDROOT
TORSDOF 50
ENDMDL
MODEL 73
REMARK VINA RESULT:      -9.2      4.460     14.829
REMARK  0 active torsions:
REMARK  status: ('A' for Active; 'I' for Inactive)
REMARK       I    between atoms: S_1  and  O2_2 
REMARK       I    between atoms: O2_2  and  C2_99 
REMARK       I    between atoms: C3_3  and  O3_50 
REMARK       I    between atoms: C2_5  and  O2_57 
REMARK       I    between atoms: O1S_6  and  S1_33 
REMARK       I    between atoms: O3_7  and  C3_52 
REMARK       I    between atoms: O6_9  and  C6_34 
REMARK       I    between atoms: O6_9  and  S2_17 
REMARK       I    between atoms: C2_13  and  N_73 
REMARK       I    between atoms: S_16  and  O2_57 
REMARK       I    between atoms: C1_20  and  O4_43 
REMARK       I    between atoms: C6_21  and  C5_67 
REMARK       I    between atoms: C6_21  and  O6_75 
REMARK       I    between atoms: N_22  and  C2_66 
REMARK       I    between atoms: N_22  and  S1_69 
REMARK       I    between atoms: S2_23  and  O6_75 
REMARK       I    between atoms: C1_24  and  O4_78 
REMARK       I    between atoms: C4_25  and  O4_78 
REMARK       I    between atoms: O3_26  and  C3_81 
REMARK       I    between atoms: O1S_27  and  S1_60 
REMARK       I    between atoms: O3S_28  and  S1_69 
REMARK       I    between atoms: O3_29  and  C3_87 
REMARK       I    between atoms: C6_30  and  C5_80 
REMARK       I    between atoms: O2S_32  and  S1_60 
REMARK       I    between atoms: S1_33  and  N_73 
REMARK       I    between atoms: S1_33  and  O2S_94 
REMARK       I    between atoms: S1_33  and  O3S_35 
REMARK       I    between atoms: C6_34  and  C5_38 
REMARK       I    between atoms: C2_36  and  O2_93 
REMARK       I    between atoms: O3_37  and  C3_65 
REMARK       I    between atoms: C1_40  and  O1_105 
REMARK       I    between atoms: O2S_41  and  S1_69 
REMARK       I    between atoms: C5_42  and  C6_54 
REMARK       I    between atoms: O4_43  and  C4_92 
REMARK       I    between atoms: O1_44  and  C1_62 
REMARK       I    between atoms: O1_44  and  C4_83 
REMARK       I    between atoms: C1_45  and  O4_102 
REMARK       I    between atoms: C4_46  and  O1_105 
REMARK       I    between atoms: O3S_47  and  S1_60 
REMARK       I    between atoms: C5_53  and  C6_61 
REMARK       I    between atoms: C6_54  and  O6_98 
REMARK       I    between atoms: O3_56  and  C3_84 
REMARK       I    between atoms: C5_59  and  C6_63 
REMARK       I    between atoms: S1_60  and  N_86 
REMARK       I    between atoms: S1_69  and  O1S_91 
REMARK       I    between atoms: O1_70  and  C1_96 
REMARK       I    between atoms: S_82  and  O2_93 
REMARK       I    between atoms: N_86  and  C2_90 
REMARK       I    between atoms: S2_95  and  O6_98 
REMARK       I    between atoms: C4_100  and  O4_102 
ROOT
ATOM      1  S   IDS d 303      78.862  21.447 104.949  0.00  0.00     0.252 S 
ATOM      2  O2  IDS d 303      80.553  21.790 104.637  0.00  0.00    -0.244 OA
ATOM      3  O61 IDS d 303      85.120  23.880 101.913  0.00  0.00    -0.646 OA
ATOM      4  O3  IDS d 303      83.037  19.820 103.022  0.00  0.00    -0.390 OA
ATOM      5  O3S IDS d 303      78.749  20.017 105.092  0.00  0.00    -0.572 OA
ATOM      6  C1  IDS d 303      80.869  21.953 102.266  0.00  0.00     0.161 C 
ATOM      7  C4  IDS d 303      83.445  22.056 103.859  0.00  0.00     0.103 C 
ATOM      8  O2S IDS d 303      78.473  22.140 106.146  0.00  0.00    -0.572 OA
ATOM      9  C3  IDS d 303      82.557  20.792 103.876  0.00  0.00     0.094 C 
ATOM     10  C5  IDS d 303      83.106  22.870 102.613  0.00  0.00     0.152 C 
ATOM     11  C6  IDS d 303      84.021  24.050 102.444  0.00  0.00     0.206 C 
ATOM     12  O62 IDS d 303      83.517  25.168 102.665  0.00  0.00    -0.646 OA
ATOM     13  O5  IDS d 303      81.754  23.064 102.242  0.00  0.00    -0.340 OA
ATOM     14  C2  IDS d 303      81.090  21.118 103.544  0.00  0.00     0.134 C 
ATOM     15  O1S IDS d 303      78.114  21.922 103.832  0.00  0.00    -0.572 OA
ATOM     16  H   IDS d 303      83.961  19.624 103.242  0.00  0.00     0.210 HD
ATOM     17  H   IDS d 303      79.885  22.373 102.252  0.00  0.00     0.133 H 
ATOM     18  H   IDS d 303      84.471  21.752 103.886  0.00  0.00     0.092 H 
ATOM     19  H   IDS d 303      82.592  20.407 104.874  0.00  0.00     0.091 H 
ATOM     20  H   IDS d 303      83.327  22.179 101.827  0.00  0.00     0.104 H 
ATOM     21  H   IDS d 303      80.604  20.185 103.346  0.00  0.00     0.097 H 
ATOM     22  C3  SGN d 306      75.790  15.513  94.391  0.00  0.00     0.083 C 
ATOM     23  O1S SGN d 306      72.477  17.083  94.747  0.00  0.00    -0.296 OA
ATOM     24  O4S SGN d 306      78.752  11.341  99.595  0.00  0.00    -0.572 OA
ATOM     25  O5S SGN d 306      79.496  13.585  99.596  0.00  0.00    -0.572 OA
ATOM     26  C2  SGN d 306      74.573  14.805  94.969  0.00  0.00     0.081 C 
ATOM     27  O5  SGN d 306      76.036  13.233  96.093  0.00  0.00    -0.350 OA
ATOM     28  C6  SGN d 306      78.382  13.658  96.539  0.00  0.00     0.067 C 
ATOM     29  S2  SGN d 306      79.213  12.433  98.787  0.00  0.00     0.251 S 
ATOM     30  S1  SGN d 306      72.121  15.778  94.248  0.00  0.00     0.156 S 
ATOM     31  O3S SGN d 306      71.365  15.901  93.027  0.00  0.00    -0.296 OA
ATOM     32  O4  SGN d 306      78.099  16.062  94.845  0.00  0.00    -0.348 OA
ATOM     33  O3  SGN d 306      75.461  16.871  94.165  0.00  0.00    -0.391 OA
ATOM     34  O6S SGN d 306      80.390  12.057  98.045  0.00  0.00    -0.572 OA
ATOM     35  C5  SGN d 306      77.233  13.885  95.573  0.00  0.00     0.091 C 
ATOM     36  O1  SGN d 306      75.015  12.621  94.034  0.00  0.00    -0.369 OA
ATOM     37  N   SGN d 306      73.579  14.848  93.933  0.00  0.00    -0.210 NA
ATOM     38  O6  SGN d 306      77.962  12.883  97.640  0.00  0.00    -0.254 OA
ATOM     39  C4  SGN d 306      76.946  15.391  95.388  0.00  0.00     0.095 C 
ATOM     40  O2S SGN d 306      71.371  15.054  95.227  0.00  0.00    -0.296 OA
ATOM     41  C1  SGN d 306      74.856  13.323  95.262  0.00  0.00     0.147 C 
ATOM     42  H   SGN d 306      76.085  15.071  93.462  0.00  0.00     0.089 H 
ATOM     43  H   SGN d 306      72.985  16.989  95.568  0.00  0.00     0.231 HD
ATOM     44  H   SGN d 306      74.281  15.276  95.884  0.00  0.00     0.076 H 
ATOM     45  H   SGN d 306      78.738  14.604  96.891  0.00  0.00     0.080 H 
ATOM     46  H   SGN d 306      79.164  13.136  96.028  0.00  0.00     0.080 H 
ATOM     47  H   SGN d 306      71.884  16.394  92.373  0.00  0.00     0.231 HD
ATOM     48  H   SGN d 306      75.192  17.283  95.001  0.00  0.00     0.210 HD
ATOM     49  H   SGN d 306      77.505  13.474  94.623  0.00  0.00     0.090 H 
ATOM     50  H   SGN d 306      74.205  12.705  93.506  0.00  0.00     0.212 HD
ATOM     51  H   SGN d 306      73.294  13.887  93.743  0.00  0.00     0.140 HD
ATOM     52  H   SGN d 306      76.706  15.837  96.331  0.00  0.00     0.091 H 
ATOM     53  H   SGN d 306      71.892  14.979  96.042  0.00  0.00     0.231 HD
ATOM     54  H   SGN d 306      74.039  12.875  95.789  0.00  0.00     0.131 H 
ATOM     55  C2  UAP d 301      85.360  28.964 106.890  0.00  0.00     0.132 C 
ATOM     56  S   UAP d 301      87.715  29.993 107.413  0.00  0.00     0.252 S 
ATOM     57  O1S UAP d 301      88.054  31.298 107.831  0.00  0.00    -0.572 OA
ATOM     58  C1  UAP d 301      84.708  27.801 107.607  0.00  0.00     0.161 C 
ATOM     59  O61 UAP d 301      80.664  30.459 108.063  0.00  0.00    -0.646 OA
ATOM     60  C5  UAP d 301      82.694  29.197 107.785  0.00  0.00     0.127 C 
ATOM     61  O3  UAP d 301      84.449  29.401 104.759  0.00  0.00    -0.393 OA
ATOM     62  O2  UAP d 301      86.038  29.747 107.813  0.00  0.00    -0.244 OA
ATOM     63  O5  UAP d 301      83.538  28.192 108.317  0.00  0.00    -0.343 OA
ATOM     64  C6  UAP d 301      81.393  29.545 108.499  0.00  0.00     0.203 C 
ATOM     65  O62 UAP d 301      81.141  28.892 109.535  0.00  0.00    -0.646 OA
ATOM     66  O3S UAP d 301      88.440  29.003 108.147  0.00  0.00    -0.572 OA
ATOM     67  O2S UAP d 301      87.903  29.865 105.988  0.00  0.00    -0.572 OA
ATOM     68  C3  UAP d 301      84.476  29.905 106.058  0.00  0.00     0.069 C 
ATOM     69  C4  UAP d 301      83.026  30.088 106.586  0.00  0.00    -0.005 C 
ATOM     70  H   UAP d 301      85.984  28.472 106.173  0.00  0.00     0.097 H 
ATOM     71  H   UAP d 301      85.358  27.387 108.350  0.00  0.00     0.133 H 
ATOM     72  H   UAP d 301      83.038  28.332 107.259  0.00  0.00     0.100 H 
ATOM     73  H   UAP d 301      85.357  29.290 104.437  0.00  0.00     0.210 HD
ATOM     74  H   UAP d 301      84.906  30.883 106.115  0.00  0.00     0.087 H 
ATOM     75  H   UAP d 301      82.899  31.110 106.879  0.00  0.00     0.041 H 
ATOM     76  H   UAP d 301      82.365  29.806 105.794  0.00  0.00     0.041 H 
ATOM     77  O5  IDS d 305      78.282  17.821  96.490  0.00  0.00    -0.340 OA
ATOM     78  O62 IDS d 305      76.890  19.785  97.866  0.00  0.00    -0.646 OA
ATOM     79  C1  IDS d 305      78.948  16.820  95.717  0.00  0.00     0.161 C 
ATOM     80  O3  IDS d 305      79.787  19.069  93.273  0.00  0.00    -0.390 OA
ATOM     81  C6  IDS d 305      77.282  20.115  96.724  0.00  0.00     0.206 C 
ATOM     82  C2  IDS d 305      80.137  17.383  94.894  0.00  0.00     0.134 C 
ATOM     83  C5  IDS d 305      78.235  19.146  96.023  0.00  0.00     0.152 C 
ATOM     84  C3  IDS d 305      80.247  18.881  94.551  0.00  0.00     0.094 C 
ATOM     85  S   IDS d 305      82.131  16.764  96.684  0.00  0.00     0.252 S 
ATOM     86  C4  IDS d 305      79.509  19.815  95.531  0.00  0.00     0.103 C 
ATOM     87  O3S IDS d 305      83.307  15.979  96.596  0.00  0.00    -0.572 OA
ATOM     88  O1S IDS d 305      81.232  16.189  97.620  0.00  0.00    -0.572 OA
ATOM     89  O2  IDS d 305      81.389  16.736  95.076  0.00  0.00    -0.244 OA
ATOM     90  O61 IDS d 305      77.134  21.258  96.259  0.00  0.00    -0.646 OA
ATOM     91  O2S IDS d 305      82.434  18.103  97.038  0.00  0.00    -0.572 OA
ATOM     92  H   IDS d 305      79.314  16.149  96.466  0.00  0.00     0.133 H 
ATOM     93  H   IDS d 305      80.260  18.474  92.668  0.00  0.00     0.210 HD
ATOM     94  H   IDS d 305      79.738  17.052  93.958  0.00  0.00     0.097 H 
ATOM     95  H   IDS d 305      77.747  18.888  95.106  0.00  0.00     0.104 H 
ATOM     96  H   IDS d 305      81.279  19.149  94.639  0.00  0.00     0.091 H 
ATOM     97  H   IDS d 305      79.282  20.724  95.013  0.00  0.00     0.092 H 
ATOM     98  O6  SGN d 304      78.983  23.632  99.960  0.00  0.00    -0.254 OA
ATOM     99  S2  SGN d 304      77.976  24.744 100.856  0.00  0.00     0.251 S 
ATOM    100  O5S SGN d 304      78.700  25.981 100.992  0.00  0.00    -0.572 OA
ATOM    101  N   SGN d 304      82.953  20.672  96.835  0.00  0.00    -0.210 NA
ATOM    102  O3S SGN d 304      84.464  22.331  95.516  0.00  0.00    -0.296 OA
ATOM    103  C6  SGN d 304      78.556  22.275  99.862  0.00  0.00     0.067 C 
ATOM    104  O3  SGN d 304      83.319  21.038  99.586  0.00  0.00    -0.391 OA
ATOM    105  C5  SGN d 304      79.638  21.529  99.123  0.00  0.00     0.091 C 
ATOM    106  O2S SGN d 304      84.314  20.136  94.734  0.00  0.00    -0.296 OA
ATOM    107  O1  SGN d 304      80.329  20.092  96.673  0.00  0.00    -0.348 OA
ATOM    108  O4S SGN d 304      76.759  24.958 100.134  0.00  0.00    -0.572 OA
ATOM    109  C1  SGN d 304      80.680  21.456  96.919  0.00  0.00     0.150 C 
ATOM    110  C3  SGN d 304      82.037  20.924  98.998  0.00  0.00     0.083 C 
ATOM    111  C2  SGN d 304      82.073  21.529  97.590  0.00  0.00     0.081 C 
ATOM    112  S1  SGN d 304      83.588  21.226  95.291  0.00  0.00     0.156 S 
ATOM    113  O6S SGN d 304      77.713  24.172 102.157  0.00  0.00    -0.572 OA
ATOM    114  O1S SGN d 304      82.523  21.621  94.414  0.00  0.00    -0.296 OA
ATOM    115  O5  SGN d 304      79.724  22.091  97.787  0.00  0.00    -0.349 OA
ATOM    116  C4  SGN d 304      81.006  21.686  99.820  0.00  0.00     0.095 C 
ATOM    117  O4  SGN d 304      80.963  21.108 101.134  0.00  0.00    -0.348 OA
ATOM    118  H   SGN d 304      82.442  19.809  96.652  0.00  0.00     0.140 HD
ATOM    119  H   SGN d 304      85.182  22.058  96.109  0.00  0.00     0.231 HD
ATOM    120  H   SGN d 304      77.634  22.217  99.321  0.00  0.00     0.080 H 
ATOM    121  H   SGN d 304      78.393  21.854 100.832  0.00  0.00     0.080 H 
ATOM    122  H   SGN d 304      83.964  20.548  99.052  0.00  0.00     0.210 HD
ATOM    123  H   SGN d 304      79.398  20.486  99.100  0.00  0.00     0.090 H 
ATOM    124  H   SGN d 304      85.029  19.882  95.338  0.00  0.00     0.231 HD
ATOM    125  H   SGN d 304      80.691  21.964  95.977  0.00  0.00     0.131 H 
ATOM    126  H   SGN d 304      81.770  19.889  98.959  0.00  0.00     0.089 H 
ATOM    127  H   SGN d 304      82.382  22.552  97.628  0.00  0.00     0.076 H 
ATOM    128  H   SGN d 304      82.039  22.364  94.808  0.00  0.00     0.231 HD
ATOM    129  H   SGN d 304      81.252  22.725  99.900  0.00  0.00     0.091 H 
ATOM    130  O5S SGN d 302      90.115  23.870 105.938  0.00  0.00    -0.572 OA
ATOM    131  C4  SGN d 302      84.427  25.519 106.900  0.00  0.00     0.095 C 
ATOM    132  O1S SGN d 302      80.163  23.068 109.311  0.00  0.00    -0.296 OA
ATOM    133  O3  SGN d 302      82.289  25.665 107.967  0.00  0.00    -0.391 OA
ATOM    134  O2S SGN d 302      82.206  21.897 109.507  0.00  0.00    -0.296 OA
ATOM    135  C1  SGN d 302      83.875  22.769 106.181  0.00  0.00     0.150 C 
ATOM    136  C5  SGN d 302      85.194  24.797 105.801  0.00  0.00     0.091 C 
ATOM    137  O3S SGN d 302      80.455  20.963 108.257  0.00  0.00    -0.296 OA
ATOM    138  O5  SGN d 302      85.193  23.371 106.080  0.00  0.00    -0.349 OA
ATOM    139  C6  SGN d 302      86.615  25.339 105.732  0.00  0.00     0.067 C 
ATOM    140  S1  SGN d 302      81.099  22.192 108.651  0.00  0.00     0.156 S 
ATOM    141  O4S SGN d 302      88.935  23.685 103.899  0.00  0.00    -0.572 OA
ATOM    142  O6S SGN d 302      89.367  25.811 104.852  0.00  0.00    -0.572 OA
ATOM    143  O4  SGN d 302      84.401  26.883 106.597  0.00  0.00    -0.348 OA
ATOM    144  N   SGN d 302      81.741  23.011 107.221  0.00  0.00    -0.210 NA
ATOM    145  C3  SGN d 302      83.006  24.994 106.948  0.00  0.00     0.083 C 
ATOM    146  C2  SGN d 302      83.094  23.511 107.269  0.00  0.00     0.081 C 
ATOM    147  S2  SGN d 302      89.070  24.425 105.122  0.00  0.00     0.251 S 
ATOM    148  O6  SGN d 302      87.563  24.336 106.019  0.00  0.00    -0.254 OA
ATOM    149  O1  SGN d 302      83.127  22.898 104.973  0.00  0.00    -0.348 OA
ATOM    150  H   SGN d 302      84.899  25.358 107.846  0.00  0.00     0.091 H 
ATOM    151  H   SGN d 302      79.805  22.626 110.097  0.00  0.00     0.231 HD
ATOM    152  H   SGN d 302      82.235  26.611 107.757  0.00  0.00     0.210 HD
ATOM    153  H   SGN d 302      81.888  21.446 110.305  0.00  0.00     0.231 HD
ATOM    154  H   SGN d 302      84.009  21.729 106.397  0.00  0.00     0.131 H 
ATOM    155  H   SGN d 302      84.726  24.961 104.853  0.00  0.00     0.090 H 
ATOM    156  H   SGN d 302      80.104  20.516 109.043  0.00  0.00     0.231 HD
ATOM    157  H   SGN d 302      86.720  26.131 106.444  0.00  0.00     0.080 H 
ATOM    158  H   SGN d 302      86.791  25.694 104.739  0.00  0.00     0.080 H 
ATOM    159  H   SGN d 302      81.132  23.806 107.030  0.00  0.00     0.140 HD
ATOM    160  H   SGN d 302      82.502  25.154 106.018  0.00  0.00     0.089 H 
ATOM    161  H   SGN d 302      83.575  23.368 108.215  0.00  0.00     0.076 H 
ENDROOT
TORSDOF 50
ENDMDL
MODEL 74
REMARK VINA RESULT:      -9.2      6.843     15.465
REMARK  0 active torsions:
REMARK  status: ('A' for Active; 'I' for Inactive)
REMARK       I    between atoms: S_1  and  O2_2 
REMARK       I    between atoms: O2_2  and  C2_99 
REMARK       I    between atoms: C3_3  and  O3_50 
REMARK       I    between atoms: C2_5  and  O2_57 
REMARK       I    between atoms: O1S_6  and  S1_33 
REMARK       I    between atoms: O3_7  and  C3_52 
REMARK       I    between atoms: O6_9  and  C6_34 
REMARK       I    between atoms: O6_9  and  S2_17 
REMARK       I    between atoms: C2_13  and  N_73 
REMARK       I    between atoms: S_16  and  O2_57 
REMARK       I    between atoms: C1_20  and  O4_43 
REMARK       I    between atoms: C6_21  and  C5_67 
REMARK       I    between atoms: C6_21  and  O6_75 
REMARK       I    between atoms: N_22  and  C2_66 
REMARK       I    between atoms: N_22  and  S1_69 
REMARK       I    between atoms: S2_23  and  O6_75 
REMARK       I    between atoms: C1_24  and  O4_78 
REMARK       I    between atoms: C4_25  and  O4_78 
REMARK       I    between atoms: O3_26  and  C3_81 
REMARK       I    between atoms: O1S_27  and  S1_60 
REMARK       I    between atoms: O3S_28  and  S1_69 
REMARK       I    between atoms: O3_29  and  C3_87 
REMARK       I    between atoms: C6_30  and  C5_80 
REMARK       I    between atoms: O2S_32  and  S1_60 
REMARK       I    between atoms: S1_33  and  N_73 
REMARK       I    between atoms: S1_33  and  O2S_94 
REMARK       I    between atoms: S1_33  and  O3S_35 
REMARK       I    between atoms: C6_34  and  C5_38 
REMARK       I    between atoms: C2_36  and  O2_93 
REMARK       I    between atoms: O3_37  and  C3_65 
REMARK       I    between atoms: C1_40  and  O1_105 
REMARK       I    between atoms: O2S_41  and  S1_69 
REMARK       I    between atoms: C5_42  and  C6_54 
REMARK       I    between atoms: O4_43  and  C4_92 
REMARK       I    between atoms: O1_44  and  C1_62 
REMARK       I    between atoms: O1_44  and  C4_83 
REMARK       I    between atoms: C1_45  and  O4_102 
REMARK       I    between atoms: C4_46  and  O1_105 
REMARK       I    between atoms: O3S_47  and  S1_60 
REMARK       I    between atoms: C5_53  and  C6_61 
REMARK       I    between atoms: C6_54  and  O6_98 
REMARK       I    between atoms: O3_56  and  C3_84 
REMARK       I    between atoms: C5_59  and  C6_63 
REMARK       I    between atoms: S1_60  and  N_86 
REMARK       I    between atoms: S1_69  and  O1S_91 
REMARK       I    between atoms: O1_70  and  C1_96 
REMARK       I    between atoms: S_82  and  O2_93 
REMARK       I    between atoms: N_86  and  C2_90 
REMARK       I    between atoms: S2_95  and  O6_98 
REMARK       I    between atoms: C4_100  and  O4_102 
ROOT
ATOM      1  S   IDS d 303      84.430  22.844  95.245  0.00  0.00     0.252 S 
ATOM      2  O2  IDS d 303      85.319  24.206  95.901  0.00  0.00    -0.244 OA
ATOM      3  O61 IDS d 303      89.377  26.974  98.820  0.00  0.00    -0.646 OA
ATOM      4  O3  IDS d 303      84.762  26.103  98.859  0.00  0.00    -0.390 OA
ATOM      5  O3S IDS d 303      83.060  23.002  95.665  0.00  0.00    -0.572 OA
ATOM      6  C1  IDS d 303      86.319  23.532  97.973  0.00  0.00     0.161 C 
ATOM      7  C4  IDS d 303      86.628  26.484  97.362  0.00  0.00     0.103 C 
ATOM      8  O2S IDS d 303      84.560  22.865  93.814  0.00  0.00    -0.572 OA
ATOM      9  C3  IDS d 303      85.229  25.866  97.582  0.00  0.00     0.094 C 
ATOM     10  C5  IDS d 303      87.669  25.568  97.999  0.00  0.00     0.152 C 
ATOM     11  C6  IDS d 303      89.048  26.162  97.952  0.00  0.00     0.206 C 
ATOM     12  O62 IDS d 303      89.844  25.633  97.153  0.00  0.00    -0.646 OA
ATOM     13  O5  IDS d 303      87.581  24.166  97.819  0.00  0.00    -0.340 OA
ATOM     14  C2  IDS d 303      85.215  24.357  97.279  0.00  0.00     0.134 C 
ATOM     15  O1S IDS d 303      85.008  21.655  95.781  0.00  0.00    -0.572 OA
ATOM     16  H   IDS d 303      84.776  27.057  99.036  0.00  0.00     0.210 HD
ATOM     17  H   IDS d 303      86.425  22.573  97.508  0.00  0.00     0.133 H 
ATOM     18  H   IDS d 303      86.635  27.470  97.781  0.00  0.00     0.092 H 
ATOM     19  H   IDS d 303      84.570  26.347  96.890  0.00  0.00     0.091 H 
ATOM     20  H   IDS d 303      87.360  25.556  99.023  0.00  0.00     0.104 H 
ATOM     21  H   IDS d 303      84.299  23.971  97.676  0.00  0.00     0.097 H 
ATOM     22  C3  SGN d 306      81.603  16.731 105.769  0.00  0.00     0.083 C 
ATOM     23  O1S SGN d 306      81.970  13.641 103.798  0.00  0.00    -0.296 OA
ATOM     24  O4S SGN d 306      76.994  22.073 103.901  0.00  0.00    -0.572 OA
ATOM     25  O5S SGN d 306      79.232  22.427 103.225  0.00  0.00    -0.572 OA
ATOM     26  C2  SGN d 306      80.434  15.957 105.180  0.00  0.00     0.081 C 
ATOM     27  O5  SGN d 306      79.064  17.953 105.304  0.00  0.00    -0.350 OA
ATOM     28  C6  SGN d 306      79.969  20.198 105.478  0.00  0.00     0.067 C 
ATOM     29  S2  SGN d 306      78.372  22.015 104.298  0.00  0.00     0.251 S 
ATOM     30  S1  SGN d 306      80.851  13.308 104.643  0.00  0.00     0.156 S 
ATOM     31  O3S SGN d 306      81.142  12.121 105.408  0.00  0.00    -0.296 OA
ATOM     32  O4  SGN d 306      82.606  18.927 105.875  0.00  0.00    -0.348 OA
ATOM     33  O3  SGN d 306      82.810  16.149 105.312  0.00  0.00    -0.391 OA
ATOM     34  O6S SGN d 306      78.605  22.844 105.454  0.00  0.00    -0.572 OA
ATOM     35  C5  SGN d 306      80.160  18.741 105.860  0.00  0.00     0.091 C 
ATOM     36  O1  SGN d 306      78.887  16.300 107.004  0.00  0.00    -0.369 OA
ATOM     37  N   SGN d 306      80.525  14.639 105.744  0.00  0.00    -0.210 NA
ATOM     38  O6  SGN d 306      78.794  20.362 104.714  0.00  0.00    -0.254 OA
ATOM     39  C4  SGN d 306      81.499  18.192 105.320  0.00  0.00     0.095 C 
ATOM     40  O2S SGN d 306      79.669  13.118 103.861  0.00  0.00    -0.296 OA
ATOM     41  C1  SGN d 306      79.080  16.541 105.614  0.00  0.00     0.147 C 
ATOM     42  H   SGN d 306      81.587  16.694 106.838  0.00  0.00     0.089 H 
ATOM     43  H   SGN d 306      81.763  14.440 103.287  0.00  0.00     0.231 HD
ATOM     44  H   SGN d 306      80.481  15.986 104.111  0.00  0.00     0.076 H 
ATOM     45  H   SGN d 306      80.810  20.524 104.903  0.00  0.00     0.080 H 
ATOM     46  H   SGN d 306      79.882  20.779 106.372  0.00  0.00     0.080 H 
ATOM     47  H   SGN d 306      81.945  12.264 105.933  0.00  0.00     0.231 HD
ATOM     48  H   SGN d 306      82.836  16.177 104.343  0.00  0.00     0.210 HD
ATOM     49  H   SGN d 306      80.172  18.670 106.927  0.00  0.00     0.090 H 
ATOM     50  H   SGN d 306      78.904  15.344 107.172  0.00  0.00     0.212 HD
ATOM     51  H   SGN d 306      79.638  14.443 106.207  0.00  0.00     0.140 HD
ATOM     52  H   SGN d 306      81.530  18.283 104.255  0.00  0.00     0.091 H 
ATOM     53  H   SGN d 306      79.486  13.923 103.352  0.00  0.00     0.231 HD
ATOM     54  H   SGN d 306      78.274  16.072 105.089  0.00  0.00     0.131 H 
ATOM     55  C2  UAP d 301      92.433  28.433  92.558  0.00  0.00     0.132 C 
ATOM     56  S   UAP d 301      93.861  30.629  92.425  0.00  0.00     0.252 S 
ATOM     57  O1S UAP d 301      95.000  30.915  91.643  0.00  0.00    -0.572 OA
ATOM     58  C1  UAP d 301      90.966  28.290  92.209  0.00  0.00     0.161 C 
ATOM     59  O61 UAP d 301      92.077  24.422  89.484  0.00  0.00    -0.646 OA
ATOM     60  C5  UAP d 301      91.601  26.334  90.865  0.00  0.00     0.127 C 
ATOM     61  O3  UAP d 301      93.257  26.701  93.931  0.00  0.00    -0.393 OA
ATOM     62  O2  UAP d 301      93.035  29.300  91.659  0.00  0.00    -0.244 OA
ATOM     63  O5  UAP d 301      90.760  27.454  91.076  0.00  0.00    -0.343 OA
ATOM     64  C6  UAP d 301      91.318  25.386  89.705  0.00  0.00     0.203 C 
ATOM     65  O62 UAP d 301      90.322  25.661  89.000  0.00  0.00    -0.646 OA
ATOM     66  O3S UAP d 301      92.935  31.719  92.419  0.00  0.00    -0.572 OA
ATOM     67  O2S UAP d 301      94.257  30.255  93.761  0.00  0.00    -0.572 OA
ATOM     68  C3  UAP d 301      93.301  27.167  92.619  0.00  0.00     0.069 C 
ATOM     69  C4  UAP d 301      92.886  26.034  91.639  0.00  0.00    -0.005 C 
ATOM     70  H   UAP d 301      92.396  28.785  93.567  0.00  0.00     0.097 H 
ATOM     71  H   UAP d 301      90.537  29.233  91.939  0.00  0.00     0.133 H 
ATOM     72  H   UAP d 301      91.087  26.561  91.774  0.00  0.00     0.100 H 
ATOM     73  H   UAP d 301      93.518  27.413  94.536  0.00  0.00     0.210 HD
ATOM     74  H   UAP d 301      94.288  27.440  92.308  0.00  0.00     0.087 H 
ATOM     75  H   UAP d 301      93.679  25.888  90.935  0.00  0.00     0.041 H 
ATOM     76  H   UAP d 301      92.700  25.161  92.229  0.00  0.00     0.041 H 
ATOM     77  O5  IDS d 305      83.717  19.492 103.806  0.00  0.00    -0.340 OA
ATOM     78  O62 IDS d 305      84.653  18.492 101.395  0.00  0.00    -0.646 OA
ATOM     79  C1  IDS d 305      83.250  19.934 105.083  0.00  0.00     0.161 C 
ATOM     80  O3  IDS d 305      86.306  19.407 106.537  0.00  0.00    -0.390 OA
ATOM     81  C6  IDS d 305      85.431  18.349 102.367  0.00  0.00     0.206 C 
ATOM     82  C2  IDS d 305      84.360  20.607 105.933  0.00  0.00     0.134 C 
ATOM     83  C5  IDS d 305      85.050  19.075 103.657  0.00  0.00     0.152 C 
ATOM     84  C3  IDS d 305      85.855  20.356 105.656  0.00  0.00     0.094 C 
ATOM     85  S   IDS d 305      83.788  23.212 105.263  0.00  0.00     0.252 S 
ATOM     86  C4  IDS d 305      86.175  19.941 104.207  0.00  0.00     0.103 C 
ATOM     87  O3S IDS d 305      83.439  24.357 106.023  0.00  0.00    -0.572 OA
ATOM     88  O1S IDS d 305      82.712  22.849 104.411  0.00  0.00    -0.572 OA
ATOM     89  O2  IDS d 305      84.071  21.908 106.428  0.00  0.00    -0.244 OA
ATOM     90  O61 IDS d 305      86.571  17.868 102.259  0.00  0.00    -0.646 OA
ATOM     91  O2S IDS d 305      84.969  23.436 104.512  0.00  0.00    -0.572 OA
ATOM     92  H   IDS d 305      82.506  20.658 104.823  0.00  0.00     0.133 H 
ATOM     93  H   IDS d 305      86.098  19.682 107.444  0.00  0.00     0.210 HD
ATOM     94  H   IDS d 305      84.250  19.922 106.748  0.00  0.00     0.097 H 
ATOM     95  H   IDS d 305      84.975  18.307 104.398  0.00  0.00     0.104 H 
ATOM     96  H   IDS d 305      86.360  21.289 105.794  0.00  0.00     0.091 H 
ATOM     97  H   IDS d 305      87.098  19.400 104.214  0.00  0.00     0.092 H 
ATOM     98  O6  SGN d 304      88.046  20.669  98.691  0.00  0.00    -0.254 OA
ATOM     99  S2  SGN d 304      88.477  19.950  97.157  0.00  0.00     0.251 S 
ATOM    100  O5S SGN d 304      89.755  20.485  96.766  0.00  0.00    -0.572 OA
ATOM    101  N   SGN d 304      87.502  23.459 103.810  0.00  0.00    -0.210 NA
ATOM    102  O3S SGN d 304      89.853  24.071 104.744  0.00  0.00    -0.296 OA
ATOM    103  C6  SGN d 304      86.731  20.437  99.191  0.00  0.00     0.067 C 
ATOM    104  O3  SGN d 304      87.049  24.826 101.410  0.00  0.00    -0.391 OA
ATOM    105  C5  SGN d 304      86.601  21.233 100.465  0.00  0.00     0.091 C 
ATOM    106  O2S SGN d 304      88.079  23.940 106.257  0.00  0.00    -0.296 OA
ATOM    107  O1  SGN d 304      86.288  21.097 103.368  0.00  0.00    -0.348 OA
ATOM    108  O4S SGN d 304      88.559  18.530  97.313  0.00  0.00    -0.572 OA
ATOM    109  C1  SGN d 304      87.541  21.318 102.713  0.00  0.00     0.150 C 
ATOM    110  C3  SGN d 304      86.774  23.447 101.563  0.00  0.00     0.083 C 
ATOM    111  C2  SGN d 304      87.784  22.836 102.540  0.00  0.00     0.081 C 
ATOM    112  S1  SGN d 304      88.680  23.345 105.112  0.00  0.00     0.156 S 
ATOM    113  O6S SGN d 304      87.467  20.308  96.187  0.00  0.00    -0.572 OA
ATOM    114  O1S SGN d 304      89.018  21.976 105.375  0.00  0.00    -0.296 OA
ATOM    115  O5  SGN d 304      87.564  20.702 101.412  0.00  0.00    -0.349 OA
ATOM    116  C4  SGN d 304      86.905  22.727 100.226  0.00  0.00     0.095 C 
ATOM    117  O4  SGN d 304      85.948  23.291  99.317  0.00  0.00    -0.348 OA
ATOM    118  H   SGN d 304      86.637  23.046 104.158  0.00  0.00     0.140 HD
ATOM    119  H   SGN d 304      89.618  24.996 104.568  0.00  0.00     0.231 HD
ATOM    120  H   SGN d 304      86.592  19.395  99.392  0.00  0.00     0.080 H 
ATOM    121  H   SGN d 304      85.992  20.733  98.476  0.00  0.00     0.080 H 
ATOM    122  H   SGN d 304      86.961  25.270 102.268  0.00  0.00     0.210 HD
ATOM    123  H   SGN d 304      85.599  21.155 100.831  0.00  0.00     0.090 H 
ATOM    124  H   SGN d 304      87.858  24.864 106.063  0.00  0.00     0.231 HD
ATOM    125  H   SGN d 304      88.306  20.882 103.322  0.00  0.00     0.131 H 
ATOM    126  H   SGN d 304      85.775  23.337 101.932  0.00  0.00     0.089 H 
ATOM    127  H   SGN d 304      88.783  22.986 102.190  0.00  0.00     0.076 H 
ATOM    128  H   SGN d 304      89.425  21.586 104.585  0.00  0.00     0.231 HD
ATOM    129  H   SGN d 304      87.888  22.834  99.814  0.00  0.00     0.091 H 
ATOM    130  O5S SGN d 302      89.482  33.099  96.915  0.00  0.00    -0.572 OA
ATOM    131  C4  SGN d 302      89.054  28.083  93.652  0.00  0.00     0.095 C 
ATOM    132  O1S SGN d 302      84.857  25.517  91.242  0.00  0.00    -0.296 OA
ATOM    133  O3  SGN d 302      88.237  26.543  92.009  0.00  0.00    -0.391 OA
ATOM    134  O2S SGN d 302      84.314  27.616  92.183  0.00  0.00    -0.296 OA
ATOM    135  C1  SGN d 302      86.645  27.691  95.210  0.00  0.00     0.150 C 
ATOM    136  C5  SGN d 302      88.972  28.447  95.128  0.00  0.00     0.091 C 
ATOM    137  O3S SGN d 302      83.377  25.667  93.091  0.00  0.00    -0.296 OA
ATOM    138  O5  SGN d 302      87.595  28.761  95.464  0.00  0.00    -0.349 OA
ATOM    139  C6  SGN d 302      89.886  29.631  95.410  0.00  0.00     0.067 C 
ATOM    140  S1  SGN d 302      84.542  26.231  92.455  0.00  0.00     0.156 S 
ATOM    141  O4S SGN d 302      89.639  31.249  98.377  0.00  0.00    -0.572 OA
ATOM    142  O6S SGN d 302      91.374  31.713  96.833  0.00  0.00    -0.572 OA
ATOM    143  O4  SGN d 302      90.377  27.744  93.353  0.00  0.00    -0.348 OA
ATOM    144  N   SGN d 302      85.925  26.132  93.554  0.00  0.00    -0.210 NA
ATOM    145  C3  SGN d 302      88.162  26.887  93.381  0.00  0.00     0.083 C 
ATOM    146  C2  SGN d 302      86.744  27.306  93.732  0.00  0.00     0.081 C 
ATOM    147  S2  SGN d 302      89.952  31.749  97.068  0.00  0.00     0.251 S 
ATOM    148  O6  SGN d 302      89.156  30.749  95.863  0.00  0.00    -0.254 OA
ATOM    149  O1  SGN d 302      86.939  26.515  95.965  0.00  0.00    -0.348 OA
ATOM    150  H   SGN d 302      88.737  28.908  93.050  0.00  0.00     0.091 H 
ATOM    151  H   SGN d 302      84.103  25.567  90.634  0.00  0.00     0.231 HD
ATOM    152  H   SGN d 302      89.144  26.277  91.792  0.00  0.00     0.210 HD
ATOM    153  H   SGN d 302      83.559  27.707  91.580  0.00  0.00     0.231 HD
ATOM    154  H   SGN d 302      85.674  28.046  95.487  0.00  0.00     0.131 H 
ATOM    155  H   SGN d 302      89.294  27.624  95.731  0.00  0.00     0.090 H 
ATOM    156  H   SGN d 302      82.621  25.723  92.487  0.00  0.00     0.231 HD
ATOM    157  H   SGN d 302      90.402  29.895  94.510  0.00  0.00     0.080 H 
ATOM    158  H   SGN d 302      90.577  29.348  96.175  0.00  0.00     0.080 H 
ATOM    159  H   SGN d 302      86.533  25.389  93.208  0.00  0.00     0.140 HD
ATOM    160  H   SGN d 302      88.464  26.039  93.959  0.00  0.00     0.089 H 
ATOM    161  H   SGN d 302      86.445  28.137  93.125  0.00  0.00     0.076 H 
ENDROOT
TORSDOF 50
ENDMDL
MODEL 75
REMARK VINA RESULT:      -9.1      4.209      6.086
REMARK  0 active torsions:
REMARK  status: ('A' for Active; 'I' for Inactive)
REMARK       I    between atoms: S_1  and  O2_2 
REMARK       I    between atoms: O2_2  and  C2_99 
REMARK       I    between atoms: C3_3  and  O3_50 
REMARK       I    between atoms: C2_5  and  O2_57 
REMARK       I    between atoms: O1S_6  and  S1_33 
REMARK       I    between atoms: O3_7  and  C3_52 
REMARK       I    between atoms: O6_9  and  C6_34 
REMARK       I    between atoms: O6_9  and  S2_17 
REMARK       I    between atoms: C2_13  and  N_73 
REMARK       I    between atoms: S_16  and  O2_57 
REMARK       I    between atoms: C1_20  and  O4_43 
REMARK       I    between atoms: C6_21  and  C5_67 
REMARK       I    between atoms: C6_21  and  O6_75 
REMARK       I    between atoms: N_22  and  C2_66 
REMARK       I    between atoms: N_22  and  S1_69 
REMARK       I    between atoms: S2_23  and  O6_75 
REMARK       I    between atoms: C1_24  and  O4_78 
REMARK       I    between atoms: C4_25  and  O4_78 
REMARK       I    between atoms: O3_26  and  C3_81 
REMARK       I    between atoms: O1S_27  and  S1_60 
REMARK       I    between atoms: O3S_28  and  S1_69 
REMARK       I    between atoms: O3_29  and  C3_87 
REMARK       I    between atoms: C6_30  and  C5_80 
REMARK       I    between atoms: O2S_32  and  S1_60 
REMARK       I    between atoms: S1_33  and  N_73 
REMARK       I    between atoms: S1_33  and  O2S_94 
REMARK       I    between atoms: S1_33  and  O3S_35 
REMARK       I    between atoms: C6_34  and  C5_38 
REMARK       I    between atoms: C2_36  and  O2_93 
REMARK       I    between atoms: O3_37  and  C3_65 
REMARK       I    between atoms: C1_40  and  O1_105 
REMARK       I    between atoms: O2S_41  and  S1_69 
REMARK       I    between atoms: C5_42  and  C6_54 
REMARK       I    between atoms: O4_43  and  C4_92 
REMARK       I    between atoms: O1_44  and  C1_62 
REMARK       I    between atoms: O1_44  and  C4_83 
REMARK       I    between atoms: C1_45  and  O4_102 
REMARK       I    between atoms: C4_46  and  O1_105 
REMARK       I    between atoms: O3S_47  and  S1_60 
REMARK       I    between atoms: C5_53  and  C6_61 
REMARK       I    between atoms: C6_54  and  O6_98 
REMARK       I    between atoms: O3_56  and  C3_84 
REMARK       I    between atoms: C5_59  and  C6_63 
REMARK       I    between atoms: S1_60  and  N_86 
REMARK       I    between atoms: S1_69  and  O1S_91 
REMARK       I    between atoms: O1_70  and  C1_96 
REMARK       I    between atoms: S_82  and  O2_93 
REMARK       I    between atoms: N_86  and  C2_90 
REMARK       I    between atoms: S2_95  and  O6_98 
REMARK       I    between atoms: C4_100  and  O4_102 
ROOT
ATOM      1  S   IDS d 303      77.427  22.906  99.545  0.00  0.00     0.252 S 
ATOM      2  O2  IDS d 303      78.436  21.629  98.893  0.00  0.00    -0.244 OA
ATOM      3  O61 IDS d 303      81.509  16.812  98.836  0.00  0.00    -0.646 OA
ATOM      4  O3  IDS d 303      81.967  21.473  98.485  0.00  0.00    -0.390 OA
ATOM      5  O3S IDS d 303      78.104  24.150  99.270  0.00  0.00    -0.572 OA
ATOM      6  C1  IDS d 303      79.818  20.779 100.658  0.00  0.00     0.161 C 
ATOM      7  C4  IDS d 303      80.479  19.645  97.926  0.00  0.00     0.103 C 
ATOM      8  O2S IDS d 303      76.142  22.840  98.905  0.00  0.00    -0.572 OA
ATOM      9  C3  IDS d 303      80.652  21.153  98.218  0.00  0.00     0.094 C 
ATOM     10  C5  IDS d 303      80.476  18.892  99.253  0.00  0.00     0.152 C 
ATOM     11  C6  IDS d 303      80.449  17.403  99.056  0.00  0.00     0.206 C 
ATOM     12  O62 IDS d 303      79.377  16.833  99.336  0.00  0.00    -0.646 OA
ATOM     13  O5  IDS d 303      79.735  19.395 100.350  0.00  0.00    -0.340 OA
ATOM     14  C2  IDS d 303      79.744  21.622  99.368  0.00  0.00     0.134 C 
ATOM     15  O1S IDS d 303      77.299  22.680 100.947  0.00  0.00    -0.572 OA
ATOM     16  H   IDS d 303      82.528  21.172  97.753  0.00  0.00     0.210 HD
ATOM     17  H   IDS d 303      78.980  20.980 101.292  0.00  0.00     0.133 H 
ATOM     18  H   IDS d 303      81.268  19.332  97.275  0.00  0.00     0.092 H 
ATOM     19  H   IDS d 303      80.356  21.672  97.331  0.00  0.00     0.091 H 
ATOM     20  H   IDS d 303      81.434  19.144  99.656  0.00  0.00     0.104 H 
ATOM     21  H   IDS d 303      80.089  22.593  99.658  0.00  0.00     0.097 H 
ATOM     22  C3  SGN d 306      84.665  26.929 108.903  0.00  0.00     0.083 C 
ATOM     23  O1S SGN d 306      81.536  27.572 110.736  0.00  0.00    -0.296 OA
ATOM     24  O4S SGN d 306      86.070  29.847 102.363  0.00  0.00    -0.572 OA
ATOM     25  O5S SGN d 306      85.235  27.637 102.291  0.00  0.00    -0.572 OA
ATOM     26  C2  SGN d 306      84.014  28.299 109.014  0.00  0.00     0.081 C 
ATOM     27  O5  SGN d 306      85.208  29.016 107.030  0.00  0.00    -0.350 OA
ATOM     28  C6  SGN d 306      86.162  27.486 105.406  0.00  0.00     0.067 C 
ATOM     29  S2  SGN d 306      86.162  28.530 102.926  0.00  0.00     0.251 S 
ATOM     30  S1  SGN d 306      82.338  28.700 111.138  0.00  0.00     0.156 S 
ATOM     31  O3S SGN d 306      82.463  28.737 112.573  0.00  0.00    -0.296 OA
ATOM     32  O4  SGN d 306      85.520  25.323 107.313  0.00  0.00    -0.348 OA
ATOM     33  O3  SGN d 306      83.804  25.967 109.484  0.00  0.00    -0.391 OA
ATOM     34  O6S SGN d 306      87.501  28.014 102.801  0.00  0.00    -0.572 OA
ATOM     35  C5  SGN d 306      85.849  27.713 106.875  0.00  0.00     0.091 C 
ATOM     36  O1  SGN d 306      86.047  29.594 109.180  0.00  0.00    -0.369 OA
ATOM     37  N   SGN d 306      83.939  28.572 110.422  0.00  0.00    -0.210 NA
ATOM     38  O6  SGN d 306      85.755  28.594 104.633  0.00  0.00    -0.254 OA
ATOM     39  C4  SGN d 306      84.905  26.620 107.422  0.00  0.00     0.095 C 
ATOM     40  O2S SGN d 306      81.766  29.920 110.657  0.00  0.00    -0.296 OA
ATOM     41  C1  SGN d 306      84.881  29.401 108.385  0.00  0.00     0.147 C 
ATOM     42  H   SGN d 306      85.602  26.907 109.418  0.00  0.00     0.089 H 
ATOM     43  H   SGN d 306      81.458  27.558 109.769  0.00  0.00     0.231 HD
ATOM     44  H   SGN d 306      83.068  28.293 108.512  0.00  0.00     0.076 H 
ATOM     45  H   SGN d 306      85.645  26.613 105.068  0.00  0.00     0.080 H 
ATOM     46  H   SGN d 306      87.218  27.358 105.296  0.00  0.00     0.080 H 
ATOM     47  H   SGN d 306      82.852  27.905 112.885  0.00  0.00     0.231 HD
ATOM     48  H   SGN d 306      82.950  25.977 109.024  0.00  0.00     0.210 HD
ATOM     49  H   SGN d 306      86.765  27.675 107.425  0.00  0.00     0.090 H 
ATOM     50  H   SGN d 306      85.786  29.851 110.078  0.00  0.00     0.212 HD
ATOM     51  H   SGN d 306      84.420  29.457 110.587  0.00  0.00     0.140 HD
ATOM     52  H   SGN d 306      83.993  26.611 106.864  0.00  0.00     0.091 H 
ATOM     53  H   SGN d 306      81.687  29.881 109.691  0.00  0.00     0.231 HD
ATOM     54  H   SGN d 306      84.353  30.331 108.352  0.00  0.00     0.131 H 
ATOM     55  C2  UAP d 301      76.040  13.745  95.466  0.00  0.00     0.132 C 
ATOM     56  S   UAP d 301      76.610  11.744  93.870  0.00  0.00     0.252 S 
ATOM     57  O1S UAP d 301      75.840  10.607  93.543  0.00  0.00    -0.572 OA
ATOM     58  C1  UAP d 301      75.921  15.203  95.074  0.00  0.00     0.161 C 
ATOM     59  O61 UAP d 301      71.663  15.398  97.410  0.00  0.00    -0.646 OA
ATOM     60  C5  UAP d 301      73.785  15.230  96.289  0.00  0.00     0.127 C 
ATOM     61  O3  UAP d 301      76.381  13.405  97.775  0.00  0.00    -0.393 OA
ATOM     62  O2  UAP d 301      75.506  12.956  94.458  0.00  0.00    -0.244 OA
ATOM     63  O5  UAP d 301      74.594  15.696  95.223  0.00  0.00    -0.343 OA
ATOM     64  C6  UAP d 301      72.401  15.831  96.502  0.00  0.00     0.203 C 
ATOM     65  O62 UAP d 301      72.063  16.733  95.705  0.00  0.00    -0.646 OA
ATOM     66  O3S UAP d 301      77.227  12.309  92.710  0.00  0.00    -0.572 OA
ATOM     67  O2S UAP d 301      77.569  11.415  94.896  0.00  0.00    -0.572 OA
ATOM     68  C3  UAP d 301      75.406  13.284  96.787  0.00  0.00     0.069 C 
ATOM     69  C4  UAP d 301      74.125  14.057  97.210  0.00  0.00    -0.005 C 
ATOM     70  H   UAP d 301      77.093  13.632  95.616  0.00  0.00     0.097 H 
ATOM     71  H   UAP d 301      76.156  15.348  94.040  0.00  0.00     0.133 H 
ATOM     72  H   UAP d 301      74.779  15.614  96.385  0.00  0.00     0.100 H 
ATOM     73  H   UAP d 301      77.176  12.920  97.504  0.00  0.00     0.210 HD
ATOM     74  H   UAP d 301      75.075  12.276  96.650  0.00  0.00     0.087 H 
ATOM     75  H   UAP d 301      73.300  13.374  97.204  0.00  0.00     0.041 H 
ATOM     76  H   UAP d 301      74.310  14.464  98.181  0.00  0.00     0.041 H 
ATOM     77  O5  IDS d 305      83.732  24.188 106.153  0.00  0.00    -0.340 OA
ATOM     78  O62 IDS d 305      81.003  23.695 106.134  0.00  0.00    -0.646 OA
ATOM     79  C1  IDS d 305      85.134  24.448 106.244  0.00  0.00     0.161 C 
ATOM     80  O3  IDS d 305      85.676  21.618 108.098  0.00  0.00    -0.390 OA
ATOM     81  C6  IDS d 305      81.671  22.951 106.888  0.00  0.00     0.206 C 
ATOM     82  C2  IDS d 305      85.984  23.152 106.325  0.00  0.00     0.134 C 
ATOM     83  C5  IDS d 305      83.192  23.043 106.764  0.00  0.00     0.152 C 
ATOM     84  C3  IDS d 305      85.375  21.810 106.774  0.00  0.00     0.094 C 
ATOM     85  S   IDS d 305      86.596  22.964 103.650  0.00  0.00     0.252 S 
ATOM     86  C4  IDS d 305      83.855  21.691 106.545  0.00  0.00     0.103 C 
ATOM     87  O3S IDS d 305      87.817  22.928 102.933  0.00  0.00    -0.572 OA
ATOM     88  O1S IDS d 305      85.870  24.136 103.312  0.00  0.00    -0.572 OA
ATOM     89  O2  IDS d 305      87.027  23.025 105.367  0.00  0.00    -0.244 OA
ATOM     90  O61 IDS d 305      81.174  22.008 107.526  0.00  0.00    -0.646 OA
ATOM     91  O2S IDS d 305      85.820  21.805 103.401  0.00  0.00    -0.572 OA
ATOM     92  H   IDS d 305      85.340  24.957 105.326  0.00  0.00     0.133 H 
ATOM     93  H   IDS d 305      86.635  21.696 108.226  0.00  0.00     0.210 HD
ATOM     94  H   IDS d 305      86.436  23.422 107.257  0.00  0.00     0.097 H 
ATOM     95  H   IDS d 305      83.537  23.308 107.742  0.00  0.00     0.104 H 
ATOM     96  H   IDS d 305      85.807  21.048 106.160  0.00  0.00     0.091 H 
ATOM     97  H   IDS d 305      83.473  20.968 107.234  0.00  0.00     0.092 H 
ATOM     98  O6  SGN d 304      78.941  19.937 103.855  0.00  0.00    -0.254 OA
ATOM     99  S2  SGN d 304      77.199  19.805 103.874  0.00  0.00     0.251 S 
ATOM    100  O5S SGN d 304      76.859  18.445 103.546  0.00  0.00    -0.572 OA
ATOM    101  N   SGN d 304      84.771  19.410 103.672  0.00  0.00    -0.210 NA
ATOM    102  O3S SGN d 304      85.456  16.944 104.142  0.00  0.00    -0.296 OA
ATOM    103  C6  SGN d 304      79.513  21.239 103.964  0.00  0.00     0.067 C 
ATOM    104  O3  SGN d 304      83.297  19.549 101.296  0.00  0.00    -0.391 OA
ATOM    105  C5  SGN d 304      81.006  21.072 103.832  0.00  0.00     0.091 C 
ATOM    106  O2S SGN d 304      87.050  18.608 104.517  0.00  0.00    -0.296 OA
ATOM    107  O1  SGN d 304      83.582  21.282 105.199  0.00  0.00    -0.348 OA
ATOM    108  O4S SGN d 304      76.719  20.136 105.181  0.00  0.00    -0.572 OA
ATOM    109  C1  SGN d 304      82.879  20.050 105.014  0.00  0.00     0.150 C 
ATOM    110  C3  SGN d 304      82.894  20.210 102.480  0.00  0.00     0.083 C 
ATOM    111  C2  SGN d 304      83.329  19.380 103.693  0.00  0.00     0.081 C 
ATOM    112  S1  SGN d 304      85.676  18.260 104.648  0.00  0.00     0.156 S 
ATOM    113  O6S SGN d 304      76.663  20.708 102.880  0.00  0.00    -0.572 OA
ATOM    114  O1S SGN d 304      85.269  18.327 106.022  0.00  0.00    -0.296 OA
ATOM    115  O5  SGN d 304      81.457  20.266 104.952  0.00  0.00    -0.349 OA
ATOM    116  C4  SGN d 304      81.378  20.354 102.518  0.00  0.00     0.095 C 
ATOM    117  O4  SGN d 304      80.974  21.144 101.389  0.00  0.00    -0.348 OA
ATOM    118  H   SGN d 304      85.053  20.342 103.975  0.00  0.00     0.140 HD
ATOM    119  H   SGN d 304      85.733  16.904 103.213  0.00  0.00     0.231 HD
ATOM    120  H   SGN d 304      79.273  21.667 104.915  0.00  0.00     0.080 H 
ATOM    121  H   SGN d 304      79.131  21.890 103.205  0.00  0.00     0.080 H 
ATOM    122  H   SGN d 304      84.264  19.464 101.286  0.00  0.00     0.210 HD
ATOM    123  H   SGN d 304      81.471  22.036 103.825  0.00  0.00     0.090 H 
ATOM    124  H   SGN d 304      87.308  18.558 103.584  0.00  0.00     0.231 HD
ATOM    125  H   SGN d 304      83.102  19.419 105.849  0.00  0.00     0.131 H 
ATOM    126  H   SGN d 304      83.347  21.178 102.502  0.00  0.00     0.089 H 
ATOM    127  H   SGN d 304      82.909  18.398 103.647  0.00  0.00     0.076 H 
ATOM    128  H   SGN d 304      84.332  18.088 106.094  0.00  0.00     0.231 HD
ATOM    129  H   SGN d 304      80.888  19.404 102.476  0.00  0.00     0.091 H 
ATOM    130  O5S SGN d 302      82.404  15.000  92.748  0.00  0.00    -0.572 OA
ATOM    131  C4  SGN d 302      77.445  17.026  95.449  0.00  0.00     0.095 C 
ATOM    132  O1S SGN d 302      74.935  21.894  95.531  0.00  0.00    -0.296 OA
ATOM    133  O3  SGN d 302      75.471  18.331  95.820  0.00  0.00    -0.391 OA
ATOM    134  O2S SGN d 302      76.756  21.755  94.032  0.00  0.00    -0.296 OA
ATOM    135  C1  SGN d 302      79.077  19.372  95.914  0.00  0.00     0.150 C 
ATOM    136  C5  SGN d 302      78.925  16.931  95.791  0.00  0.00     0.091 C 
ATOM    137  O3S SGN d 302      76.895  23.180  95.890  0.00  0.00    -0.296 OA
ATOM    138  O5  SGN d 302      79.593  18.140  95.343  0.00  0.00    -0.349 OA
ATOM    139  C6  SGN d 302      79.522  15.699  95.127  0.00  0.00     0.067 C 
ATOM    140  S1  SGN d 302      76.370  21.931  95.398  0.00  0.00     0.156 S 
ATOM    141  O4S SGN d 302      82.888  15.327  95.037  0.00  0.00    -0.572 OA
ATOM    142  O6S SGN d 302      81.415  13.603  94.354  0.00  0.00    -0.572 OA
ATOM    143  O4  SGN d 302      76.807  15.875  95.922  0.00  0.00    -0.348 OA
ATOM    144  N   SGN d 302      77.066  20.591  96.319  0.00  0.00    -0.210 NA
ATOM    145  C3  SGN d 302      76.849  18.240  96.133  0.00  0.00     0.083 C 
ATOM    146  C2  SGN d 302      77.583  19.456  95.592  0.00  0.00     0.081 C 
ATOM    147  S2  SGN d 302      81.884  14.941  94.086  0.00  0.00     0.251 S 
ATOM    148  O6  SGN d 302      80.526  16.048  94.200  0.00  0.00    -0.254 OA
ATOM    149  O1  SGN d 302      79.197  19.402  97.336  0.00  0.00    -0.348 OA
ATOM    150  H   SGN d 302      77.315  17.114  94.391  0.00  0.00     0.091 H 
ATOM    151  H   SGN d 302      74.545  22.626  95.029  0.00  0.00     0.231 HD
ATOM    152  H   SGN d 302      75.008  17.552  96.168  0.00  0.00     0.210 HD
ATOM    153  H   SGN d 302      76.389  22.476  93.497  0.00  0.00     0.231 HD
ATOM    154  H   SGN d 302      79.641  20.182  95.502  0.00  0.00     0.131 H 
ATOM    155  H   SGN d 302      79.055  16.838  96.849  0.00  0.00     0.090 H 
ATOM    156  H   SGN d 302      76.513  23.914  95.384  0.00  0.00     0.231 HD
ATOM    157  H   SGN d 302      78.745  15.169  94.615  0.00  0.00     0.080 H 
ATOM    158  H   SGN d 302      79.962  15.088  95.886  0.00  0.00     0.080 H 
ATOM    159  H   SGN d 302      76.338  20.243  96.944  0.00  0.00     0.140 HD
ATOM    160  H   SGN d 302      76.950  18.175  97.196  0.00  0.00     0.089 H 
ATOM    161  H   SGN d 302      77.448  19.525  94.532  0.00  0.00     0.076 H 
ENDROOT
TORSDOF 50
ENDMDL
MODEL 76
REMARK VINA RESULT:      -9.1      3.354      6.388
REMARK  0 active torsions:
REMARK  status: ('A' for Active; 'I' for Inactive)
REMARK       I    between atoms: S_1  and  O2_2 
REMARK       I    between atoms: O2_2  and  C2_99 
REMARK       I    between atoms: C3_3  and  O3_50 
REMARK       I    between atoms: C2_5  and  O2_57 
REMARK       I    between atoms: O1S_6  and  S1_33 
REMARK       I    between atoms: O3_7  and  C3_52 
REMARK       I    between atoms: O6_9  and  C6_34 
REMARK       I    between atoms: O6_9  and  S2_17 
REMARK       I    between atoms: C2_13  and  N_73 
REMARK       I    between atoms: S_16  and  O2_57 
REMARK       I    between atoms: C1_20  and  O4_43 
REMARK       I    between atoms: C6_21  and  C5_67 
REMARK       I    between atoms: C6_21  and  O6_75 
REMARK       I    between atoms: N_22  and  C2_66 
REMARK       I    between atoms: N_22  and  S1_69 
REMARK       I    between atoms: S2_23  and  O6_75 
REMARK       I    between atoms: C1_24  and  O4_78 
REMARK       I    between atoms: C4_25  and  O4_78 
REMARK       I    between atoms: O3_26  and  C3_81 
REMARK       I    between atoms: O1S_27  and  S1_60 
REMARK       I    between atoms: O3S_28  and  S1_69 
REMARK       I    between atoms: O3_29  and  C3_87 
REMARK       I    between atoms: C6_30  and  C5_80 
REMARK       I    between atoms: O2S_32  and  S1_60 
REMARK       I    between atoms: S1_33  and  N_73 
REMARK       I    between atoms: S1_33  and  O2S_94 
REMARK       I    between atoms: S1_33  and  O3S_35 
REMARK       I    between atoms: C6_34  and  C5_38 
REMARK       I    between atoms: C2_36  and  O2_93 
REMARK       I    between atoms: O3_37  and  C3_65 
REMARK       I    between atoms: C1_40  and  O1_105 
REMARK       I    between atoms: O2S_41  and  S1_69 
REMARK       I    between atoms: C5_42  and  C6_54 
REMARK       I    between atoms: O4_43  and  C4_92 
REMARK       I    between atoms: O1_44  and  C1_62 
REMARK       I    between atoms: O1_44  and  C4_83 
REMARK       I    between atoms: C1_45  and  O4_102 
REMARK       I    between atoms: C4_46  and  O1_105 
REMARK       I    between atoms: O3S_47  and  S1_60 
REMARK       I    between atoms: C5_53  and  C6_61 
REMARK       I    between atoms: C6_54  and  O6_98 
REMARK       I    between atoms: O3_56  and  C3_84 
REMARK       I    between atoms: C5_59  and  C6_63 
REMARK       I    between atoms: S1_60  and  N_86 
REMARK       I    between atoms: S1_69  and  O1S_91 
REMARK       I    between atoms: O1_70  and  C1_96 
REMARK       I    between atoms: S_82  and  O2_93 
REMARK       I    between atoms: N_86  and  C2_90 
REMARK       I    between atoms: S2_95  and  O6_98 
REMARK       I    between atoms: C4_100  and  O4_102 
ROOT
ATOM      1  S   IDS d 303      84.246  19.842 106.300  0.00  0.00     0.252 S 
ATOM      2  O2  IDS d 303      82.842  19.476 105.317  0.00  0.00    -0.244 OA
ATOM      3  O61 IDS d 303      79.798  18.500 100.580  0.00  0.00    -0.646 OA
ATOM      4  O3  IDS d 303      80.299  21.621 104.054  0.00  0.00    -0.390 OA
ATOM      5  O3S IDS d 303      83.899  20.983 107.110  0.00  0.00    -0.572 OA
ATOM      6  C1  IDS d 303      83.110  20.541 103.185  0.00  0.00     0.161 C 
ATOM      7  C4  IDS d 303      80.397  19.247 103.580  0.00  0.00     0.103 C 
ATOM      8  O2S IDS d 303      84.554  18.688 107.099  0.00  0.00    -0.572 OA
ATOM      9  C3  IDS d 303      80.848  20.426 104.473  0.00  0.00     0.094 C 
ATOM     10  C5  IDS d 303      81.223  19.268 102.297  0.00  0.00     0.152 C 
ATOM     11  C6  IDS d 303      80.756  18.236 101.310  0.00  0.00     0.206 C 
ATOM     12  O62 IDS d 303      81.507  17.254 101.149  0.00  0.00    -0.646 OA
ATOM     13  O5  IDS d 303      82.619  19.494 102.358  0.00  0.00    -0.340 OA
ATOM     14  C2  IDS d 303      82.380  20.537 104.545  0.00  0.00     0.134 C 
ATOM     15  O1S IDS d 303      85.325  20.139 105.415  0.00  0.00    -0.572 OA
ATOM     16  H   IDS d 303      79.333  21.537 104.013  0.00  0.00     0.210 HD
ATOM     17  H   IDS d 303      84.152  20.336 103.313  0.00  0.00     0.133 H 
ATOM     18  H   IDS d 303      79.347  19.341 103.397  0.00  0.00     0.092 H 
ATOM     19  H   IDS d 303      80.485  20.219 105.458  0.00  0.00     0.091 H 
ATOM     20  H   IDS d 303      80.984  20.229 101.893  0.00  0.00     0.104 H 
ATOM     21  H   IDS d 303      82.600  21.494 104.973  0.00  0.00     0.097 H 
ATOM     22  C3  SGN d 306      87.643  30.808 101.365  0.00  0.00     0.083 C 
ATOM     23  O1S SGN d 306      91.112  29.779 102.055  0.00  0.00    -0.296 OA
ATOM     24  O4S SGN d 306      82.528  31.147 106.560  0.00  0.00    -0.572 OA
ATOM     25  O5S SGN d 306      82.498  29.158 105.282  0.00  0.00    -0.572 OA
ATOM     26  C2  SGN d 306      88.441  31.272 102.574  0.00  0.00     0.081 C 
ATOM     27  O5  SGN d 306      86.372  31.791 103.727  0.00  0.00    -0.350 OA
ATOM     28  C6  SGN d 306      84.218  30.862 103.109  0.00  0.00     0.067 C 
ATOM     29  S2  SGN d 306      82.596  30.590 105.239  0.00  0.00     0.251 S 
ATOM     30  S1  SGN d 306      91.166  31.186 102.361  0.00  0.00     0.156 S 
ATOM     31  O3S SGN d 306      92.171  31.833 101.555  0.00  0.00    -0.296 OA
ATOM     32  O4  SGN d 306      85.558  29.778 100.710  0.00  0.00    -0.348 OA
ATOM     33  O3  SGN d 306      88.399  29.835 100.668  0.00  0.00    -0.391 OA
ATOM     34  O6S SGN d 306      81.551  31.126 104.404  0.00  0.00    -0.572 OA
ATOM     35  C5  SGN d 306      85.563  31.345 102.597  0.00  0.00     0.091 C 
ATOM     36  O1  SGN d 306      87.589  33.532 102.656  0.00  0.00    -0.369 OA
ATOM     37  N   SGN d 306      89.603  31.923 102.037  0.00  0.00    -0.210 NA
ATOM     38  O6  SGN d 306      84.142  30.995 104.511  0.00  0.00    -0.254 OA
ATOM     39  C4  SGN d 306      86.315  30.220 101.852  0.00  0.00     0.095 C 
ATOM     40  O2S SGN d 306      91.438  31.387 103.751  0.00  0.00    -0.296 OA
ATOM     41  C1  SGN d 306      87.677  32.320 103.399  0.00  0.00     0.147 C 
ATOM     42  H   SGN d 306      87.439  31.624 100.704  0.00  0.00     0.089 H 
ATOM     43  H   SGN d 306      90.433  29.354 102.602  0.00  0.00     0.231 HD
ATOM     44  H   SGN d 306      88.654  30.438 103.210  0.00  0.00     0.076 H 
ATOM     45  H   SGN d 306      84.090  29.834 102.846  0.00  0.00     0.080 H 
ATOM     46  H   SGN d 306      83.447  31.457 102.664  0.00  0.00     0.080 H 
ATOM     47  H   SGN d 306      91.975  31.689 100.617  0.00  0.00     0.231 HD
ATOM     48  H   SGN d 306      88.589  29.089 101.258  0.00  0.00     0.210 HD
ATOM     49  H   SGN d 306      85.395  32.150 101.912  0.00  0.00     0.090 H 
ATOM     50  H   SGN d 306      88.481  33.855 102.457  0.00  0.00     0.212 HD
ATOM     51  H   SGN d 306      89.626  32.870 102.416  0.00  0.00     0.140 HD
ATOM     52  H   SGN d 306      86.465  29.386 102.504  0.00  0.00     0.091 H 
ATOM     53  H   SGN d 306      90.755  30.947 104.281  0.00  0.00     0.231 HD
ATOM     54  H   SGN d 306      88.191  32.537 104.312  0.00  0.00     0.131 H 
ATOM     55  C2  UAP d 301      79.996  11.586 102.267  0.00  0.00     0.132 C 
ATOM     56  S   UAP d 301      77.995  10.111 101.432  0.00  0.00     0.252 S 
ATOM     57  O1S UAP d 301      77.974   8.748 101.065  0.00  0.00    -0.572 OA
ATOM     58  C1  UAP d 301      80.105  12.279 103.609  0.00  0.00     0.161 C 
ATOM     59  O61 UAP d 301      84.553  10.390 104.129  0.00  0.00    -0.646 OA
ATOM     60  C5  UAP d 301      82.352  11.303 103.794  0.00  0.00     0.127 C 
ATOM     61  O3  UAP d 301      81.434  12.471 100.620  0.00  0.00    -0.393 OA
ATOM     62  O2  UAP d 301      79.396  10.348 102.439  0.00  0.00    -0.244 OA
ATOM     63  O5  UAP d 301      81.155  11.745 104.408  0.00  0.00    -0.343 OA
ATOM     64  C6  UAP d 301      83.510  10.823 104.660  0.00  0.00     0.203 C 
ATOM     65  O62 UAP d 301      83.328  10.863 105.896  0.00  0.00    -0.646 OA
ATOM     66  O3S UAP d 301      76.869  10.451 102.246  0.00  0.00    -0.572 OA
ATOM     67  O2S UAP d 301      78.091  10.940 100.256  0.00  0.00    -0.572 OA
ATOM     68  C3  UAP d 301      81.277  11.362 101.449  0.00  0.00     0.069 C 
ATOM     69  C4  UAP d 301      82.566  11.139 102.288  0.00  0.00    -0.005 C 
ATOM     70  H   UAP d 301      79.426  12.286 101.692  0.00  0.00     0.097 H 
ATOM     71  H   UAP d 301      79.216  12.142 104.191  0.00  0.00     0.133 H 
ATOM     72  H   UAP d 301      81.891  12.256 103.641  0.00  0.00     0.100 H 
ATOM     73  H   UAP d 301      80.627  12.603 100.100  0.00  0.00     0.210 HD
ATOM     74  H   UAP d 301      81.153  10.449 100.903  0.00  0.00     0.087 H 
ATOM     75  H   UAP d 301      82.922  10.146 102.104  0.00  0.00     0.041 H 
ATOM     76  H   UAP d 301      83.269  11.886 101.988  0.00  0.00     0.041 H 
ATOM     77  O5  IDS d 305      85.549  27.412 101.196  0.00  0.00    -0.340 OA
ATOM     78  O62 IDS d 305      87.126  25.242 101.898  0.00  0.00    -0.646 OA
ATOM     79  C1  IDS d 305      84.802  28.562 100.794  0.00  0.00     0.161 C 
ATOM     80  O3  IDS d 305      85.215  27.840  97.471  0.00  0.00    -0.390 OA
ATOM     81  C6  IDS d 305      87.106  25.509 100.675  0.00  0.00     0.206 C 
ATOM     82  C2  IDS d 305      84.040  28.351  99.459  0.00  0.00     0.134 C 
ATOM     83  C5  IDS d 305      86.085  26.553 100.221  0.00  0.00     0.152 C 
ATOM     84  C3  IDS d 305      84.454  27.260  98.454  0.00  0.00     0.094 C 
ATOM     85  S   IDS d 305      81.614  27.644 100.543  0.00  0.00     0.252 S 
ATOM     86  C4  IDS d 305      85.204  26.067  99.080  0.00  0.00     0.103 C 
ATOM     87  O3S IDS d 305      80.307  28.180 100.435  0.00  0.00    -0.572 OA
ATOM     88  O1S IDS d 305      82.078  27.763 101.880  0.00  0.00    -0.572 OA
ATOM     89  O2  IDS d 305      82.644  28.619  99.483  0.00  0.00    -0.244 OA
ATOM     90  O61 IDS d 305      87.681  24.816  99.818  0.00  0.00    -0.646 OA
ATOM     91  O2S IDS d 305      81.650  26.292 100.120  0.00  0.00    -0.572 OA
ATOM     92  H   IDS d 305      84.101  28.678 101.594  0.00  0.00     0.133 H 
ATOM     93  H   IDS d 305      84.730  28.588  97.086  0.00  0.00     0.210 HD
ATOM     94  H   IDS d 305      84.517  29.178  98.974  0.00  0.00     0.097 H 
ATOM     95  H   IDS d 305      86.662  27.321  99.749  0.00  0.00     0.104 H 
ATOM     96  H   IDS d 305      83.554  26.841  98.056  0.00  0.00     0.091 H 
ATOM     97  H   IDS d 305      85.795  25.610  98.314  0.00  0.00     0.092 H 
ATOM     98  O6  SGN d 304      85.860  20.615 101.154  0.00  0.00    -0.254 OA
ATOM     99  S2  SGN d 304      86.931  19.356 101.721  0.00  0.00     0.251 S 
ATOM    100  O5S SGN d 304      86.592  18.143 101.022  0.00  0.00    -0.572 OA
ATOM    101  N   SGN d 304      81.969  24.170  98.601  0.00  0.00    -0.210 NA
ATOM    102  O3S SGN d 304      81.338  23.255  96.248  0.00  0.00    -0.296 OA
ATOM    103  C6  SGN d 304      85.878  21.865 101.838  0.00  0.00     0.067 C 
ATOM    104  O3  SGN d 304      81.140  22.365 100.574  0.00  0.00    -0.391 OA
ATOM    105  C5  SGN d 304      84.810  22.724 101.208  0.00  0.00     0.091 C 
ATOM    106  O2S SGN d 304      80.999  25.528  96.660  0.00  0.00    -0.296 OA
ATOM    107  O1  SGN d 304      84.275  25.118  99.617  0.00  0.00    -0.348 OA
ATOM    108  O4S SGN d 304      88.283  19.730 101.438  0.00  0.00    -0.572 OA
ATOM    109  C1  SGN d 304      84.297  23.794  99.077  0.00  0.00     0.150 C 
ATOM    110  C3  SGN d 304      82.427  22.953 100.574  0.00  0.00     0.083 C 
ATOM    111  C2  SGN d 304      82.877  23.180  99.127  0.00  0.00     0.081 C 
ATOM    112  S1  SGN d 304      81.876  24.425  96.863  0.00  0.00     0.156 S 
ATOM    113  O6S SGN d 304      86.724  19.189 103.142  0.00  0.00    -0.572 OA
ATOM    114  O1S SGN d 304      83.174  24.707  96.320  0.00  0.00    -0.296 OA
ATOM    115  O5  SGN d 304      85.187  22.942  99.822  0.00  0.00    -0.349 OA
ATOM    116  C4  SGN d 304      83.434  22.030 101.249  0.00  0.00     0.095 C 
ATOM    117  O4  SGN d 304      83.018  21.830 102.608  0.00  0.00    -0.348 OA
ATOM    118  H   SGN d 304      82.230  25.063  99.018  0.00  0.00     0.140 HD
ATOM    119  H   SGN d 304      80.461  23.069  96.619  0.00  0.00     0.231 HD
ATOM    120  H   SGN d 304      86.836  22.330 101.730  0.00  0.00     0.080 H 
ATOM    121  H   SGN d 304      85.695  21.732 102.884  0.00  0.00     0.080 H 
ATOM    122  H   SGN d 304      80.511  22.964 100.142  0.00  0.00     0.210 HD
ATOM    123  H   SGN d 304      84.732  23.645 101.747  0.00  0.00     0.090 H 
ATOM    124  H   SGN d 304      80.128  25.321  97.032  0.00  0.00     0.231 HD
ATOM    125  H   SGN d 304      84.641  23.861  98.065  0.00  0.00     0.131 H 
ATOM    126  H   SGN d 304      82.379  23.880 101.106  0.00  0.00     0.089 H 
ATOM    127  H   SGN d 304      82.883  22.258  98.586  0.00  0.00     0.076 H 
ATOM    128  H   SGN d 304      83.758  23.947  96.467  0.00  0.00     0.231 HD
ATOM    129  H   SGN d 304      83.494  21.081 100.756  0.00  0.00     0.091 H 
ATOM    130  O5S SGN d 302      74.274  15.677 102.215  0.00  0.00    -0.572 OA
ATOM    131  C4  SGN d 302      79.846  14.604 104.166  0.00  0.00     0.095 C 
ATOM    132  O1S SGN d 302      82.569  16.005 108.708  0.00  0.00    -0.296 OA
ATOM    133  O3  SGN d 302      81.648  14.227 105.698  0.00  0.00    -0.391 OA
ATOM    134  O2S SGN d 302      80.279  16.590 108.718  0.00  0.00    -0.296 OA
ATOM    135  C1  SGN d 302      79.704  17.367 105.020  0.00  0.00     0.150 C 
ATOM    136  C5  SGN d 302      79.158  15.678 103.335  0.00  0.00     0.091 C 
ATOM    137  O3S SGN d 302      81.904  18.282 108.707  0.00  0.00    -0.296 OA
ATOM    138  O5  SGN d 302      78.677  16.726 104.217  0.00  0.00    -0.349 OA
ATOM    139  C6  SGN d 302      78.010  15.055 102.552  0.00  0.00     0.067 C 
ATOM    140  S1  SGN d 302      81.582  16.952 108.252  0.00  0.00     0.156 S 
ATOM    141  O4S SGN d 302      75.760  17.072 101.019  0.00  0.00    -0.572 OA
ATOM    142  O6S SGN d 302      75.779  14.727 100.684  0.00  0.00    -0.572 OA
ATOM    143  O4  SGN d 302      80.338  13.623 103.301  0.00  0.00    -0.348 OA
ATOM    144  N   SGN d 302      81.536  16.924 106.484  0.00  0.00    -0.210 NA
ATOM    145  C3  SGN d 302      81.003  15.223 104.925  0.00  0.00     0.083 C 
ATOM    146  C2  SGN d 302      80.414  16.286 105.839  0.00  0.00     0.081 C 
ATOM    147  S2  SGN d 302      75.587  15.789 101.641  0.00  0.00     0.251 S 
ATOM    148  O6  SGN d 302      76.769  15.609 102.928  0.00  0.00    -0.254 OA
ATOM    149  O1  SGN d 302      80.701  18.002 104.219  0.00  0.00    -0.348 OA
ATOM    150  H   SGN d 302      79.154  14.175 104.860  0.00  0.00     0.091 H 
ATOM    151  H   SGN d 302      82.601  16.013 109.678  0.00  0.00     0.231 HD
ATOM    152  H   SGN d 302      82.022  13.553 105.110  0.00  0.00     0.210 HD
ATOM    153  H   SGN d 302      80.269  16.595 109.688  0.00  0.00     0.231 HD
ATOM    154  H   SGN d 302      79.226  18.107 105.628  0.00  0.00     0.131 H 
ATOM    155  H   SGN d 302      79.847  16.105 102.638  0.00  0.00     0.090 H 
ATOM    156  H   SGN d 302      81.929  18.294 109.676  0.00  0.00     0.231 HD
ATOM    157  H   SGN d 302      77.992  14.002 102.739  0.00  0.00     0.080 H 
ATOM    158  H   SGN d 302      78.166  15.254 101.512  0.00  0.00     0.080 H 
ATOM    159  H   SGN d 302      82.379  16.445 106.167  0.00  0.00     0.140 HD
ATOM    160  H   SGN d 302      81.721  15.650 104.256  0.00  0.00     0.089 H 
ATOM    161  H   SGN d 302      79.720  15.840 106.521  0.00  0.00     0.076 H 
ENDROOT
TORSDOF 50
ENDMDL
MODEL 77
REMARK VINA RESULT:      -9.1      5.536      9.997
REMARK  0 active torsions:
REMARK  status: ('A' for Active; 'I' for Inactive)
REMARK       I    between atoms: S_1  and  O2_2 
REMARK       I    between atoms: O2_2  and  C2_99 
REMARK       I    between atoms: C3_3  and  O3_50 
REMARK       I    between atoms: C2_5  and  O2_57 
REMARK       I    between atoms: O1S_6  and  S1_33 
REMARK       I    between atoms: O3_7  and  C3_52 
REMARK       I    between atoms: O6_9  and  C6_34 
REMARK       I    between atoms: O6_9  and  S2_17 
REMARK       I    between atoms: C2_13  and  N_73 
REMARK       I    between atoms: S_16  and  O2_57 
REMARK       I    between atoms: C1_20  and  O4_43 
REMARK       I    between atoms: C6_21  and  C5_67 
REMARK       I    between atoms: C6_21  and  O6_75 
REMARK       I    between atoms: N_22  and  C2_66 
REMARK       I    between atoms: N_22  and  S1_69 
REMARK       I    between atoms: S2_23  and  O6_75 
REMARK       I    between atoms: C1_24  and  O4_78 
REMARK       I    between atoms: C4_25  and  O4_78 
REMARK       I    between atoms: O3_26  and  C3_81 
REMARK       I    between atoms: O1S_27  and  S1_60 
REMARK       I    between atoms: O3S_28  and  S1_69 
REMARK       I    between atoms: O3_29  and  C3_87 
REMARK       I    between atoms: C6_30  and  C5_80 
REMARK       I    between atoms: O2S_32  and  S1_60 
REMARK       I    between atoms: S1_33  and  N_73 
REMARK       I    between atoms: S1_33  and  O2S_94 
REMARK       I    between atoms: S1_33  and  O3S_35 
REMARK       I    between atoms: C6_34  and  C5_38 
REMARK       I    between atoms: C2_36  and  O2_93 
REMARK       I    between atoms: O3_37  and  C3_65 
REMARK       I    between atoms: C1_40  and  O1_105 
REMARK       I    between atoms: O2S_41  and  S1_69 
REMARK       I    between atoms: C5_42  and  C6_54 
REMARK       I    between atoms: O4_43  and  C4_92 
REMARK       I    between atoms: O1_44  and  C1_62 
REMARK       I    between atoms: O1_44  and  C4_83 
REMARK       I    between atoms: C1_45  and  O4_102 
REMARK       I    between atoms: C4_46  and  O1_105 
REMARK       I    between atoms: O3S_47  and  S1_60 
REMARK       I    between atoms: C5_53  and  C6_61 
REMARK       I    between atoms: C6_54  and  O6_98 
REMARK       I    between atoms: O3_56  and  C3_84 
REMARK       I    between atoms: C5_59  and  C6_63 
REMARK       I    between atoms: S1_60  and  N_86 
REMARK       I    between atoms: S1_69  and  O1S_91 
REMARK       I    between atoms: O1_70  and  C1_96 
REMARK       I    between atoms: S_82  and  O2_93 
REMARK       I    between atoms: N_86  and  C2_90 
REMARK       I    between atoms: S2_95  and  O6_98 
REMARK       I    between atoms: C4_100  and  O4_102 
ROOT
ATOM      1  S   IDS d 303      77.178  20.933  96.963  0.00  0.00     0.252 S 
ATOM      2  O2  IDS d 303      76.562  19.364  97.446  0.00  0.00    -0.244 OA
ATOM      3  O61 IDS d 303      74.301  15.383 100.865  0.00  0.00    -0.646 OA
ATOM      4  O3  IDS d 303      78.285  16.487  98.635  0.00  0.00    -0.390 OA
ATOM      5  O3S IDS d 303      78.509  20.716  96.452  0.00  0.00    -0.572 OA
ATOM      6  C1  IDS d 303      76.962  19.082  99.793  0.00  0.00     0.161 C 
ATOM      7  C4  IDS d 303      75.874  16.606  98.426  0.00  0.00     0.103 C 
ATOM      8  O2S IDS d 303      76.299  21.477  95.965  0.00  0.00    -0.572 OA
ATOM      9  C3  IDS d 303      77.254  17.181  98.035  0.00  0.00     0.094 C 
ATOM     10  C5  IDS d 303      75.513  17.116  99.818  0.00  0.00     0.152 C 
ATOM     11  C6  IDS d 303      74.246  16.495 100.335  0.00  0.00     0.206 C 
ATOM     12  O62 IDS d 303      73.250  17.242 100.381  0.00  0.00    -0.646 OA
ATOM     13  O5  IDS d 303      75.729  18.475 100.151  0.00  0.00    -0.340 OA
ATOM     14  C2  IDS d 303      77.361  18.682  98.358  0.00  0.00     0.134 C 
ATOM     15  O1S IDS d 303      77.192  21.765  98.122  0.00  0.00    -0.572 OA
ATOM     16  H   IDS d 303      78.205  15.543  98.424  0.00  0.00     0.210 HD
ATOM     17  H   IDS d 303      76.790  20.136  99.860  0.00  0.00     0.133 H 
ATOM     18  H   IDS d 303      75.925  15.537  98.378  0.00  0.00     0.092 H 
ATOM     19  H   IDS d 303      77.346  17.064  96.975  0.00  0.00     0.091 H 
ATOM     20  H   IDS d 303      76.319  16.739 100.411  0.00  0.00     0.104 H 
ATOM     21  H   IDS d 303      78.397  18.940  98.282  0.00  0.00     0.097 H 
ATOM     22  C3  SGN d 306      86.207  22.512 105.455  0.00  0.00     0.083 C 
ATOM     23  O1S SGN d 306      85.375  26.098 105.331  0.00  0.00    -0.296 OA
ATOM     24  O4S SGN d 306      88.099  18.700  99.526  0.00  0.00    -0.572 OA
ATOM     25  O5S SGN d 306      85.826  18.489 100.143  0.00  0.00    -0.572 OA
ATOM     26  C2  SGN d 306      86.990  23.537 104.648  0.00  0.00     0.081 C 
ATOM     27  O5  SGN d 306      87.846  21.759 103.240  0.00  0.00    -0.350 OA
ATOM     28  C6  SGN d 306      86.808  19.574 103.049  0.00  0.00     0.067 C 
ATOM     29  S2  SGN d 306      87.183  18.497 100.612  0.00  0.00     0.251 S 
ATOM     30  S1  SGN d 306      86.810  26.143 105.457  0.00  0.00     0.156 S 
ATOM     31  O3S SGN d 306      87.184  26.901 106.625  0.00  0.00    -0.296 OA
ATOM     32  O4  SGN d 306      85.059  20.393 105.286  0.00  0.00    -0.348 OA
ATOM     33  O3  SGN d 306      85.064  23.142 106.004  0.00  0.00    -0.391 OA
ATOM     34  O6S SGN d 306      87.469  17.261 101.297  0.00  0.00    -0.572 OA
ATOM     35  C5  SGN d 306      87.104  20.740 103.976  0.00  0.00     0.091 C 
ATOM     36  O1  SGN d 306      89.188  22.603 105.014  0.00  0.00    -0.369 OA
ATOM     37  N   SGN d 306      87.443  24.509 105.604  0.00  0.00    -0.210 NA
ATOM     38  O6  SGN d 306      87.340  19.812 101.765  0.00  0.00    -0.254 OA
ATOM     39  C4  SGN d 306      85.802  21.364 104.525  0.00  0.00     0.095 C 
ATOM     40  O2S SGN d 306      87.400  26.712 104.285  0.00  0.00    -0.296 OA
ATOM     41  C1  SGN d 306      88.241  22.924 104.000  0.00  0.00     0.147 C 
ATOM     42  H   SGN d 306      86.800  22.119 106.254  0.00  0.00     0.089 H 
ATOM     43  H   SGN d 306      85.135  25.586 104.543  0.00  0.00     0.231 HD
ATOM     44  H   SGN d 306      86.372  23.934 103.870  0.00  0.00     0.076 H 
ATOM     45  H   SGN d 306      85.748  19.447 102.973  0.00  0.00     0.080 H 
ATOM     46  H   SGN d 306      87.259  18.692 103.452  0.00  0.00     0.080 H 
ATOM     47  H   SGN d 306      86.778  26.505 107.411  0.00  0.00     0.231 HD
ATOM     48  H   SGN d 306      84.518  23.502 105.288  0.00  0.00     0.210 HD
ATOM     49  H   SGN d 306      87.679  20.377 104.802  0.00  0.00     0.090 H 
ATOM     50  H   SGN d 306      89.428  23.408 105.499  0.00  0.00     0.212 HD
ATOM     51  H   SGN d 306      88.458  24.566 105.524  0.00  0.00     0.140 HD
ATOM     52  H   SGN d 306      85.190  21.704 103.717  0.00  0.00     0.091 H 
ATOM     53  H   SGN d 306      87.140  26.193 103.508  0.00  0.00     0.231 HD
ATOM     54  H   SGN d 306      88.706  23.619 103.332  0.00  0.00     0.131 H 
ATOM     55  C2  UAP d 301      68.166  16.338  97.382  0.00  0.00     0.132 C 
ATOM     56  S   UAP d 301      66.539  14.284  97.273  0.00  0.00     0.252 S 
ATOM     57  O1S UAP d 301      65.129  14.255  97.223  0.00  0.00    -0.572 OA
ATOM     58  C1  UAP d 301      69.215  16.711  96.355  0.00  0.00     0.161 C 
ATOM     59  O61 UAP d 301      67.498  21.258  96.374  0.00  0.00    -0.646 OA
ATOM     60  C5  UAP d 301      68.305  18.992  96.431  0.00  0.00     0.127 C 
ATOM     61  O3  UAP d 301      68.519  17.314  99.500  0.00  0.00    -0.393 OA
ATOM     62  O2  UAP d 301      67.038  15.862  96.731  0.00  0.00    -0.244 OA
ATOM     63  O5  UAP d 301      68.921  17.943  95.706  0.00  0.00    -0.343 OA
ATOM     64  C6  UAP d 301      68.079  20.341  95.759  0.00  0.00     0.203 C 
ATOM     65  O62 UAP d 301      68.477  20.442  94.578  0.00  0.00    -0.646 OA
ATOM     66  O3S UAP d 301      67.115  13.355  96.350  0.00  0.00    -0.572 OA
ATOM     67  O2S UAP d 301      66.992  14.065  98.625  0.00  0.00    -0.572 OA
ATOM     68  C3  UAP d 301      67.698  17.410  98.378  0.00  0.00     0.069 C 
ATOM     69  C4  UAP d 301      67.710  18.866  97.835  0.00  0.00    -0.005 C 
ATOM     70  H   UAP d 301      68.678  15.615  97.982  0.00  0.00     0.097 H 
ATOM     71  H   UAP d 301      69.263  15.987  95.568  0.00  0.00     0.133 H 
ATOM     72  H   UAP d 301      69.179  18.456  96.735  0.00  0.00     0.100 H 
ATOM     73  H   UAP d 301      68.506  16.404  99.833  0.00  0.00     0.210 HD
ATOM     74  H   UAP d 301      66.669  17.216  98.598  0.00  0.00     0.087 H 
ATOM     75  H   UAP d 301      66.701  19.225  97.808  0.00  0.00     0.041 H 
ATOM     76  H   UAP d 301      68.329  19.441  98.490  0.00  0.00     0.041 H 
ATOM     77  O5  IDS d 305      82.935  20.625 104.161  0.00  0.00    -0.340 OA
ATOM     78  O62 IDS d 305      81.039  22.437 103.260  0.00  0.00    -0.646 OA
ATOM     79  C1  IDS d 305      83.930  19.743 104.686  0.00  0.00     0.161 C 
ATOM     80  O3  IDS d 305      82.274  19.430 107.669  0.00  0.00    -0.390 OA
ATOM     81  C6  IDS d 305      80.942  22.125 104.469  0.00  0.00     0.206 C 
ATOM     82  C2  IDS d 305      83.353  18.711 105.691  0.00  0.00     0.134 C 
ATOM     83  C5  IDS d 305      81.824  20.972 104.949  0.00  0.00     0.152 C 
ATOM     84  C3  IDS d 305      82.012  18.946 106.413  0.00  0.00     0.094 C 
ATOM     85  S   IDS d 305      83.021  16.637 103.915  0.00  0.00     0.252 S 
ATOM     86  C4  IDS d 305      81.042  19.882 105.667  0.00  0.00     0.103 C 
ATOM     87  O3S IDS d 305      83.520  15.312 103.864  0.00  0.00    -0.572 OA
ATOM     88  O1S IDS d 305      83.514  17.385 102.815  0.00  0.00    -0.572 OA
ATOM     89  O2  IDS d 305      83.635  17.345 105.419  0.00  0.00    -0.244 OA
ATOM     90  O61 IDS d 305      80.024  22.528 105.204  0.00  0.00    -0.646 OA
ATOM     91  O2S IDS d 305      81.603  16.651 103.935  0.00  0.00    -0.572 OA
ATOM     92  H   IDS d 305      84.281  19.237 103.812  0.00  0.00     0.133 H 
ATOM     93  H   IDS d 305      82.886  18.830 108.126  0.00  0.00     0.210 HD
ATOM     94  H   IDS d 305      83.999  19.019 106.487  0.00  0.00     0.097 H 
ATOM     95  H   IDS d 305      82.416  21.383 105.740  0.00  0.00     0.104 H 
ATOM     96  H   IDS d 305      81.509  18.002 106.454  0.00  0.00     0.091 H 
ATOM     97  H   IDS d 305      80.375  20.308 106.387  0.00  0.00     0.092 H 
ATOM     98  O6  SGN d 304      76.411  21.291 102.345  0.00  0.00    -0.254 OA
ATOM     99  S2  SGN d 304      75.355  22.530 101.711  0.00  0.00     0.251 S 
ATOM    100  O5S SGN d 304      73.997  22.108 101.937  0.00  0.00    -0.572 OA
ATOM    101  N   SGN d 304      79.129  16.732 104.820  0.00  0.00    -0.210 NA
ATOM    102  O3S SGN d 304      77.583  15.635 106.602  0.00  0.00    -0.296 OA
ATOM    103  C6  SGN d 304      77.805  21.395 102.067  0.00  0.00     0.067 C 
ATOM    104  O3  SGN d 304      77.982  16.474 102.280  0.00  0.00    -0.391 OA
ATOM    105  C5  SGN d 304      78.460  20.167 102.648  0.00  0.00     0.091 C 
ATOM    106  O2S SGN d 304      79.883  15.274 106.784  0.00  0.00    -0.296 OA
ATOM    107  O1  SGN d 304      80.300  19.153 104.681  0.00  0.00    -0.348 OA
ATOM    108  O4S SGN d 304      75.614  23.760 102.395  0.00  0.00    -0.572 OA
ATOM    109  C1  SGN d 304      78.876  19.125 104.814  0.00  0.00     0.150 C 
ATOM    110  C3  SGN d 304      78.528  17.693 102.747  0.00  0.00     0.083 C 
ATOM    111  C2  SGN d 304      78.322  17.789 104.262  0.00  0.00     0.081 C 
ATOM    112  S1  SGN d 304      78.874  16.233 106.487  0.00  0.00     0.156 S 
ATOM    113  O6S SGN d 304      75.608  22.661 100.293  0.00  0.00    -0.572 OA
ATOM    114  O1S SGN d 304      78.970  17.356 107.375  0.00  0.00    -0.296 OA
ATOM    115  O5  SGN d 304      78.264  20.206 104.086  0.00  0.00    -0.349 OA
ATOM    116  C4  SGN d 304      77.825  18.876 102.092  0.00  0.00     0.095 C 
ATOM    117  O4  SGN d 304      78.032  18.791 100.674  0.00  0.00    -0.348 OA
ATOM    118  H   SGN d 304      80.102  17.032 104.746  0.00  0.00     0.140 HD
ATOM    119  H   SGN d 304      77.524  14.876 106.000  0.00  0.00     0.231 HD
ATOM    120  H   SGN d 304      78.207  22.276 102.523  0.00  0.00     0.080 H 
ATOM    121  H   SGN d 304      77.982  21.462 101.014  0.00  0.00     0.080 H 
ATOM    122  H   SGN d 304      78.439  15.731 102.705  0.00  0.00     0.210 HD
ATOM    123  H   SGN d 304      79.499  20.162 102.390  0.00  0.00     0.090 H 
ATOM    124  H   SGN d 304      79.803  14.523 106.176  0.00  0.00     0.231 HD
ATOM    125  H   SGN d 304      78.644  19.226 105.854  0.00  0.00     0.131 H 
ATOM    126  H   SGN d 304      79.569  17.716 102.504  0.00  0.00     0.089 H 
ATOM    127  H   SGN d 304      77.283  17.723 104.505  0.00  0.00     0.076 H 
ATOM    128  H   SGN d 304      78.277  17.999 107.159  0.00  0.00     0.231 HD
ATOM    129  H   SGN d 304      76.774  18.874 102.295  0.00  0.00     0.091 H 
ATOM    130  O5S SGN d 302      72.143  10.539  97.255  0.00  0.00    -0.572 OA
ATOM    131  C4  SGN d 302      71.606  16.458  96.436  0.00  0.00     0.095 C 
ATOM    132  O1S SGN d 302      74.221  20.060  93.243  0.00  0.00    -0.296 OA
ATOM    133  O3  SGN d 302      71.663  18.579  95.325  0.00  0.00    -0.391 OA
ATOM    134  O2S SGN d 302      74.814  17.803  92.866  0.00  0.00    -0.296 OA
ATOM    135  C1  SGN d 302      74.499  16.362  96.392  0.00  0.00     0.150 C 
ATOM    136  C5  SGN d 302      72.402  15.541  97.353  0.00  0.00     0.091 C 
ATOM    137  O3S SGN d 302      76.409  19.288  93.735  0.00  0.00    -0.296 OA
ATOM    138  O5  SGN d 302      73.667  15.216  96.717  0.00  0.00    -0.349 OA
ATOM    139  C6  SGN d 302      71.596  14.281  97.637  0.00  0.00     0.067 C 
ATOM    140  S1  SGN d 302      75.009  18.945  93.707  0.00  0.00     0.156 S 
ATOM    141  O4S SGN d 302      73.114  11.635  99.110  0.00  0.00    -0.572 OA
ATOM    142  O6S SGN d 302      70.773  11.706  98.761  0.00  0.00    -0.572 OA
ATOM    143  O4  SGN d 302      70.410  16.794  97.077  0.00  0.00    -0.348 OA
ATOM    144  N   SGN d 302      74.473  18.500  95.332  0.00  0.00    -0.210 NA
ATOM    145  C3  SGN d 302      72.402  17.721  96.176  0.00  0.00     0.083 C 
ATOM    146  C2  SGN d 302      73.690  17.297  95.490  0.00  0.00     0.081 C 
ATOM    147  S2  SGN d 302      72.068  11.679  98.127  0.00  0.00     0.251 S 
ATOM    148  O6  SGN d 302      72.251  13.130  97.155  0.00  0.00    -0.254 OA
ATOM    149  O1  SGN d 302      74.862  17.114  97.550  0.00  0.00    -0.348 OA
ATOM    150  H   SGN d 302      71.404  15.966  95.508  0.00  0.00     0.091 H 
ATOM    151  H   SGN d 302      74.508  20.311  92.351  0.00  0.00     0.231 HD
ATOM    152  H   SGN d 302      70.842  18.846  95.768  0.00  0.00     0.210 HD
ATOM    153  H   SGN d 302      75.099  18.014  91.963  0.00  0.00     0.231 HD
ATOM    154  H   SGN d 302      75.389  15.994  95.925  0.00  0.00     0.131 H 
ATOM    155  H   SGN d 302      72.601  16.029  98.284  0.00  0.00     0.090 H 
ATOM    156  H   SGN d 302      76.700  19.531  92.843  0.00  0.00     0.231 HD
ATOM    157  H   SGN d 302      70.641  14.364  97.160  0.00  0.00     0.080 H 
ATOM    158  H   SGN d 302      71.484  14.186  98.697  0.00  0.00     0.080 H 
ATOM    159  H   SGN d 302      73.912  19.274  95.688  0.00  0.00     0.140 HD
ATOM    160  H   SGN d 302      72.608  18.244  97.086  0.00  0.00     0.089 H 
ATOM    161  H   SGN d 302      73.469  16.802  94.567  0.00  0.00     0.076 H 
ENDROOT
TORSDOF 50
ENDMDL
MODEL 78
REMARK VINA RESULT:      -9.1      6.940     13.001
REMARK  0 active torsions:
REMARK  status: ('A' for Active; 'I' for Inactive)
REMARK       I    between atoms: S_1  and  O2_2 
REMARK       I    between atoms: O2_2  and  C2_99 
REMARK       I    between atoms: C3_3  and  O3_50 
REMARK       I    between atoms: C2_5  and  O2_57 
REMARK       I    between atoms: O1S_6  and  S1_33 
REMARK       I    between atoms: O3_7  and  C3_52 
REMARK       I    between atoms: O6_9  and  C6_34 
REMARK       I    between atoms: O6_9  and  S2_17 
REMARK       I    between atoms: C2_13  and  N_73 
REMARK       I    between atoms: S_16  and  O2_57 
REMARK       I    between atoms: C1_20  and  O4_43 
REMARK       I    between atoms: C6_21  and  C5_67 
REMARK       I    between atoms: C6_21  and  O6_75 
REMARK       I    between atoms: N_22  and  C2_66 
REMARK       I    between atoms: N_22  and  S1_69 
REMARK       I    between atoms: S2_23  and  O6_75 
REMARK       I    between atoms: C1_24  and  O4_78 
REMARK       I    between atoms: C4_25  and  O4_78 
REMARK       I    between atoms: O3_26  and  C3_81 
REMARK       I    between atoms: O1S_27  and  S1_60 
REMARK       I    between atoms: O3S_28  and  S1_69 
REMARK       I    between atoms: O3_29  and  C3_87 
REMARK       I    between atoms: C6_30  and  C5_80 
REMARK       I    between atoms: O2S_32  and  S1_60 
REMARK       I    between atoms: S1_33  and  N_73 
REMARK       I    between atoms: S1_33  and  O2S_94 
REMARK       I    between atoms: S1_33  and  O3S_35 
REMARK       I    between atoms: C6_34  and  C5_38 
REMARK       I    between atoms: C2_36  and  O2_93 
REMARK       I    between atoms: O3_37  and  C3_65 
REMARK       I    between atoms: C1_40  and  O1_105 
REMARK       I    between atoms: O2S_41  and  S1_69 
REMARK       I    between atoms: C5_42  and  C6_54 
REMARK       I    between atoms: O4_43  and  C4_92 
REMARK       I    between atoms: O1_44  and  C1_62 
REMARK       I    between atoms: O1_44  and  C4_83 
REMARK       I    between atoms: C1_45  and  O4_102 
REMARK       I    between atoms: C4_46  and  O1_105 
REMARK       I    between atoms: O3S_47  and  S1_60 
REMARK       I    between atoms: C5_53  and  C6_61 
REMARK       I    between atoms: C6_54  and  O6_98 
REMARK       I    between atoms: O3_56  and  C3_84 
REMARK       I    between atoms: C5_59  and  C6_63 
REMARK       I    between atoms: S1_60  and  N_86 
REMARK       I    between atoms: S1_69  and  O1S_91 
REMARK       I    between atoms: O1_70  and  C1_96 
REMARK       I    between atoms: S_82  and  O2_93 
REMARK       I    between atoms: N_86  and  C2_90 
REMARK       I    between atoms: S2_95  and  O6_98 
REMARK       I    between atoms: C4_100  and  O4_102 
ROOT
ATOM      1  S   IDS d 303      77.543  22.653 104.724  0.00  0.00     0.252 S 
ATOM      2  O2  IDS d 303      77.640  20.991 104.175  0.00  0.00    -0.244 OA
ATOM      3  O61 IDS d 303      78.167  16.645 100.502  0.00  0.00    -0.646 OA
ATOM      4  O3  IDS d 303      75.056  18.680 103.372  0.00  0.00    -0.390 OA
ATOM      5  O3S IDS d 303      76.313  22.773 105.466  0.00  0.00    -0.572 OA
ATOM      6  C1  IDS d 303      76.775  20.877 101.942  0.00  0.00     0.161 C 
ATOM      7  C4  IDS d 303      77.414  18.172 103.152  0.00  0.00     0.103 C 
ATOM      8  O2S IDS d 303      78.693  22.929 105.540  0.00  0.00    -0.572 OA
ATOM      9  C3  IDS d 303      76.319  19.073 103.766  0.00  0.00     0.094 C 
ATOM     10  C5  IDS d 303      77.644  18.606 101.706  0.00  0.00     0.152 C 
ATOM     11  C6  IDS d 303      78.598  17.693 100.989  0.00  0.00     0.206 C 
ATOM     12  O62 IDS d 303      79.728  18.161 100.752  0.00  0.00    -0.646 OA
ATOM     13  O5  IDS d 303      77.729  19.982 101.387  0.00  0.00    -0.340 OA
ATOM     14  C2  IDS d 303      76.546  20.558 103.434  0.00  0.00     0.134 C 
ATOM     15  O1S IDS d 303      77.539  23.488 103.568  0.00  0.00    -0.572 OA
ATOM     16  H   IDS d 303      74.926  17.743 103.587  0.00  0.00     0.210 HD
ATOM     17  H   IDS d 303      77.198  21.853 101.823  0.00  0.00     0.133 H 
ATOM     18  H   IDS d 303      77.101  17.152 103.232  0.00  0.00     0.092 H 
ATOM     19  H   IDS d 303      76.388  18.957 104.828  0.00  0.00     0.091 H 
ATOM     20  H   IDS d 303      76.676  18.463 101.273  0.00  0.00     0.104 H 
ATOM     21  H   IDS d 303      75.641  21.072 103.685  0.00  0.00     0.097 H 
ATOM     22  C3  SGN d 306      67.874  26.698  97.921  0.00  0.00     0.083 C 
ATOM     23  O1S SGN d 306      69.607  29.946  97.817  0.00  0.00    -0.296 OA
ATOM     24  O4S SGN d 306      66.140  23.357 104.174  0.00  0.00    -0.572 OA
ATOM     25  O5S SGN d 306      68.138  22.586 103.171  0.00  0.00    -0.572 OA
ATOM     26  C2  SGN d 306      67.535  27.869  98.830  0.00  0.00     0.081 C 
ATOM     27  O5  SGN d 306      66.512  26.337 100.406  0.00  0.00    -0.350 OA
ATOM     28  C6  SGN d 306      66.972  23.956 100.460  0.00  0.00     0.067 C 
ATOM     29  S2  SGN d 306      66.768  22.952 102.948  0.00  0.00     0.251 S 
ATOM     30  S1  SGN d 306      68.232  30.361  97.944  0.00  0.00     0.156 S 
ATOM     31  O3S SGN d 306      67.867  31.217  96.843  0.00  0.00    -0.296 OA
ATOM     32  O4  SGN d 306      68.451  24.351  97.933  0.00  0.00    -0.348 OA
ATOM     33  O3  SGN d 306      69.025  27.026  97.166  0.00  0.00    -0.391 OA
ATOM     34  O6S SGN d 306      66.058  21.848 102.353  0.00  0.00    -0.572 OA
ATOM     35  C5  SGN d 306      66.827  25.180  99.574  0.00  0.00     0.091 C 
ATOM     36  O1  SGN d 306      65.142  27.539  98.878  0.00  0.00    -0.369 OA
ATOM     37  N   SGN d 306      67.186  28.948  97.948  0.00  0.00    -0.210 NA
ATOM     38  O6  SGN d 306      66.753  24.291 101.812  0.00  0.00    -0.254 OA
ATOM     39  C4  SGN d 306      68.127  25.462  98.790  0.00  0.00     0.095 C 
ATOM     40  O2S SGN d 306      68.024  31.034  99.189  0.00  0.00    -0.296 OA
ATOM     41  C1  SGN d 306      66.302  27.583  99.702  0.00  0.00     0.147 C 
ATOM     42  H   SGN d 306      67.069  26.489  97.248  0.00  0.00     0.089 H 
ATOM     43  H   SGN d 306      69.842  29.371  98.562  0.00  0.00     0.231 HD
ATOM     44  H   SGN d 306      68.361  28.076  99.478  0.00  0.00     0.076 H 
ATOM     45  H   SGN d 306      67.960  23.559 100.352  0.00  0.00     0.080 H 
ATOM     46  H   SGN d 306      66.246  23.228 100.163  0.00  0.00     0.080 H 
ATOM     47  H   SGN d 306      68.012  30.749  96.007  0.00  0.00     0.231 HD
ATOM     48  H   SGN d 306      69.763  27.217  97.766  0.00  0.00     0.210 HD
ATOM     49  H   SGN d 306      66.042  24.997  98.870  0.00  0.00     0.090 H 
ATOM     50  H   SGN d 306      65.035  28.390  98.425  0.00  0.00     0.212 HD
ATOM     51  H   SGN d 306      66.250  29.261  98.203  0.00  0.00     0.140 HD
ATOM     52  H   SGN d 306      68.939  25.614  99.470  0.00  0.00     0.091 H 
ATOM     53  H   SGN d 306      68.274  30.447  99.919  0.00  0.00     0.231 HD
ATOM     54  H   SGN d 306      66.157  28.358 100.426  0.00  0.00     0.131 H 
ATOM     55  C2  UAP d 301      84.855  15.911 102.828  0.00  0.00     0.132 C 
ATOM     56  S   UAP d 301      85.893  13.507 102.695  0.00  0.00     0.252 S 
ATOM     57  O1S UAP d 301      87.234  13.116 102.497  0.00  0.00    -0.572 OA
ATOM     58  C1  UAP d 301      84.134  16.516 104.015  0.00  0.00     0.161 C 
ATOM     59  O61 UAP d 301      86.930  20.470 103.593  0.00  0.00    -0.646 OA
ATOM     60  C5  UAP d 301      85.571  18.489 103.729  0.00  0.00     0.127 C 
ATOM     61  O3  UAP d 301      84.398  16.996 100.784  0.00  0.00    -0.393 OA
ATOM     62  O2  UAP d 301      85.920  15.147 103.281  0.00  0.00    -0.244 OA
ATOM     63  O5  UAP d 301      84.844  17.615 104.575  0.00  0.00    -0.343 OA
ATOM     64  C6  UAP d 301      86.250  19.718 104.321  0.00  0.00     0.203 C 
ATOM     65  O62 UAP d 301      86.106  19.889 105.551  0.00  0.00    -0.646 OA
ATOM     66  O3S UAP d 301      85.270  12.735 103.725  0.00  0.00    -0.572 OA
ATOM     67  O2S UAP d 301      85.169  13.443 101.449  0.00  0.00    -0.572 OA
ATOM     68  C3  UAP d 301      85.399  16.851 101.742  0.00  0.00     0.069 C 
ATOM     69  C4  UAP d 301      85.858  18.248 102.246  0.00  0.00    -0.005 C 
ATOM     70  H   UAP d 301      84.077  15.359 102.344  0.00  0.00     0.097 H 
ATOM     71  H   UAP d 301      84.041  15.810 104.814  0.00  0.00     0.133 H 
ATOM     72  H   UAP d 301      84.550  18.202 103.595  0.00  0.00     0.100 H 
ATOM     73  H   UAP d 301      84.118  16.121 100.474  0.00  0.00     0.210 HD
ATOM     74  H   UAP d 301      86.289  16.405 101.348  0.00  0.00     0.087 H 
ATOM     75  H   UAP d 301      86.913  18.336 102.087  0.00  0.00     0.041 H 
ATOM     76  H   UAP d 301      85.301  18.978 101.697  0.00  0.00     0.041 H 
ATOM     77  O5  IDS d 305      70.727  24.004  98.661  0.00  0.00    -0.340 OA
ATOM     78  O62 IDS d 305      73.153  25.247  99.173  0.00  0.00    -0.646 OA
ATOM     79  C1  IDS d 305      69.463  23.420  98.339  0.00  0.00     0.161 C 
ATOM     80  O3  IDS d 305      70.431  22.764  95.118  0.00  0.00    -0.390 OA
ATOM     81  C6  IDS d 305      72.952  24.950  97.973  0.00  0.00     0.206 C 
ATOM     82  C2  IDS d 305      69.570  22.298  97.271  0.00  0.00     0.134 C 
ATOM     83  C5  IDS d 305      71.733  24.073  97.682  0.00  0.00     0.152 C 
ATOM     84  C3  IDS d 305      70.777  22.199  96.320  0.00  0.00     0.094 C 
ATOM     85  S   IDS d 305      69.665  20.167  99.007  0.00  0.00     0.252 S 
ATOM     86  C4  IDS d 305      72.071  22.837  96.862  0.00  0.00     0.103 C 
ATOM     87  O3S IDS d 305      68.860  19.014  99.175  0.00  0.00    -0.572 OA
ATOM     88  O1S IDS d 305      69.582  20.990 100.160  0.00  0.00    -0.572 OA
ATOM     89  O2  IDS d 305      68.999  21.044  97.619  0.00  0.00    -0.244 OA
ATOM     90  O61 IDS d 305      73.799  25.121  97.080  0.00  0.00    -0.646 OA
ATOM     91  O2S IDS d 305      71.012  19.817  98.738  0.00  0.00    -0.572 OA
ATOM     92  H   IDS d 305      69.153  23.000  99.272  0.00  0.00     0.133 H 
ATOM     93  H   IDS d 305      69.616  22.352  94.790  0.00  0.00     0.210 HD
ATOM     94  H   IDS d 305      68.895  22.781  96.594  0.00  0.00     0.097 H 
ATOM     95  H   IDS d 305      71.138  24.642  96.998  0.00  0.00     0.104 H 
ATOM     96  H   IDS d 305      71.006  21.159  96.211  0.00  0.00     0.091 H 
ATOM     97  H   IDS d 305      72.687  23.095  96.026  0.00  0.00     0.092 H 
ATOM     98  O6  SGN d 304      77.417  22.930  99.285  0.00  0.00    -0.254 OA
ATOM     99  S2  SGN d 304      78.851  23.842  99.695  0.00  0.00     0.251 S 
ATOM    100  O5S SGN d 304      79.993  23.092  99.243  0.00  0.00    -0.572 OA
ATOM    101  N   SGN d 304      73.229  19.283  97.429  0.00  0.00    -0.210 NA
ATOM    102  O3S SGN d 304      74.104  17.868  95.428  0.00  0.00    -0.296 OA
ATOM    103  C6  SGN d 304      76.168  23.382  99.801  0.00  0.00     0.067 C 
ATOM    104  O3  SGN d 304      74.700  18.678  99.733  0.00  0.00    -0.391 OA
ATOM    105  C5  SGN d 304      75.128  22.377  99.372  0.00  0.00     0.091 C 
ATOM    106  O2S SGN d 304      71.794  18.114  95.662  0.00  0.00    -0.296 OA
ATOM    107  O1  SGN d 304      72.762  21.918  97.718  0.00  0.00    -0.348 OA
ATOM    108  O4S SGN d 304      78.800  25.113  99.040  0.00  0.00    -0.572 OA
ATOM    109  C1  SGN d 304      74.085  21.529  97.337  0.00  0.00     0.150 C 
ATOM    110  C3  SGN d 304      74.412  20.006  99.342  0.00  0.00     0.083 C 
ATOM    111  C2  SGN d 304      74.365  20.083  97.813  0.00  0.00     0.081 C 
ATOM    112  S1  SGN d 304      73.051  18.775  95.755  0.00  0.00     0.156 S 
ATOM    113  O6S SGN d 304      78.893  24.000 101.132  0.00  0.00    -0.572 OA
ATOM    114  O1S SGN d 304      73.091  19.906  94.873  0.00  0.00    -0.296 OA
ATOM    115  O5  SGN d 304      75.072  22.399  97.921  0.00  0.00    -0.349 OA
ATOM    116  C4  SGN d 304      75.498  20.953  99.837  0.00  0.00     0.095 C 
ATOM    117  O4  SGN d 304      75.529  20.891 101.270  0.00  0.00    -0.348 OA
ATOM    118  H   SGN d 304      72.395  19.819  97.666  0.00  0.00     0.140 HD
ATOM    119  H   SGN d 304      74.071  17.105  96.027  0.00  0.00     0.231 HD
ATOM    120  H   SGN d 304      75.932  24.348  99.403  0.00  0.00     0.080 H 
ATOM    121  H   SGN d 304      76.202  23.467 100.867  0.00  0.00     0.080 H 
ATOM    122  H   SGN d 304      74.000  18.087  99.412  0.00  0.00     0.210 HD
ATOM    123  H   SGN d 304      74.186  22.633  99.809  0.00  0.00     0.090 H 
ATOM    124  H   SGN d 304      71.783  17.353  96.263  0.00  0.00     0.231 HD
ATOM    125  H   SGN d 304      74.148  21.592  96.270  0.00  0.00     0.131 H 
ATOM    126  H   SGN d 304      73.470  20.290  99.764  0.00  0.00     0.089 H 
ATOM    127  H   SGN d 304      75.294  19.758  97.392  0.00  0.00     0.076 H 
ATOM    128  H   SGN d 304      73.953  20.344  94.949  0.00  0.00     0.231 HD
ATOM    129  H   SGN d 304      76.461  20.687  99.451  0.00  0.00     0.091 H 
ATOM    130  O5S SGN d 302      79.609  11.325 103.783  0.00  0.00    -0.572 OA
ATOM    131  C4  SGN d 302      81.783  16.887 104.362  0.00  0.00     0.095 C 
ATOM    132  O1S SGN d 302      80.783  20.961 107.884  0.00  0.00    -0.296 OA
ATOM    133  O3  SGN d 302      82.468  18.924 105.418  0.00  0.00    -0.391 OA
ATOM    134  O2S SGN d 302      79.706  18.924 108.410  0.00  0.00    -0.296 OA
ATOM    135  C1  SGN d 302      79.016  17.535 104.917  0.00  0.00     0.150 C 
ATOM    136  C5  SGN d 302      80.629  16.227 103.620  0.00  0.00     0.091 C 
ATOM    137  O3S SGN d 302      78.419  20.789 107.802  0.00  0.00    -0.296 OA
ATOM    138  O5  SGN d 302      79.456  16.223 104.476  0.00  0.00    -0.349 OA
ATOM    139  C6  SGN d 302      81.023  14.810 103.227  0.00  0.00     0.067 C 
ATOM    140  S1  SGN d 302      79.667  20.097 107.591  0.00  0.00     0.156 S 
ATOM    141  O4S SGN d 302      78.641  12.677 102.104  0.00  0.00    -0.572 OA
ATOM    142  O6S SGN d 302      80.946  12.137 102.034  0.00  0.00    -0.572 OA
ATOM    143  O4  SGN d 302      82.893  16.920 103.513  0.00  0.00    -0.348 OA
ATOM    144  N   SGN d 302      79.776  19.569 105.907  0.00  0.00    -0.210 NA
ATOM    145  C3  SGN d 302      81.396  18.305 104.730  0.00  0.00     0.083 C 
ATOM    146  C2  SGN d 302      80.183  18.210 105.642  0.00  0.00     0.081 C 
ATOM    147  S2  SGN d 302      79.820  12.428 102.886  0.00  0.00     0.251 S 
ATOM    148  O6  SGN d 302      80.189  13.854 103.842  0.00  0.00    -0.254 OA
ATOM    149  O1  SGN d 302      78.661  18.383 103.825  0.00  0.00    -0.348 OA
ATOM    150  H   SGN d 302      82.012  16.338 105.251  0.00  0.00     0.091 H 
ATOM    151  H   SGN d 302      80.731  21.256 108.806  0.00  0.00     0.231 HD
ATOM    152  H   SGN d 302      83.239  18.982 104.832  0.00  0.00     0.210 HD
ATOM    153  H   SGN d 302      79.649  19.180 109.344  0.00  0.00     0.231 HD
ATOM    154  H   SGN d 302      78.158  17.397 105.542  0.00  0.00     0.131 H 
ATOM    155  H   SGN d 302      80.402  16.772 102.729  0.00  0.00     0.090 H 
ATOM    156  H   SGN d 302      78.361  21.077 108.726  0.00  0.00     0.231 HD
ATOM    157  H   SGN d 302      82.035  14.634 103.526  0.00  0.00     0.080 H 
ATOM    158  H   SGN d 302      80.918  14.715 102.166  0.00  0.00     0.080 H 
ATOM    159  H   SGN d 302      80.445  20.181 105.441  0.00  0.00     0.140 HD
ATOM    160  H   SGN d 302      81.174  18.885 103.859  0.00  0.00     0.089 H 
ATOM    161  H   SGN d 302      80.429  17.653 106.522  0.00  0.00     0.076 H 
ENDROOT
TORSDOF 50
ENDMDL
MODEL 79
REMARK VINA RESULT:      -9.1      6.057     15.307
REMARK  0 active torsions:
REMARK  status: ('A' for Active; 'I' for Inactive)
REMARK       I    between atoms: S_1  and  O2_2 
REMARK       I    between atoms: O2_2  and  C2_99 
REMARK       I    between atoms: C3_3  and  O3_50 
REMARK       I    between atoms: C2_5  and  O2_57 
REMARK       I    between atoms: O1S_6  and  S1_33 
REMARK       I    between atoms: O3_7  and  C3_52 
REMARK       I    between atoms: O6_9  and  C6_34 
REMARK       I    between atoms: O6_9  and  S2_17 
REMARK       I    between atoms: C2_13  and  N_73 
REMARK       I    between atoms: S_16  and  O2_57 
REMARK       I    between atoms: C1_20  and  O4_43 
REMARK       I    between atoms: C6_21  and  C5_67 
REMARK       I    between atoms: C6_21  and  O6_75 
REMARK       I    between atoms: N_22  and  C2_66 
REMARK       I    between atoms: N_22  and  S1_69 
REMARK       I    between atoms: S2_23  and  O6_75 
REMARK       I    between atoms: C1_24  and  O4_78 
REMARK       I    between atoms: C4_25  and  O4_78 
REMARK       I    between atoms: O3_26  and  C3_81 
REMARK       I    between atoms: O1S_27  and  S1_60 
REMARK       I    between atoms: O3S_28  and  S1_69 
REMARK       I    between atoms: O3_29  and  C3_87 
REMARK       I    between atoms: C6_30  and  C5_80 
REMARK       I    between atoms: O2S_32  and  S1_60 
REMARK       I    between atoms: S1_33  and  N_73 
REMARK       I    between atoms: S1_33  and  O2S_94 
REMARK       I    between atoms: S1_33  and  O3S_35 
REMARK       I    between atoms: C6_34  and  C5_38 
REMARK       I    between atoms: C2_36  and  O2_93 
REMARK       I    between atoms: O3_37  and  C3_65 
REMARK       I    between atoms: C1_40  and  O1_105 
REMARK       I    between atoms: O2S_41  and  S1_69 
REMARK       I    between atoms: C5_42  and  C6_54 
REMARK       I    between atoms: O4_43  and  C4_92 
REMARK       I    between atoms: O1_44  and  C1_62 
REMARK       I    between atoms: O1_44  and  C4_83 
REMARK       I    between atoms: C1_45  and  O4_102 
REMARK       I    between atoms: C4_46  and  O1_105 
REMARK       I    between atoms: O3S_47  and  S1_60 
REMARK       I    between atoms: C5_53  and  C6_61 
REMARK       I    between atoms: C6_54  and  O6_98 
REMARK       I    between atoms: O3_56  and  C3_84 
REMARK       I    between atoms: C5_59  and  C6_63 
REMARK       I    between atoms: S1_60  and  N_86 
REMARK       I    between atoms: S1_69  and  O1S_91 
REMARK       I    between atoms: O1_70  and  C1_96 
REMARK       I    between atoms: S_82  and  O2_93 
REMARK       I    between atoms: N_86  and  C2_90 
REMARK       I    between atoms: S2_95  and  O6_98 
REMARK       I    between atoms: C4_100  and  O4_102 
ROOT
ATOM      1  S   IDS d 303      82.535  24.224  96.145  0.00  0.00     0.252 S 
ATOM      2  O2  IDS d 303      83.577  25.472  96.801  0.00  0.00    -0.244 OA
ATOM      3  O61 IDS d 303      88.217  27.775  99.214  0.00  0.00    -0.646 OA
ATOM      4  O3  IDS d 303      83.678  26.906 100.056  0.00  0.00    -0.390 OA
ATOM      5  O3S IDS d 303      81.282  24.317  96.853  0.00  0.00    -0.572 OA
ATOM      6  C1  IDS d 303      84.951  24.497  98.507  0.00  0.00     0.161 C 
ATOM      7  C4  IDS d 303      85.219  27.508  98.286  0.00  0.00     0.103 C 
ATOM      8  O2S IDS d 303      82.378  24.459  94.737  0.00  0.00    -0.572 OA
ATOM      9  C3  IDS d 303      83.874  26.862  98.691  0.00  0.00     0.094 C 
ATOM     10  C5  IDS d 303      86.338  26.506  98.558  0.00  0.00     0.152 C 
ATOM     11  C6  IDS d 303      87.697  27.102  98.321  0.00  0.00     0.206 C 
ATOM     12  O62 IDS d 303      88.302  26.698  97.309  0.00  0.00    -0.646 OA
ATOM     13  O5  IDS d 303      86.175  25.148  98.197  0.00  0.00    -0.340 OA
ATOM     14  C2  IDS d 303      83.756  25.416  98.179  0.00  0.00     0.134 C 
ATOM     15  O1S IDS d 303      83.173  22.969  96.374  0.00  0.00    -0.572 OA
ATOM     16  H   IDS d 303      83.756  27.822 100.365  0.00  0.00     0.210 HD
ATOM     17  H   IDS d 303      84.933  23.619  97.895  0.00  0.00     0.133 H 
ATOM     18  H   IDS d 303      85.338  28.419  98.834  0.00  0.00     0.092 H 
ATOM     19  H   IDS d 303      83.105  27.442  98.225  0.00  0.00     0.091 H 
ATOM     20  H   IDS d 303      86.240  26.341  99.611  0.00  0.00     0.104 H 
ATOM     21  H   IDS d 303      82.926  24.975  98.691  0.00  0.00     0.097 H 
ATOM     22  C3  SGN d 306      81.686  16.604 106.012  0.00  0.00     0.083 C 
ATOM     23  O1S SGN d 306      81.560  13.844 103.576  0.00  0.00    -0.296 OA
ATOM     24  O4S SGN d 306      76.958  22.163 105.916  0.00  0.00    -0.572 OA
ATOM     25  O5S SGN d 306      79.025  22.615 104.861  0.00  0.00    -0.572 OA
ATOM     26  C2  SGN d 306      80.400  15.926 105.564  0.00  0.00     0.081 C 
ATOM     27  O5  SGN d 306      79.143  17.881 106.253  0.00  0.00    -0.350 OA
ATOM     28  C6  SGN d 306      80.130  20.075 106.568  0.00  0.00     0.067 C 
ATOM     29  S2  SGN d 306      78.385  22.047 106.014  0.00  0.00     0.251 S 
ATOM     30  S1  SGN d 306      80.623  13.388 104.572  0.00  0.00     0.156 S 
ATOM     31  O3S SGN d 306      81.026  12.100 105.080  0.00  0.00    -0.296 OA
ATOM     32  O4  SGN d 306      82.754  18.760 106.234  0.00  0.00    -0.348 OA
ATOM     33  O3  SGN d 306      82.760  16.097 105.241  0.00  0.00    -0.391 OA
ATOM     34  O6S SGN d 306      78.868  22.694 107.208  0.00  0.00    -0.572 OA
ATOM     35  C5  SGN d 306      80.351  18.577 106.685  0.00  0.00     0.091 C 
ATOM     36  O1  SGN d 306      79.260  15.992 107.693  0.00  0.00    -0.369 OA
ATOM     37  N   SGN d 306      80.563  14.539 105.899  0.00  0.00    -0.210 NA
ATOM     38  O6  SGN d 306      78.832  20.351 106.089  0.00  0.00    -0.254 OA
ATOM     39  C4  SGN d 306      81.538  18.116 105.812  0.00  0.00     0.095 C 
ATOM     40  O2S SGN d 306      79.304  13.316 104.025  0.00  0.00    -0.296 OA
ATOM     41  C1  SGN d 306      79.178  16.439 106.344  0.00  0.00     0.147 C 
ATOM     42  H   SGN d 306      81.882  16.408 107.045  0.00  0.00     0.089 H 
ATOM     43  H   SGN d 306      81.280  14.710 103.241  0.00  0.00     0.231 HD
ATOM     44  H   SGN d 306      80.234  16.115 104.524  0.00  0.00     0.076 H 
ATOM     45  H   SGN d 306      80.849  20.484 105.890  0.00  0.00     0.080 H 
ATOM     46  H   SGN d 306      80.241  20.516 107.536  0.00  0.00     0.080 H 
ATOM     47  H   SGN d 306      81.921  12.163 105.447  0.00  0.00     0.231 HD
ATOM     48  H   SGN d 306      82.592  16.270 104.301  0.00  0.00     0.210 HD
ATOM     49  H   SGN d 306      80.573  18.348 107.707  0.00  0.00     0.090 H 
ATOM     50  H   SGN d 306      79.281  15.022 107.712  0.00  0.00     0.212 HD
ATOM     51  H   SGN d 306      79.781  14.275 106.498  0.00  0.00     0.140 HD
ATOM     52  H   SGN d 306      81.358  18.365 104.788  0.00  0.00     0.091 H 
ATOM     53  H   SGN d 306      79.047  14.189 103.687  0.00  0.00     0.231 HD
ATOM     54  H   SGN d 306      78.270  16.053 105.929  0.00  0.00     0.131 H 
ATOM     55  C2  UAP d 301      90.003  30.156  92.748  0.00  0.00     0.132 C 
ATOM     56  S   UAP d 301      91.440  32.347  92.652  0.00  0.00     0.252 S 
ATOM     57  O1S UAP d 301      92.408  32.748  91.707  0.00  0.00    -0.572 OA
ATOM     58  C1  UAP d 301      88.493  30.066  92.684  0.00  0.00     0.161 C 
ATOM     59  O61 UAP d 301      88.921  26.649  89.254  0.00  0.00    -0.646 OA
ATOM     60  C5  UAP d 301      88.788  28.333  90.968  0.00  0.00     0.127 C 
ATOM     61  O3  UAP d 301      91.033  28.238  93.657  0.00  0.00    -0.393 OA
ATOM     62  O2  UAP d 301      90.439  31.148  91.882  0.00  0.00    -0.244 OA
ATOM     63  O5  UAP d 301      88.040  29.408  91.506  0.00  0.00    -0.343 OA
ATOM     64  C6  UAP d 301      88.250  27.569  89.763  0.00  0.00     0.203 C 
ATOM     65  O62 UAP d 301      87.143  27.945  89.322  0.00  0.00    -0.646 OA
ATOM     66  O3S UAP d 301      90.564  33.425  92.993  0.00  0.00    -0.572 OA
ATOM     67  O2S UAP d 301      92.084  31.778  93.811  0.00  0.00    -0.572 OA
ATOM     68  C3  UAP d 301      90.828  28.895  92.446  0.00  0.00     0.069 C 
ATOM     69  C4  UAP d 301      90.192  27.921  91.414  0.00  0.00    -0.005 C 
ATOM     70  H   UAP d 301      90.179  30.353  93.784  0.00  0.00     0.097 H 
ATOM     71  H   UAP d 301      88.047  31.039  92.648  0.00  0.00     0.133 H 
ATOM     72  H   UAP d 301      88.472  28.422  91.986  0.00  0.00     0.100 H 
ATOM     73  H   UAP d 301      91.430  28.852  94.294  0.00  0.00     0.210 HD
ATOM     74  H   UAP d 301      91.741  29.212  91.985  0.00  0.00     0.087 H 
ATOM     75  H   UAP d 301      90.824  27.883  90.551  0.00  0.00     0.041 H 
ATOM     76  H   UAP d 301      90.102  26.970  91.896  0.00  0.00     0.041 H 
ATOM     77  O5  IDS d 305      83.446  19.629 104.089  0.00  0.00    -0.340 OA
ATOM     78  O62 IDS d 305      83.852  19.001 101.419  0.00  0.00    -0.646 OA
ATOM     79  C1  IDS d 305      83.257  19.875 105.484  0.00  0.00     0.161 C 
ATOM     80  O3  IDS d 305      86.525  19.137 106.199  0.00  0.00    -0.390 OA
ATOM     81  C6  IDS d 305      84.804  18.715 102.182  0.00  0.00     0.206 C 
ATOM     82  C2  IDS d 305      84.534  20.413 106.182  0.00  0.00     0.134 C 
ATOM     83  C5  IDS d 305      84.710  19.240 103.615  0.00  0.00     0.152 C 
ATOM     84  C3  IDS d 305      85.935  20.208 105.576  0.00  0.00     0.094 C 
ATOM     85  S   IDS d 305      83.917  23.089 106.031  0.00  0.00     0.252 S 
ATOM     86  C4  IDS d 305      85.947  20.014 104.047  0.00  0.00     0.103 C 
ATOM     87  O3S IDS d 305      83.762  24.107 107.004  0.00  0.00    -0.572 OA
ATOM     88  O1S IDS d 305      82.683  22.857 105.370  0.00  0.00    -0.572 OA
ATOM     89  O2  IDS d 305      84.388  21.625 106.910  0.00  0.00    -0.244 OA
ATOM     90  O61 IDS d 305      85.885  18.256 101.777  0.00  0.00    -0.646 OA
ATOM     91  O2S IDS d 305      84.931  23.423 105.098  0.00  0.00    -0.572 OA
ATOM     92  H   IDS d 305      82.498  20.629 105.489  0.00  0.00     0.133 H 
ATOM     93  H   IDS d 305      86.510  19.274 107.159  0.00  0.00     0.210 HD
ATOM     94  H   IDS d 305      84.568  19.614 106.893  0.00  0.00     0.097 H 
ATOM     95  H   IDS d 305      84.761  18.369 104.235  0.00  0.00     0.104 H 
ATOM     96  H   IDS d 305      86.486  21.110 105.744  0.00  0.00     0.091 H 
ATOM     97  H   IDS d 305      86.837  19.479 103.789  0.00  0.00     0.092 H 
ATOM     98  O6  SGN d 304      86.700  21.559  98.434  0.00  0.00    -0.254 OA
ATOM     99  S2  SGN d 304      86.795  21.078  96.756  0.00  0.00     0.251 S 
ATOM    100  O5S SGN d 304      87.984  21.666  96.198  0.00  0.00    -0.572 OA
ATOM    101  N   SGN d 304      87.272  23.552 103.910  0.00  0.00    -0.210 NA
ATOM    102  O3S SGN d 304      89.779  24.019 104.430  0.00  0.00    -0.296 OA
ATOM    103  C6  SGN d 304      85.505  21.255  99.149  0.00  0.00     0.067 C 
ATOM    104  O3  SGN d 304      86.390  25.263 101.877  0.00  0.00    -0.391 OA
ATOM    105  C5  SGN d 304      85.656  21.852 100.526  0.00  0.00     0.091 C 
ATOM    106  O2S SGN d 304      88.341  23.662 106.234  0.00  0.00    -0.296 OA
ATOM    107  O1  SGN d 304      85.925  21.283 103.381  0.00  0.00    -0.348 OA
ATOM    108  O4S SGN d 304      86.864  19.651  96.683  0.00  0.00    -0.572 OA
ATOM    109  C1  SGN d 304      87.028  21.599 102.527  0.00  0.00     0.150 C 
ATOM    110  C3  SGN d 304      86.110  23.876 101.879  0.00  0.00     0.083 C 
ATOM    111  C2  SGN d 304      87.276  23.127 102.532  0.00  0.00     0.081 C 
ATOM    112  S1  SGN d 304      88.682  23.246 104.916  0.00  0.00     0.156 S 
ATOM    113  O6S SGN d 304      85.622  21.577  96.074  0.00  0.00    -0.572 OA
ATOM    114  O1S SGN d 304      89.025  21.853 104.902  0.00  0.00    -0.296 OA
ATOM    115  O5  SGN d 304      86.773  21.185 101.172  0.00  0.00    -0.349 OA
ATOM    116  C4  SGN d 304      85.951  23.364 100.453  0.00  0.00     0.095 C 
ATOM    117  O4  SGN d 304      84.849  24.057  99.848  0.00  0.00    -0.348 OA
ATOM    118  H   SGN d 304      86.482  23.091 104.361  0.00  0.00     0.140 HD
ATOM    119  H   SGN d 304      89.542  24.960 104.442  0.00  0.00     0.231 HD
ATOM    120  H   SGN d 304      85.379  20.194  99.220  0.00  0.00     0.080 H 
ATOM    121  H   SGN d 304      84.647  21.654  98.650  0.00  0.00     0.080 H 
ATOM    122  H   SGN d 304      86.489  25.574 102.791  0.00  0.00     0.210 HD
ATOM    123  H   SGN d 304      84.745  21.719 101.072  0.00  0.00     0.090 H 
ATOM    124  H   SGN d 304      88.112  24.605 106.226  0.00  0.00     0.231 HD
ATOM    125  H   SGN d 304      87.886  21.078 102.897  0.00  0.00     0.131 H 
ATOM    126  H   SGN d 304      85.203  23.712 102.422  0.00  0.00     0.089 H 
ATOM    127  H   SGN d 304      88.189  23.327 102.013  0.00  0.00     0.076 H 
ATOM    128  H   SGN d 304      89.255  21.586 103.998  0.00  0.00     0.231 HD
ATOM    129  H   SGN d 304      86.834  23.532  99.871  0.00  0.00     0.091 H 
ATOM    130  O5S SGN d 302      88.122  34.116  98.247  0.00  0.00    -0.572 OA
ATOM    131  C4  SGN d 302      86.902  29.644  94.438  0.00  0.00     0.095 C 
ATOM    132  O1S SGN d 302      82.233  27.466  92.576  0.00  0.00    -0.296 OA
ATOM    133  O3  SGN d 302      85.728  28.367  92.786  0.00  0.00    -0.391 OA
ATOM    134  O2S SGN d 302      81.951  29.400  93.903  0.00  0.00    -0.296 OA
ATOM    135  C1  SGN d 302      84.842  29.022  96.376  0.00  0.00     0.150 C 
ATOM    136  C5  SGN d 302      87.127  29.783  95.937  0.00  0.00     0.091 C 
ATOM    137  O3S SGN d 302      81.158  27.337  94.686  0.00  0.00    -0.296 OA
ATOM    138  O5  SGN d 302      85.854  30.043  96.586  0.00  0.00    -0.349 OA
ATOM    139  C6  SGN d 302      88.114  30.913  96.199  0.00  0.00     0.067 C 
ATOM    140  S1  SGN d 302      82.189  27.990  93.918  0.00  0.00     0.156 S 
ATOM    141  O4S SGN d 302      88.512  32.068  99.359  0.00  0.00    -0.572 OA
ATOM    142  O6S SGN d 302      89.917  32.759  97.581  0.00  0.00    -0.572 OA
ATOM    143  O4  SGN d 302      88.127  29.355  93.832  0.00  0.00    -0.348 OA
ATOM    144  N   SGN d 302      83.759  27.728  94.689  0.00  0.00    -0.210 NA
ATOM    145  C3  SGN d 302      85.939  28.502  94.180  0.00  0.00     0.083 C 
ATOM    146  C2  SGN d 302      84.632  28.863  94.868  0.00  0.00     0.081 C 
ATOM    147  S2  SGN d 302      88.572  32.759  98.101  0.00  0.00     0.251 S 
ATOM    148  O6  SGN d 302      87.522  31.950  96.949  0.00  0.00    -0.254 OA
ATOM    149  O1  SGN d 302      85.246  27.747  96.874  0.00  0.00    -0.348 OA
ATOM    150  H   SGN d 302      86.495  30.550  94.040  0.00  0.00     0.091 H 
ATOM    151  H   SGN d 302      81.375  27.605  92.145  0.00  0.00     0.231 HD
ATOM    152  H   SGN d 302      86.565  28.137  92.353  0.00  0.00     0.210 HD
ATOM    153  H   SGN d 302      81.095  29.580  93.485  0.00  0.00     0.231 HD
ATOM    154  H   SGN d 302      83.957  29.332  96.892  0.00  0.00     0.131 H 
ATOM    155  H   SGN d 302      87.538  28.880  96.335  0.00  0.00     0.090 H 
ATOM    156  H   SGN d 302      80.298  27.482  94.262  0.00  0.00     0.231 HD
ATOM    157  H   SGN d 302      88.447  31.308  95.262  0.00  0.00     0.080 H 
ATOM    158  H   SGN d 302      88.935  30.518  96.759  0.00  0.00     0.080 H 
ATOM    159  H   SGN d 302      84.264  27.046  94.122  0.00  0.00     0.140 HD
ATOM    160  H   SGN d 302      86.324  27.577  94.555  0.00  0.00     0.089 H 
ATOM    161  H   SGN d 302      84.243  29.775  94.462  0.00  0.00     0.076 H 
ENDROOT
TORSDOF 50
ENDMDL
MODEL 80
REMARK VINA RESULT:      -9.0      6.930     12.771
REMARK  0 active torsions:
REMARK  status: ('A' for Active; 'I' for Inactive)
REMARK       I    between atoms: S_1  and  O2_2 
REMARK       I    between atoms: O2_2  and  C2_99 
REMARK       I    between atoms: C3_3  and  O3_50 
REMARK       I    between atoms: C2_5  and  O2_57 
REMARK       I    between atoms: O1S_6  and  S1_33 
REMARK       I    between atoms: O3_7  and  C3_52 
REMARK       I    between atoms: O6_9  and  C6_34 
REMARK       I    between atoms: O6_9  and  S2_17 
REMARK       I    between atoms: C2_13  and  N_73 
REMARK       I    between atoms: S_16  and  O2_57 
REMARK       I    between atoms: C1_20  and  O4_43 
REMARK       I    between atoms: C6_21  and  C5_67 
REMARK       I    between atoms: C6_21  and  O6_75 
REMARK       I    between atoms: N_22  and  C2_66 
REMARK       I    between atoms: N_22  and  S1_69 
REMARK       I    between atoms: S2_23  and  O6_75 
REMARK       I    between atoms: C1_24  and  O4_78 
REMARK       I    between atoms: C4_25  and  O4_78 
REMARK       I    between atoms: O3_26  and  C3_81 
REMARK       I    between atoms: O1S_27  and  S1_60 
REMARK       I    between atoms: O3S_28  and  S1_69 
REMARK       I    between atoms: O3_29  and  C3_87 
REMARK       I    between atoms: C6_30  and  C5_80 
REMARK       I    between atoms: O2S_32  and  S1_60 
REMARK       I    between atoms: S1_33  and  N_73 
REMARK       I    between atoms: S1_33  and  O2S_94 
REMARK       I    between atoms: S1_33  and  O3S_35 
REMARK       I    between atoms: C6_34  and  C5_38 
REMARK       I    between atoms: C2_36  and  O2_93 
REMARK       I    between atoms: O3_37  and  C3_65 
REMARK       I    between atoms: C1_40  and  O1_105 
REMARK       I    between atoms: O2S_41  and  S1_69 
REMARK       I    between atoms: C5_42  and  C6_54 
REMARK       I    between atoms: O4_43  and  C4_92 
REMARK       I    between atoms: O1_44  and  C1_62 
REMARK       I    between atoms: O1_44  and  C4_83 
REMARK       I    between atoms: C1_45  and  O4_102 
REMARK       I    between atoms: C4_46  and  O1_105 
REMARK       I    between atoms: O3S_47  and  S1_60 
REMARK       I    between atoms: C5_53  and  C6_61 
REMARK       I    between atoms: C6_54  and  O6_98 
REMARK       I    between atoms: O3_56  and  C3_84 
REMARK       I    between atoms: C5_59  and  C6_63 
REMARK       I    between atoms: S1_60  and  N_86 
REMARK       I    between atoms: S1_69  and  O1S_91 
REMARK       I    between atoms: O1_70  and  C1_96 
REMARK       I    between atoms: S_82  and  O2_93 
REMARK       I    between atoms: N_86  and  C2_90 
REMARK       I    between atoms: S2_95  and  O6_98 
REMARK       I    between atoms: C4_100  and  O4_102 
ROOT
ATOM      1  S   IDS d 303      75.851  20.617 100.473  0.00  0.00     0.252 S 
ATOM      2  O2  IDS d 303      75.724  22.353 100.267  0.00  0.00    -0.244 OA
ATOM      3  O61 IDS d 303      76.903  27.542  98.184  0.00  0.00    -0.646 OA
ATOM      4  O3  IDS d 303      77.206  25.002 102.123  0.00  0.00    -0.390 OA
ATOM      5  O3S IDS d 303      76.068  20.381 101.880  0.00  0.00    -0.572 OA
ATOM      6  C1  IDS d 303      77.879  23.203  99.646  0.00  0.00     0.161 C 
ATOM      7  C4  IDS d 303      75.813  25.357 100.174  0.00  0.00     0.103 C 
ATOM      8  O2S IDS d 303      74.633  20.015 100.008  0.00  0.00    -0.572 OA
ATOM      9  C3  IDS d 303      76.269  24.407 101.304  0.00  0.00     0.094 C 
ATOM     10  C5  IDS d 303      76.881  25.360  99.083  0.00  0.00     0.152 C 
ATOM     11  C6  IDS d 303      76.583  26.364  98.005  0.00  0.00     0.206 C 
ATOM     12  O62 IDS d 303      76.218  25.898  96.909  0.00  0.00    -0.646 OA
ATOM     13  O5  IDS d 303      77.465  24.141  98.663  0.00  0.00    -0.340 OA
ATOM     14  C2  IDS d 303      76.809  23.077 100.751  0.00  0.00     0.134 C 
ATOM     15  O1S IDS d 303      76.958  20.171  99.693  0.00  0.00    -0.572 OA
ATOM     16  H   IDS d 303      76.854  25.839 102.464  0.00  0.00     0.210 HD
ATOM     17  H   IDS d 303      77.996  22.276  99.124  0.00  0.00     0.133 H 
ATOM     18  H   IDS d 303      75.647  26.329 100.591  0.00  0.00     0.092 H 
ATOM     19  H   IDS d 303      75.401  24.192 101.892  0.00  0.00     0.091 H 
ATOM     20  H   IDS d 303      77.742  25.706  99.614  0.00  0.00     0.104 H 
ATOM     21  H   IDS d 303      77.311  22.588 101.560  0.00  0.00     0.097 H 
ATOM     22  C3  SGN d 306      87.890  19.612 103.667  0.00  0.00     0.083 C 
ATOM     23  O1S SGN d 306      87.866  16.413 101.841  0.00  0.00    -0.296 OA
ATOM     24  O4S SGN d 306      83.292  21.052 109.149  0.00  0.00    -0.572 OA
ATOM     25  O5S SGN d 306      82.624  21.921 107.054  0.00  0.00    -0.572 OA
ATOM     26  C2  SGN d 306      87.751  18.253 104.337  0.00  0.00     0.081 C 
ATOM     27  O5  SGN d 306      86.744  19.321 106.267  0.00  0.00    -0.350 OA
ATOM     28  C6  SGN d 306      85.743  21.530 106.214  0.00  0.00     0.067 C 
ATOM     29  S2  SGN d 306      83.716  21.753 107.970  0.00  0.00     0.251 S 
ATOM     30  S1  SGN d 306      88.713  16.094 102.962  0.00  0.00     0.156 S 
ATOM     31  O3S SGN d 306      90.001  15.641 102.500  0.00  0.00    -0.296 OA
ATOM     32  O4  SGN d 306      86.860  21.791 103.492  0.00  0.00    -0.348 OA
ATOM     33  O3  SGN d 306      87.860  19.431 102.263  0.00  0.00    -0.391 OA
ATOM     34  O6S SGN d 306      84.268  23.040 108.313  0.00  0.00    -0.572 OA
ATOM     35  C5  SGN d 306      86.845  20.644 105.660  0.00  0.00     0.091 C 
ATOM     36  O1  SGN d 306      89.053  18.750 106.311  0.00  0.00    -0.369 OA
ATOM     37  N   SGN d 306      88.930  17.522 103.965  0.00  0.00    -0.210 NA
ATOM     38  O6  SGN d 306      84.960  20.823 107.151  0.00  0.00    -0.254 OA
ATOM     39  C4  SGN d 306      86.732  20.504 104.126  0.00  0.00     0.095 C 
ATOM     40  O2S SGN d 306      88.102  15.098 103.786  0.00  0.00    -0.296 OA
ATOM     41  C1  SGN d 306      87.755  18.366 105.870  0.00  0.00     0.147 C 
ATOM     42  H   SGN d 306      88.815  20.078 103.934  0.00  0.00     0.089 H 
ATOM     43  H   SGN d 306      87.003  16.716 102.163  0.00  0.00     0.231 HD
ATOM     44  H   SGN d 306      86.831  17.794 104.039  0.00  0.00     0.076 H 
ATOM     45  H   SGN d 306      85.118  21.858 105.410  0.00  0.00     0.080 H 
ATOM     46  H   SGN d 306      86.190  22.370 106.703  0.00  0.00     0.080 H 
ATOM     47  H   SGN d 306      90.404  16.325 101.943  0.00  0.00     0.231 HD
ATOM     48  H   SGN d 306      87.024  19.009 102.009  0.00  0.00     0.210 HD
ATOM     49  H   SGN d 306      87.788  21.094 105.890  0.00  0.00     0.090 H 
ATOM     50  H   SGN d 306      89.701  18.086 106.027  0.00  0.00     0.212 HD
ATOM     51  H   SGN d 306      89.390  17.225 104.825  0.00  0.00     0.140 HD
ATOM     52  H   SGN d 306      85.782  20.089 103.864  0.00  0.00     0.091 H 
ATOM     53  H   SGN d 306      87.237  15.416 104.089  0.00  0.00     0.231 HD
ATOM     54  H   SGN d 306      87.524  17.424 106.323  0.00  0.00     0.131 H 
ATOM     55  C2  UAP d 301      70.949  26.990  94.321  0.00  0.00     0.132 C 
ATOM     56  S   UAP d 301      69.734  29.229  93.699  0.00  0.00     0.252 S 
ATOM     57  O1S UAP d 301      68.967  29.549  92.559  0.00  0.00    -0.572 OA
ATOM     58  C1  UAP d 301      70.668  26.118  95.527  0.00  0.00     0.161 C 
ATOM     59  O61 UAP d 301      70.448  22.257  92.583  0.00  0.00    -0.646 OA
ATOM     60  C5  UAP d 301      70.589  24.211  93.980  0.00  0.00     0.127 C 
ATOM     61  O3  UAP d 301      73.063  26.610  93.345  0.00  0.00    -0.393 OA
ATOM     62  O2  UAP d 301      69.753  27.493  93.831  0.00  0.00    -0.244 OA
ATOM     63  O5  UAP d 301      70.141  24.847  95.164  0.00  0.00    -0.343 OA
ATOM     64  C6  UAP d 301      70.094  22.809  93.644  0.00  0.00     0.203 C 
ATOM     65  O62 UAP d 301      69.311  22.289  94.468  0.00  0.00    -0.646 OA
ATOM     66  O3S UAP d 301      69.115  29.705  94.897  0.00  0.00    -0.572 OA
ATOM     67  O2S UAP d 301      71.081  29.723  93.545  0.00  0.00    -0.572 OA
ATOM     68  C3  UAP d 301      71.706  26.378  93.132  0.00  0.00     0.069 C 
ATOM     69  C4  UAP d 301      71.457  24.861  92.901  0.00  0.00    -0.005 C 
ATOM     70  H   UAP d 301      71.617  27.724  94.719  0.00  0.00     0.097 H 
ATOM     71  H   UAP d 301      69.923  26.557  96.159  0.00  0.00     0.133 H 
ATOM     72  H   UAP d 301      71.218  24.607  94.748  0.00  0.00     0.100 H 
ATOM     73  H   UAP d 301      73.210  27.558  93.488  0.00  0.00     0.210 HD
ATOM     74  H   UAP d 301      71.338  26.847  92.243  0.00  0.00     0.087 H 
ATOM     75  H   UAP d 301      70.969  24.739  91.955  0.00  0.00     0.041 H 
ATOM     76  H   UAP d 301      72.411  24.378  92.933  0.00  0.00     0.041 H 
ATOM     77  O5  IDS d 305      84.853  21.715 102.150  0.00  0.00    -0.340 OA
ATOM     78  O62 IDS d 305      83.376  20.180 100.375  0.00  0.00    -0.646 OA
ATOM     79  C1  IDS d 305      85.682  22.470 103.036  0.00  0.00     0.161 C 
ATOM     80  O3  IDS d 305      87.320  23.981 100.433  0.00  0.00    -0.390 OA
ATOM     81  C6  IDS d 305      84.307  20.839  99.858  0.00  0.00     0.206 C 
ATOM     82  C2  IDS d 305      86.093  23.848 102.451  0.00  0.00     0.134 C 
ATOM     83  C5  IDS d 305      85.002  21.860 100.760  0.00  0.00     0.152 C 
ATOM     84  C3  IDS d 305      86.053  24.129 100.936  0.00  0.00     0.094 C 
ATOM     85  S   IDS d 305      84.125  25.344 103.655  0.00  0.00     0.252 S 
ATOM     86  C4  IDS d 305      85.057  23.253 100.151  0.00  0.00     0.103 C 
ATOM     87  O3S IDS d 305      84.149  26.456 104.532  0.00  0.00    -0.572 OA
ATOM     88  O1S IDS d 305      83.550  24.223 104.308  0.00  0.00    -0.572 OA
ATOM     89  O2  IDS d 305      85.813  24.982 103.260  0.00  0.00    -0.244 OA
ATOM     90  O61 IDS d 305      84.517  20.875  98.634  0.00  0.00    -0.646 OA
ATOM     91  O2S IDS d 305      83.418  25.647 102.464  0.00  0.00    -0.572 OA
ATOM     92  H   IDS d 305      85.049  22.615 103.886  0.00  0.00     0.133 H 
ATOM     93  H   IDS d 305      87.935  24.537 100.937  0.00  0.00     0.210 HD
ATOM     94  H   IDS d 305      87.142  23.648 102.530  0.00  0.00     0.097 H 
ATOM     95  H   IDS d 305      86.034  21.574 100.763  0.00  0.00     0.104 H 
ATOM     96  H   IDS d 305      85.697  25.130 100.812  0.00  0.00     0.091 H 
ATOM     97  H   IDS d 305      85.387  23.208  99.135  0.00  0.00     0.092 H 
ATOM     98  O6  SGN d 304      80.072  21.996  97.317  0.00  0.00    -0.254 OA
ATOM     99  S2  SGN d 304      79.169  20.888  96.311  0.00  0.00     0.251 S 
ATOM    100  O5S SGN d 304      78.608  21.643  95.221  0.00  0.00    -0.572 OA
ATOM    101  N   SGN d 304      82.916  26.365  99.985  0.00  0.00    -0.210 NA
ATOM    102  O3S SGN d 304      83.480  28.238  98.269  0.00  0.00    -0.296 OA
ATOM    103  C6  SGN d 304      80.564  21.515  98.565  0.00  0.00     0.067 C 
ATOM    104  O3  SGN d 304      80.139  26.127 100.250  0.00  0.00    -0.391 OA
ATOM    105  C5  SGN d 304      81.218  22.684  99.258  0.00  0.00     0.091 C 
ATOM    106  O2S SGN d 304      84.760  28.124 100.219  0.00  0.00    -0.296 OA
ATOM    107  O1  SGN d 304      83.739  23.812 100.216  0.00  0.00    -0.348 OA
ATOM    108  O4S SGN d 304      80.056  19.881  95.813  0.00  0.00    -0.572 OA
ATOM    109  C1  SGN d 304      83.119  24.187  98.983  0.00  0.00     0.150 C 
ATOM    110  C3  SGN d 304      80.986  25.005 100.091  0.00  0.00     0.083 C 
ATOM    111  C2  SGN d 304      82.179  25.395  99.212  0.00  0.00     0.081 C 
ATOM    112  S1  SGN d 304      84.127  27.365  99.195  0.00  0.00     0.156 S 
ATOM    113  O6S SGN d 304      78.116  20.304  97.110  0.00  0.00    -0.572 OA
ATOM    114  O1S SGN d 304      85.088  26.552  98.506  0.00  0.00    -0.296 OA
ATOM    115  O5  SGN d 304      82.342  23.104  98.440  0.00  0.00    -0.349 OA
ATOM    116  C4  SGN d 304      80.239  23.867  99.407  0.00  0.00     0.095 C 
ATOM    117  O4  SGN d 304      79.131  23.494 100.239  0.00  0.00    -0.348 OA
ATOM    118  H   SGN d 304      83.393  25.852 100.727  0.00  0.00     0.140 HD
ATOM    119  H   SGN d 304      82.832  28.785  98.740  0.00  0.00     0.231 HD
ATOM    120  H   SGN d 304      81.280  20.736  98.403  0.00  0.00     0.080 H 
ATOM    121  H   SGN d 304      79.771  21.111  99.160  0.00  0.00     0.080 H 
ATOM    122  H   SGN d 304      80.628  26.842 100.687  0.00  0.00     0.210 HD
ATOM    123  H   SGN d 304      81.529  22.388 100.238  0.00  0.00     0.090 H 
ATOM    124  H   SGN d 304      84.097  28.668 100.674  0.00  0.00     0.231 HD
ATOM    125  H   SGN d 304      83.896  24.442  98.293  0.00  0.00     0.131 H 
ATOM    126  H   SGN d 304      81.316  24.687 101.058  0.00  0.00     0.089 H 
ATOM    127  H   SGN d 304      81.845  25.754  98.262  0.00  0.00     0.076 H 
ATOM    128  H   SGN d 304      84.642  26.041  97.812  0.00  0.00     0.231 HD
ATOM    129  H   SGN d 304      79.874  24.157  98.443  0.00  0.00     0.091 H 
ATOM    130  O5S SGN d 302      72.055  31.494  99.608  0.00  0.00    -0.572 OA
ATOM    131  C4  SGN d 302      71.923  25.856  97.562  0.00  0.00     0.095 C 
ATOM    132  O1S SGN d 302      71.063  21.008  99.965  0.00  0.00    -0.296 OA
ATOM    133  O3  SGN d 302      71.310  23.546  97.402  0.00  0.00    -0.391 OA
ATOM    134  O2S SGN d 302      70.728  22.875 101.375  0.00  0.00    -0.296 OA
ATOM    135  C1  SGN d 302      73.351  25.301 100.019  0.00  0.00     0.150 C 
ATOM    136  C5  SGN d 302      72.978  26.800  98.120  0.00  0.00     0.091 C 
ATOM    137  O3S SGN d 302      72.489  21.392 101.820  0.00  0.00    -0.296 OA
ATOM    138  O5  SGN d 302      73.040  26.644  99.562  0.00  0.00    -0.349 OA
ATOM    139  C6  SGN d 302      72.628  28.233  97.740  0.00  0.00     0.067 C 
ATOM    140  S1  SGN d 302      71.701  22.009 100.783  0.00  0.00     0.156 S 
ATOM    141  O4S SGN d 302      74.279  30.793  99.224  0.00  0.00    -0.572 OA
ATOM    142  O6S SGN d 302      72.796  31.137  97.410  0.00  0.00    -0.572 OA
ATOM    143  O4  SGN d 302      71.903  25.987  96.171  0.00  0.00    -0.348 OA
ATOM    144  N   SGN d 302      72.742  23.008  99.760  0.00  0.00    -0.210 NA
ATOM    145  C3  SGN d 302      72.288  24.429  97.921  0.00  0.00     0.083 C 
ATOM    146  C2  SGN d 302      72.305  24.346  99.439  0.00  0.00     0.081 C 
ATOM    147  S2  SGN d 302      72.917  30.698  98.778  0.00  0.00     0.251 S 
ATOM    148  O6  SGN d 302      72.392  29.025  98.882  0.00  0.00    -0.254 OA
ATOM    149  O1  SGN d 302      74.624  24.852  99.554  0.00  0.00    -0.348 OA
ATOM    150  H   SGN d 302      70.963  26.092  97.972  0.00  0.00     0.091 H 
ATOM    151  H   SGN d 302      70.489  20.456 100.518  0.00  0.00     0.231 HD
ATOM    152  H   SGN d 302      71.304  23.603  96.433  0.00  0.00     0.210 HD
ATOM    153  H   SGN d 302      70.137  22.357 101.945  0.00  0.00     0.231 HD
ATOM    154  H   SGN d 302      73.358  25.315 101.089  0.00  0.00     0.131 H 
ATOM    155  H   SGN d 302      73.937  26.569  97.708  0.00  0.00     0.090 H 
ATOM    156  H   SGN d 302      71.917  20.845 102.380  0.00  0.00     0.231 HD
ATOM    157  H   SGN d 302      71.748  28.227  97.133  0.00  0.00     0.080 H 
ATOM    158  H   SGN d 302      73.456  28.650  97.206  0.00  0.00     0.080 H 
ATOM    159  H   SGN d 302      72.866  22.511  98.878  0.00  0.00     0.140 HD
ATOM    160  H   SGN d 302      73.239  24.158  97.513  0.00  0.00     0.089 H 
ATOM    161  H   SGN d 302      71.340  24.591  99.831  0.00  0.00     0.076 H 
ENDROOT
TORSDOF 50
ENDMDL
MODEL 81
REMARK VINA RESULT:      -8.9      3.673      6.977
REMARK  0 active torsions:
REMARK  status: ('A' for Active; 'I' for Inactive)
REMARK       I    between atoms: S_1  and  O2_2 
REMARK       I    between atoms: O2_2  and  C2_99 
REMARK       I    between atoms: C3_3  and  O3_50 
REMARK       I    between atoms: C2_5  and  O2_57 
REMARK       I    between atoms: O1S_6  and  S1_33 
REMARK       I    between atoms: O3_7  and  C3_52 
REMARK       I    between atoms: O6_9  and  C6_34 
REMARK       I    between atoms: O6_9  and  S2_17 
REMARK       I    between atoms: C2_13  and  N_73 
REMARK       I    between atoms: S_16  and  O2_57 
REMARK       I    between atoms: C1_20  and  O4_43 
REMARK       I    between atoms: C6_21  and  C5_67 
REMARK       I    between atoms: C6_21  and  O6_75 
REMARK       I    between atoms: N_22  and  C2_66 
REMARK       I    between atoms: N_22  and  S1_69 
REMARK       I    between atoms: S2_23  and  O6_75 
REMARK       I    between atoms: C1_24  and  O4_78 
REMARK       I    between atoms: C4_25  and  O4_78 
REMARK       I    between atoms: O3_26  and  C3_81 
REMARK       I    between atoms: O1S_27  and  S1_60 
REMARK       I    between atoms: O3S_28  and  S1_69 
REMARK       I    between atoms: O3_29  and  C3_87 
REMARK       I    between atoms: C6_30  and  C5_80 
REMARK       I    between atoms: O2S_32  and  S1_60 
REMARK       I    between atoms: S1_33  and  N_73 
REMARK       I    between atoms: S1_33  and  O2S_94 
REMARK       I    between atoms: S1_33  and  O3S_35 
REMARK       I    between atoms: C6_34  and  C5_38 
REMARK       I    between atoms: C2_36  and  O2_93 
REMARK       I    between atoms: O3_37  and  C3_65 
REMARK       I    between atoms: C1_40  and  O1_105 
REMARK       I    between atoms: O2S_41  and  S1_69 
REMARK       I    between atoms: C5_42  and  C6_54 
REMARK       I    between atoms: O4_43  and  C4_92 
REMARK       I    between atoms: O1_44  and  C1_62 
REMARK       I    between atoms: O1_44  and  C4_83 
REMARK       I    between atoms: C1_45  and  O4_102 
REMARK       I    between atoms: C4_46  and  O1_105 
REMARK       I    between atoms: O3S_47  and  S1_60 
REMARK       I    between atoms: C5_53  and  C6_61 
REMARK       I    between atoms: C6_54  and  O6_98 
REMARK       I    between atoms: O3_56  and  C3_84 
REMARK       I    between atoms: C5_59  and  C6_63 
REMARK       I    between atoms: S1_60  and  N_86 
REMARK       I    between atoms: S1_69  and  O1S_91 
REMARK       I    between atoms: O1_70  and  C1_96 
REMARK       I    between atoms: S_82  and  O2_93 
REMARK       I    between atoms: N_86  and  C2_90 
REMARK       I    between atoms: S2_95  and  O6_98 
REMARK       I    between atoms: C4_100  and  O4_102 
ROOT
ATOM      1  S   IDS d 303      85.497  20.619 106.529  0.00  0.00     0.252 S 
ATOM      2  O2  IDS d 303      83.969  20.391 105.700  0.00  0.00    -0.244 OA
ATOM      3  O61 IDS d 303      80.384  19.560 101.329  0.00  0.00    -0.646 OA
ATOM      4  O3  IDS d 303      81.620  22.785 104.512  0.00  0.00    -0.390 OA
ATOM      5  O3S IDS d 303      85.381  21.843 107.282  0.00  0.00    -0.572 OA
ATOM      6  C1  IDS d 303      84.169  21.280 103.482  0.00  0.00     0.161 C 
ATOM      7  C4  IDS d 303      81.361  20.396 104.204  0.00  0.00     0.103 C 
ATOM      8  O2S IDS d 303      85.726  19.483 107.379  0.00  0.00    -0.572 OA
ATOM      9  C3  IDS d 303      82.045  21.553 104.966  0.00  0.00     0.094 C 
ATOM     10  C5  IDS d 303      82.055  20.227 102.855  0.00  0.00     0.152 C 
ATOM     11  C6  IDS d 303      81.365  19.212 101.989  0.00  0.00     0.206 C 
ATOM     12  O62 IDS d 303      81.962  18.129 101.835  0.00  0.00    -0.646 OA
ATOM     13  O5  IDS d 303      83.468  20.263 102.779  0.00  0.00    -0.340 OA
ATOM     14  C2  IDS d 303      83.579  21.458 104.897  0.00  0.00     0.134 C 
ATOM     15  O1S IDS d 303      86.516  20.712 105.535  0.00  0.00    -0.572 OA
ATOM     16  H   IDS d 303      80.652  22.832 104.561  0.00  0.00     0.210 HD
ATOM     17  H   IDS d 303      85.183  20.942 103.533  0.00  0.00     0.133 H 
ATOM     18  H   IDS d 303      80.319  20.622 104.106  0.00  0.00     0.092 H 
ATOM     19  H   IDS d 303      81.754  21.457 105.992  0.00  0.00     0.091 H 
ATOM     20  H   IDS d 303      81.907  21.186 102.405  0.00  0.00     0.104 H 
ATOM     21  H   IDS d 303      83.962  22.398 105.234  0.00  0.00     0.097 H 
ATOM     22  C3  SGN d 306      89.814  30.701 100.542  0.00  0.00     0.083 C 
ATOM     23  O1S SGN d 306      93.167  29.250 101.000  0.00  0.00    -0.296 OA
ATOM     24  O4S SGN d 306      85.308  32.048 106.124  0.00  0.00    -0.572 OA
ATOM     25  O5S SGN d 306      84.895  30.009 105.000  0.00  0.00    -0.572 OA
ATOM     26  C2  SGN d 306      90.777  31.124 101.641  0.00  0.00     0.081 C 
ATOM     27  O5  SGN d 306      88.914  31.988 102.928  0.00  0.00    -0.350 OA
ATOM     28  C6  SGN d 306      86.607  31.329 102.568  0.00  0.00     0.067 C 
ATOM     29  S2  SGN d 306      85.176  31.409 104.845  0.00  0.00     0.251 S 
ATOM     30  S1  SGN d 306      93.435  30.652 101.199  0.00  0.00     0.156 S 
ATOM     31  O3S SGN d 306      94.434  31.106 100.264  0.00  0.00    -0.296 OA
ATOM     32  O4  SGN d 306      87.558  29.930 100.146  0.00  0.00    -0.348 OA
ATOM     33  O3  SGN d 306      90.365  29.594  99.853  0.00  0.00    -0.391 OA
ATOM     34  O6S SGN d 306      84.134  32.032 104.068  0.00  0.00    -0.572 OA
ATOM     35  C5  SGN d 306      87.949  31.591 101.908  0.00  0.00     0.091 C 
ATOM     36  O1  SGN d 306      90.240  33.479 101.634  0.00  0.00    -0.369 OA
ATOM     37  N   SGN d 306      91.958  31.576 100.959  0.00  0.00    -0.210 NA
ATOM     38  O6  SGN d 306      86.684  31.554 103.959  0.00  0.00    -0.254 OA
ATOM     39  C4  SGN d 306      88.472  30.331 101.183  0.00  0.00     0.095 C 
ATOM     40  O2S SGN d 306      93.863  30.896 102.542  0.00  0.00    -0.296 OA
ATOM     41  C1  SGN d 306      90.240  32.314 102.451  0.00  0.00     0.147 C 
ATOM     42  H   SGN d 306      89.656  31.497  99.844  0.00  0.00     0.089 H 
ATOM     43  H   SGN d 306      92.495  28.955 101.634  0.00  0.00     0.231 HD
ATOM     44  H   SGN d 306      90.939  30.307 102.314  0.00  0.00     0.076 H 
ATOM     45  H   SGN d 306      86.321  30.314 102.392  0.00  0.00     0.080 H 
ATOM     46  H   SGN d 306      85.883  31.996 102.151  0.00  0.00     0.080 H 
ATOM     47  H   SGN d 306      94.131  30.935  99.359  0.00  0.00     0.231 HD
ATOM     48  H   SGN d 306      90.511  28.866 100.477  0.00  0.00     0.210 HD
ATOM     49  H   SGN d 306      87.824  32.369 101.184  0.00  0.00     0.090 H 
ATOM     50  H   SGN d 306      91.144  33.664 101.335  0.00  0.00     0.212 HD
ATOM     51  H   SGN d 306      92.141  32.531 101.266  0.00  0.00     0.140 HD
ATOM     52  H   SGN d 306      88.574  29.525 101.878  0.00  0.00     0.091 H 
ATOM     53  H   SGN d 306      93.182  30.586 103.159  0.00  0.00     0.231 HD
ATOM     54  H   SGN d 306      90.863  32.512 103.299  0.00  0.00     0.131 H 
ATOM     55  C2  UAP d 301      79.835  12.798 103.484  0.00  0.00     0.132 C 
ATOM     56  S   UAP d 301      77.587  11.564 102.935  0.00  0.00     0.252 S 
ATOM     57  O1S UAP d 301      77.353  10.198 102.670  0.00  0.00    -0.572 OA
ATOM     58  C1  UAP d 301      80.161  13.548 104.759  0.00  0.00     0.161 C 
ATOM     59  O61 UAP d 301      84.353  11.102 105.025  0.00  0.00    -0.646 OA
ATOM     60  C5  UAP d 301      82.269  12.286 104.818  0.00  0.00     0.127 C 
ATOM     61  O3  UAP d 301      81.213  13.377 101.660  0.00  0.00    -0.393 OA
ATOM     62  O2  UAP d 301      79.097  11.666 103.796  0.00  0.00    -0.244 OA
ATOM     63  O5  UAP d 301      81.204  12.924 105.500  0.00  0.00    -0.343 OA
ATOM     64  C6  UAP d 301      83.432  11.704 105.613  0.00  0.00     0.203 C 
ATOM     65  O62 UAP d 301      83.375  11.842 106.854  0.00  0.00    -0.646 OA
ATOM     66  O3S UAP d 301      76.598  12.103 103.816  0.00  0.00    -0.572 OA
ATOM     67  O2S UAP d 301      77.678  12.300 101.698  0.00  0.00    -0.572 OA
ATOM     68  C3  UAP d 301      80.991  12.352 102.576  0.00  0.00     0.069 C 
ATOM     69  C4  UAP d 301      82.314  12.004 103.315  0.00  0.00    -0.005 C 
ATOM     70  H   UAP d 301      79.309  13.534 102.913  0.00  0.00     0.097 H 
ATOM     71  H   UAP d 301      79.323  13.569 105.424  0.00  0.00     0.133 H 
ATOM     72  H   UAP d 301      81.924  13.282 104.637  0.00  0.00     0.100 H 
ATOM     73  H   UAP d 301      80.383  13.588 101.203  0.00  0.00     0.210 HD
ATOM     74  H   UAP d 301      80.697  11.434 102.111  0.00  0.00     0.087 H 
ATOM     75  H   UAP d 301      82.518  10.963 103.172  0.00  0.00     0.041 H 
ATOM     76  H   UAP d 301      83.077  12.629 102.901  0.00  0.00     0.041 H 
ATOM     77  O5  IDS d 305      87.286  27.621 100.800  0.00  0.00    -0.340 OA
ATOM     78  O62 IDS d 305      88.625  25.300 101.517  0.00  0.00    -0.646 OA
ATOM     79  C1  IDS d 305      86.661  28.836 100.383  0.00  0.00     0.161 C 
ATOM     80  O3  IDS d 305      86.655  27.868  97.097  0.00  0.00    -0.390 OA
ATOM     81  C6  IDS d 305      88.523  25.494 100.284  0.00  0.00     0.206 C 
ATOM     82  C2  IDS d 305      85.754  28.653  99.137  0.00  0.00     0.134 C 
ATOM     83  C5  IDS d 305      87.609  26.640  99.847  0.00  0.00     0.152 C 
ATOM     84  C3  IDS d 305      85.923  27.457  98.181  0.00  0.00     0.094 C 
ATOM     85  S   IDS d 305      83.371  28.351 100.477  0.00  0.00     0.252 S 
ATOM     86  C4  IDS d 305      86.566  26.213  98.824  0.00  0.00     0.103 C 
ATOM     87  O3S IDS d 305      82.141  29.053 100.443  0.00  0.00    -0.572 OA
ATOM     88  O1S IDS d 305      83.972  28.485 101.755  0.00  0.00    -0.572 OA
ATOM     89  O2  IDS d 305      84.414  29.110  99.263  0.00  0.00    -0.244 OA
ATOM     90  O61 IDS d 305      88.918  24.680  99.433  0.00  0.00    -0.646 OA
ATOM     91  O2S IDS d 305      83.189  26.983 100.150  0.00  0.00    -0.572 OA
ATOM     92  H   IDS d 305      86.061  29.095 101.230  0.00  0.00     0.133 H 
ATOM     93  H   IDS d 305      86.239  28.651  96.703  0.00  0.00     0.210 HD
ATOM     94  H   IDS d 305      86.286  29.377  98.555  0.00  0.00     0.097 H 
ATOM     95  H   IDS d 305      88.234  27.292  99.272  0.00  0.00     0.104 H 
ATOM     96  H   IDS d 305      84.942  27.143  97.894  0.00  0.00     0.091 H 
ATOM     97  H   IDS d 305      87.017  25.634  98.045  0.00  0.00     0.092 H 
ATOM     98  O6  SGN d 304      86.698  20.855 101.220  0.00  0.00    -0.254 OA
ATOM     99  S2  SGN d 304      87.644  19.497 101.781  0.00  0.00     0.251 S 
ATOM    100  O5S SGN d 304      87.083  18.303 101.204  0.00  0.00    -0.572 OA
ATOM    101  N   SGN d 304      83.080  24.751  98.766  0.00  0.00    -0.210 NA
ATOM    102  O3S SGN d 304      82.112  23.793  96.548  0.00  0.00    -0.296 OA
ATOM    103  C6  SGN d 304      86.945  22.130 101.809  0.00  0.00     0.067 C 
ATOM    104  O3  SGN d 304      82.215  23.198 100.928  0.00  0.00    -0.391 OA
ATOM    105  C5  SGN d 304      85.944  23.088 101.213  0.00  0.00     0.091 C 
ATOM    106  O2S SGN d 304      82.116  26.111  96.824  0.00  0.00    -0.296 OA
ATOM    107  O1  SGN d 304      85.577  25.433  99.507  0.00  0.00    -0.348 OA
ATOM    108  O4S SGN d 304      89.000  19.665 101.356  0.00  0.00    -0.572 OA
ATOM    109  C1  SGN d 304      85.374  24.088  99.063  0.00  0.00     0.150 C 
ATOM    110  C3  SGN d 304      83.561  23.603 100.774  0.00  0.00     0.083 C 
ATOM    111  C2  SGN d 304      83.897  23.680  99.281  0.00  0.00     0.081 C 
ATOM    112  S1  SGN d 304      82.855  24.913  97.029  0.00  0.00     0.156 S 
ATOM    113  O6S SGN d 304      87.554  19.445 103.223  0.00  0.00    -0.572 OA
ATOM    114  O1S SGN d 304      84.121  24.982  96.356  0.00  0.00    -0.296 OA
ATOM    115  O5  SGN d 304      86.211  23.169  99.788  0.00  0.00    -0.349 OA
ATOM    116  C4  SGN d 304      84.498  22.592 101.423  0.00  0.00     0.095 C 
ATOM    117  O4  SGN d 304      84.192  22.533 102.824  0.00  0.00    -0.348 OA
ATOM    118  H   SGN d 304      83.495  25.624  99.093  0.00  0.00     0.140 HD
ATOM    119  H   SGN d 304      81.258  23.752  97.006  0.00  0.00     0.231 HD
ATOM    120  H   SGN d 304      87.941  22.452 101.585  0.00  0.00     0.080 H 
ATOM    121  H   SGN d 304      86.847  22.085 102.873  0.00  0.00     0.080 H 
ATOM    122  H   SGN d 304      81.631  23.850 100.510  0.00  0.00     0.210 HD
ATOM    123  H   SGN d 304      86.039  24.041 101.689  0.00  0.00     0.090 H 
ATOM    124  H   SGN d 304      81.264  26.048  97.284  0.00  0.00     0.231 HD
ATOM    125  H   SGN d 304      85.625  24.048  98.023  0.00  0.00     0.131 H 
ATOM    126  H   SGN d 304      83.686  24.558 101.240  0.00  0.00     0.089 H 
ATOM    127  H   SGN d 304      83.730  22.735  98.808  0.00  0.00     0.076 H 
ATOM    128  H   SGN d 304      84.612  24.158  96.506  0.00  0.00     0.231 HD
ATOM    129  H   SGN d 304      84.386  21.617 100.997  0.00  0.00     0.091 H 
ATOM    130  O5S SGN d 302      74.720  17.624 103.636  0.00  0.00    -0.572 OA
ATOM    131  C4  SGN d 302      80.264  15.916 105.168  0.00  0.00     0.095 C 
ATOM    132  O1S SGN d 302      83.569  17.198 109.344  0.00  0.00    -0.296 OA
ATOM    133  O3  SGN d 302      82.139  15.388 106.560  0.00  0.00    -0.391 OA
ATOM    134  O2S SGN d 302      81.387  18.091 109.510  0.00  0.00    -0.296 OA
ATOM    135  C1  SGN d 302      80.568  18.718 105.830  0.00  0.00     0.150 C 
ATOM    136  C5  SGN d 302      79.646  17.022 104.324  0.00  0.00     0.091 C 
ATOM    137  O3S SGN d 302      83.211  19.540 109.236  0.00  0.00    -0.296 OA
ATOM    138  O5  SGN d 302      79.394  18.177 105.167  0.00  0.00    -0.349 OA
ATOM    139  C6  SGN d 302      78.357  16.517 103.690  0.00  0.00     0.067 C 
ATOM    140  S1  SGN d 302      82.676  18.242 108.907  0.00  0.00     0.156 S 
ATOM    141  O4S SGN d 302      76.255  18.729 102.218  0.00  0.00    -0.572 OA
ATOM    142  O6S SGN d 302      75.934  16.388 102.052  0.00  0.00    -0.572 OA
ATOM    143  O4  SGN d 302      80.538  14.827 104.336  0.00  0.00    -0.348 OA
ATOM    144  N   SGN d 302      82.457  18.116 107.157  0.00  0.00    -0.210 NA
ATOM    145  C3  SGN d 302      81.559  16.415 105.776  0.00  0.00     0.083 C 
ATOM    146  C2  SGN d 302      81.205  17.600 106.659  0.00  0.00     0.081 C 
ATOM    147  S2  SGN d 302      75.976  17.521 102.943  0.00  0.00     0.251 S 
ATOM    148  O6  SGN d 302      77.241  17.258 104.132  0.00  0.00    -0.254 OA
ATOM    149  O1  SGN d 302      81.558  19.161 104.902  0.00  0.00    -0.348 OA
ATOM    150  H   SGN d 302      79.591  15.628 105.948  0.00  0.00     0.091 H 
ATOM    151  H   SGN d 302      83.695  17.260 110.304  0.00  0.00     0.231 HD
ATOM    152  H   SGN d 302      82.364  14.634 105.992  0.00  0.00     0.210 HD
ATOM    153  H   SGN d 302      81.471  18.155 110.475  0.00  0.00     0.231 HD
ATOM    154  H   SGN d 302      80.251  19.551 106.422  0.00  0.00     0.131 H 
ATOM    155  H   SGN d 302      80.315  17.308 103.541  0.00  0.00     0.090 H 
ATOM    156  H   SGN d 302      83.330  19.607 110.196  0.00  0.00     0.231 HD
ATOM    157  H   SGN d 302      78.219  15.489 103.954  0.00  0.00     0.080 H 
ATOM    158  H   SGN d 302      78.438  16.630 102.630  0.00  0.00     0.080 H 
ATOM    159  H   SGN d 302      83.196  17.508 106.803  0.00  0.00     0.140 HD
ATOM    160  H   SGN d 302      82.260  16.698 105.019  0.00  0.00     0.089 H 
ATOM    161  H   SGN d 302      80.527  17.295 107.429  0.00  0.00     0.076 H 
ENDROOT
TORSDOF 50
ENDMDL
