REMARK  0 active torsions:
REMARK  status: ('A' for Active; 'I' for Inactive)
REMARK       I    between atoms: O6_1  and  C6_12 
REMARK       I    between atoms: O3_2  and  C3_49 
REMARK       I    between atoms: O3_3  and  C1_50 
REMARK       I    between atoms: O3_3  and  C3_14 
REMARK       I    between atoms: O3_4  and  C1_59 
REMARK       I    between atoms: O3_4  and  C3_11 
REMARK       I    between atoms: C8_5  and  C7_52 
REMARK       I    between atoms: O4_7  and  C4_43 
REMARK       I    between atoms: O4_7  and  S_26 
REMARK       I    between atoms: C5_9  and  C6_55 
REMARK       I    between atoms: O2_10  and  C2_58 
REMARK       I    between atoms: C6_12  and  C5_32 
REMARK       I    between atoms: C4_15  and  O1_20 
REMARK       I    between atoms: C6_16  and  C5_42 
REMARK       I    between atoms: C6_16  and  O6_17 
REMARK       I    between atoms: N_18  and  C2_56 
REMARK       I    between atoms: N_18  and  C7_28 
REMARK       I    between atoms: O1_20  and  C1_29 
REMARK       I    between atoms: C4_22  and  O4_34 
REMARK       I    between atoms: C1_23  and  O1_53 
REMARK       I    between atoms: O3_25  and  C3_41 
REMARK       I    between atoms: C7_28  and  C8_40 
REMARK       I    between atoms: O4_34  and  S_51 
REMARK       I    between atoms: C6_35  and  C5_60 
REMARK       I    between atoms: C2_45  and  O2_47 
REMARK       I    between atoms: C2_48  and  N_54 
REMARK       I    between atoms: C7_52  and  N_54 
ROOT
ATOM      1  O6  ASG d 812       5.060  49.915  73.578  0.00  0.00    -0.398 OA
ATOM      2  O3  ASG d 812       3.191  46.237  78.146  0.00  0.00    -0.348 OA
ATOM      3  OSA ASG d 812       0.735  49.094  75.720  0.00  0.00    -0.572 OA
ATOM      4  C6  ASG d 812       3.970  49.517  74.410  0.00  0.00     0.043 C 
ATOM      5  C3  ASG d 812       4.086  46.817  77.181  0.00  0.00     0.094 C 
ATOM      6  N   ASG d 812       5.890  46.486  78.684  0.00  0.00    -0.349 N 
ATOM      7  O5  ASG d 812       5.395  49.269  76.375  0.00  0.00    -0.349 OA
ATOM      8  C4  ASG d 812       3.415  47.863  76.313  0.00  0.00     0.114 C 
ATOM      9  C1  ASG d 812       6.109  48.318  77.144  0.00  0.00     0.151 C 
ATOM     10  OSB ASG d 812       0.587  49.891  77.897  0.00  0.00    -0.572 OA
ATOM     11  OSC ASG d 812       2.052  51.121  76.294  0.00  0.00    -0.572 OA
ATOM     12  C7  ASG d 812       6.239  46.534  79.983  0.00  0.00     0.214 C 
ATOM     13  C5  ASG d 812       4.496  48.575  75.477  0.00  0.00     0.090 C 
ATOM     14  O4  ASG d 812       2.732  48.746  77.213  0.00  0.00    -0.246 OA
ATOM     15  O7  ASG d 812       6.165  47.619  80.625  0.00  0.00    -0.274 OA
ATOM     16  C8  ASG d 812       6.726  45.185  80.504  0.00  0.00    -0.003 C 
ATOM     17  S   ASG d 812       1.466  49.696  76.794  0.00  0.00     0.252 S 
ATOM     18  O1  ASG d 812       7.004  48.999  78.021  0.00  0.00    -0.369 OA
ATOM     19  C2  ASG d 812       5.141  47.516  78.013  0.00  0.00     0.087 C 
ATOM     20  H   ASG d 812       4.738  50.518  72.890  0.00  0.00     0.209 HD
ATOM     21  H   ASG d 812       3.230  49.017  73.820  0.00  0.00     0.078 H 
ATOM     22  H   ASG d 812       3.526  50.376  74.867  0.00  0.00     0.078 H 
ATOM     23  H   ASG d 812       4.459  46.059  76.525  0.00  0.00     0.091 H 
ATOM     24  H   ASG d 812       6.164  45.698  78.161  0.00  0.00     0.163 HD
ATOM     25  H   ASG d 812       2.711  47.454  75.619  0.00  0.00     0.093 H 
ATOM     26  H   ASG d 812       6.639  47.669  76.478  0.00  0.00     0.132 H 
ATOM     27  H   ASG d 812       5.007  47.812  74.927  0.00  0.00     0.090 H 
ATOM     28  H   ASG d 812       6.670  44.459  79.720  0.00  0.00     0.040 H 
ATOM     29  H   ASG d 812       6.110  44.875  81.322  0.00  0.00     0.040 H 
ATOM     30  H   ASG d 812       7.740  45.275  80.835  0.00  0.00     0.040 H 
ATOM     31  H   ASG d 812       6.499  49.579  78.612  0.00  0.00     0.212 HD
ATOM     32  H   ASG d 812       4.666  48.194  78.691  0.00  0.00     0.084 H 
ATOM     33  O3  GCT d 811       1.780  41.939  79.868  0.00  0.00    -0.390 OA
ATOM     34  C4  GCT d 811       0.727  43.108  78.044  0.00  0.00     0.103 C 
ATOM     35  C6  GCT d 811      -0.344  45.221  77.011  0.00  0.00     0.206 C 
ATOM     36  O6A GCT d 811      -0.160  46.375  76.521  0.00  0.00    -0.646 OA
ATOM     37  C2  GCT d 811       2.628  44.120  79.132  0.00  0.00     0.110 C 
ATOM     38  O6B GCT d 811      -1.415  44.859  77.543  0.00  0.00    -0.646 OA
ATOM     39  O2  GCT d 811       3.879  43.903  79.713  0.00  0.00    -0.388 OA
ATOM     40  C3  GCT d 811       2.041  42.781  78.756  0.00  0.00     0.092 C 
ATOM     41  C1  GCT d 811       2.957  44.864  77.843  0.00  0.00     0.160 C 
ATOM     42  O5  GCT d 811       2.059  44.722  76.755  0.00  0.00    -0.340 OA
ATOM     43  C5  GCT d 811       0.768  44.170  76.939  0.00  0.00     0.152 C 
ATOM     44  H   GCT d 811       1.406  41.100  79.557  0.00  0.00     0.210 HD
ATOM     45  H   GCT d 811       0.181  43.321  78.939  0.00  0.00     0.092 H 
ATOM     46  H   GCT d 811       1.947  44.642  79.771  0.00  0.00     0.094 H 
ATOM     47  H   GCT d 811       4.448  43.428  79.087  0.00  0.00     0.210 HD
ATOM     48  H   GCT d 811       2.738  42.240  78.151  0.00  0.00     0.091 H 
ATOM     49  H   GCT d 811       3.837  44.383  77.469  0.00  0.00     0.133 H 
ATOM     50  H   GCT d 811       0.544  43.631  76.042  0.00  0.00     0.104 H 
ATOM     51  O3  ASG d 810      -2.488  37.996  76.170  0.00  0.00    -0.348 OA
ATOM     52  C8  ASG d 810      -3.064  40.567  73.326  0.00  0.00    -0.003 C 
ATOM     53  O4  ASG d 810      -0.234  37.447  77.490  0.00  0.00    -0.246 OA
ATOM     54  C3  ASG d 810      -2.056  38.928  77.193  0.00  0.00     0.094 C 
ATOM     55  O7  ASG d 810      -0.856  39.616  73.797  0.00  0.00    -0.274 OA
ATOM     56  C6  ASG d 810       0.414  38.555  80.181  0.00  0.00     0.043 C 
ATOM     57  O6  ASG d 810       1.079  39.662  80.771  0.00  0.00    -0.398 OA
ATOM     58  OSA ASG d 810      -0.264  35.520  78.972  0.00  0.00    -0.572 OA
ATOM     59  O1  ASG d 810       0.156  41.954  76.981  0.00  0.00    -0.348 OA
ATOM     60  S   ASG d 810      -0.158  35.811  77.549  0.00  0.00     0.252 S 
ATOM     61  C1  ASG d 810      -0.703  40.985  77.597  0.00  0.00     0.154 C 
ATOM     62  O5  ASG d 810       0.106  40.246  78.523  0.00  0.00    -0.349 OA
ATOM     63  OSC ASG d 810       1.324  35.418  77.085  0.00  0.00    -0.572 OA
ATOM     64  OSB ASG d 810      -1.143  35.143  76.699  0.00  0.00    -0.572 OA
ATOM     65  C5  ASG d 810      -0.580  39.198  79.220  0.00  0.00     0.090 C 
ATOM     66  C4  ASG d 810      -1.217  38.198  78.235  0.00  0.00     0.114 C 
ATOM     67  C2  ASG d 810      -1.190  39.989  76.529  0.00  0.00     0.087 C 
ATOM     68  C7  ASG d 810      -1.868  40.193  74.192  0.00  0.00     0.214 C 
ATOM     69  N   ASG d 810      -2.008  40.551  75.486  0.00  0.00    -0.349 N 
ATOM     70  H   ASG d 810      -2.886  40.255  72.318  0.00  0.00     0.040 H 
ATOM     71  H   ASG d 810      -3.205  41.627  73.352  0.00  0.00     0.040 H 
ATOM     72  H   ASG d 810      -3.941  40.081  73.700  0.00  0.00     0.040 H 
ATOM     73  H   ASG d 810      -2.908  39.368  77.668  0.00  0.00     0.091 H 
ATOM     74  H   ASG d 810       1.106  37.932  79.653  0.00  0.00     0.078 H 
ATOM     75  H   ASG d 810      -0.059  37.923  80.904  0.00  0.00     0.078 H 
ATOM     76  H   ASG d 810       1.489  40.201  80.076  0.00  0.00     0.209 HD
ATOM     77  H   ASG d 810      -1.536  41.464  78.067  0.00  0.00     0.132 H 
ATOM     78  H   ASG d 810      -1.401  39.586  79.786  0.00  0.00     0.090 H 
ATOM     79  H   ASG d 810      -1.805  37.541  78.841  0.00  0.00     0.093 H 
ATOM     80  H   ASG d 810      -0.291  39.616  76.085  0.00  0.00     0.084 H 
ATOM     81  H   ASG d 810      -2.692  41.218  75.724  0.00  0.00     0.163 HD
ATOM     82  O5  GAD d 809      -4.528  37.724  77.118  0.00  0.00    -0.311 OA
ATOM     83  C5  GAD d 809      -5.947  37.604  77.070  0.00  0.00     0.147 C 
ATOM     84  O2  GAD d 809      -3.607  37.272  73.324  0.00  0.00    -0.388 OA
ATOM     85  O3  GAD d 809      -6.177  35.590  74.158  0.00  0.00    -0.389 OA
ATOM     86  O6A GAD d 809      -7.791  38.393  78.240  0.00  0.00    -0.642 OA
ATOM     87  C4  GAD d 809      -6.506  37.241  75.879  0.00  0.00    -0.034 C 
ATOM     88  C3  GAD d 809      -5.759  36.922  74.559  0.00  0.00     0.084 C 
ATOM     89  O6B GAD d 809      -5.939  37.885  79.450  0.00  0.00    -0.642 OA
ATOM     90  C6  GAD d 809      -6.620  37.950  78.354  0.00  0.00     0.233 C 
ATOM     91  C2  GAD d 809      -4.232  37.028  74.670  0.00  0.00     0.111 C 
ATOM     92  C1  GAD d 809      -3.881  38.001  75.866  0.00  0.00     0.165 C 
ATOM     93  H   GAD d 809      -3.915  36.599  72.698  0.00  0.00     0.210 HD
ATOM     94  H   GAD d 809      -7.145  35.559  74.098  0.00  0.00     0.210 HD
ATOM     95  H   GAD d 809      -7.535  37.172  75.855  0.00  0.00     0.085 H 
ATOM     96  H   GAD d 809      -6.016  37.653  73.821  0.00  0.00     0.093 H 
ATOM     97  H   GAD d 809      -3.766  36.105  74.945  0.00  0.00     0.095 H 
ATOM     98  H   GAD d 809      -4.232  38.938  75.487  0.00  0.00     0.134 H 
ENDROOT
TORSDOF 25
