MODEL 1
REMARK VINA RESULT:     -22.3      0.000      0.000
REMARK  0 active torsions:
REMARK  status: ('A' for Active; 'I' for Inactive)
REMARK       I    between atoms: O6_1  and  C6_12 
REMARK       I    between atoms: O3_2  and  C3_49 
REMARK       I    between atoms: O3_3  and  C1_50 
REMARK       I    between atoms: O3_3  and  C3_14 
REMARK       I    between atoms: O3_4  and  C1_59 
REMARK       I    between atoms: O3_4  and  C3_11 
REMARK       I    between atoms: C8_5  and  C7_52 
REMARK       I    between atoms: O4_7  and  C4_43 
REMARK       I    between atoms: O4_7  and  S_26 
REMARK       I    between atoms: C5_9  and  C6_55 
REMARK       I    between atoms: O2_10  and  C2_58 
REMARK       I    between atoms: C6_12  and  C5_32 
REMARK       I    between atoms: C4_15  and  O1_20 
REMARK       I    between atoms: C6_16  and  C5_42 
REMARK       I    between atoms: C6_16  and  O6_17 
REMARK       I    between atoms: N_18  and  C2_56 
REMARK       I    between atoms: N_18  and  C7_28 
REMARK       I    between atoms: O1_20  and  C1_29 
REMARK       I    between atoms: C4_22  and  O4_34 
REMARK       I    between atoms: C1_23  and  O1_53 
REMARK       I    between atoms: O3_25  and  C3_41 
REMARK       I    between atoms: C7_28  and  C8_40 
REMARK       I    between atoms: O4_34  and  S_51 
REMARK       I    between atoms: C6_35  and  C5_60 
REMARK       I    between atoms: C2_45  and  O2_47 
REMARK       I    between atoms: C2_48  and  N_54 
REMARK       I    between atoms: C7_52  and  N_54 
ROOT
ATOM      1  O6  ASG d 812       5.054  49.906  73.648  0.00  0.00    -0.398 OA
ATOM      2  O3  ASG d 812       3.238  46.131  78.157  0.00  0.00    -0.348 OA
ATOM      3  OSA ASG d 812       0.753  49.034  75.817  0.00  0.00    -0.572 OA
ATOM      4  C6  ASG d 812       3.974  49.489  74.483  0.00  0.00     0.043 C 
ATOM      5  C3  ASG d 812       4.122  46.732  77.195  0.00  0.00     0.094 C 
ATOM      6  N   ASG d 812       5.942  46.372  78.672  0.00  0.00    -0.349 N 
ATOM      7  O5  ASG d 812       5.420  49.202  76.427  0.00  0.00    -0.349 OA
ATOM      8  C4  ASG d 812       3.441  47.795  76.356  0.00  0.00     0.114 C 
ATOM      9  C1  ASG d 812       6.143  48.236  77.169  0.00  0.00     0.151 C 
ATOM     10  OSB ASG d 812       0.627  49.785  78.012  0.00  0.00    -0.572 OA
ATOM     11  OSC ASG d 812       2.074  51.051  76.420  0.00  0.00    -0.572 OA
ATOM     12  C7  ASG d 812       6.305  46.394  79.968  0.00  0.00     0.214 C 
ATOM     13  C5  ASG d 812       4.512  48.526  75.524  0.00  0.00     0.090 C 
ATOM     14  O4  ASG d 812       2.766  48.658  77.282  0.00  0.00    -0.246 OA
ATOM     15  O7  ASG d 812       6.236  47.465  80.633  0.00  0.00    -0.274 OA
ATOM     16  C8  ASG d 812       6.799  45.035  80.456  0.00  0.00    -0.003 C 
ATOM     17  S   ASG d 812       1.495  49.615  76.896  0.00  0.00     0.252 S 
ATOM     18  O1  ASG d 812       7.046  48.900  78.050  0.00  0.00    -0.369 OA
ATOM     19  C2  ASG d 812       5.185  47.415  78.031  0.00  0.00     0.087 C 
ATOM     20  H   ASG d 812       4.725  50.523  72.976  0.00  0.00     0.209 HD
ATOM     21  H   ASG d 812       3.228  49.000  73.890  0.00  0.00     0.078 H 
ATOM     22  H   ASG d 812       3.533  50.338  74.962  0.00  0.00     0.078 H 
ATOM     23  H   ASG d 812       4.489  45.988  76.520  0.00  0.00     0.091 H 
ATOM     24  H   ASG d 812       6.211  45.596  78.130  0.00  0.00     0.163 HD
ATOM     25  H   ASG d 812       2.730  47.400  75.661  0.00  0.00     0.093 H 
ATOM     26  H   ASG d 812       6.666  47.602  76.484  0.00  0.00     0.132 H 
ATOM     27  H   ASG d 812       5.018  47.775  74.953  0.00  0.00     0.090 H 
ATOM     28  H   ASG d 812       6.735  44.325  79.658  0.00  0.00     0.040 H 
ATOM     29  H   ASG d 812       6.192  44.707  81.274  0.00  0.00     0.040 H 
ATOM     30  H   ASG d 812       7.816  45.119  80.778  0.00  0.00     0.040 H 
ATOM     31  H   ASG d 812       6.547  49.467  78.658  0.00  0.00     0.212 HD
ATOM     32  H   ASG d 812       4.716  48.078  78.728  0.00  0.00     0.084 H 
ATOM     33  O3  GCT d 811       1.850  41.796  79.804  0.00  0.00    -0.390 OA
ATOM     34  C4  GCT d 811       0.777  43.001  78.016  0.00  0.00     0.103 C 
ATOM     35  C6  GCT d 811      -0.308  45.134  77.038  0.00  0.00     0.206 C 
ATOM     36  O6A GCT d 811      -0.130  46.298  76.571  0.00  0.00    -0.646 OA
ATOM     37  C2  GCT d 811       2.688  43.993  79.105  0.00  0.00     0.110 C 
ATOM     38  O6B GCT d 811      -1.373  44.759  77.574  0.00  0.00    -0.646 OA
ATOM     39  O2  GCT d 811       3.945  43.766  79.668  0.00  0.00    -0.388 OA
ATOM     40  C3  GCT d 811       2.098  42.661  78.707  0.00  0.00     0.092 C 
ATOM     41  C1  GCT d 811       3.002  44.764  77.828  0.00  0.00     0.160 C 
ATOM     42  O5  GCT d 811       2.093  44.643  76.747  0.00  0.00    -0.340 OA
ATOM     43  C5  GCT d 811       0.805  44.086  76.933  0.00  0.00     0.152 C 
ATOM     44  H   GCT d 811       1.474  40.963  79.479  0.00  0.00     0.210 HD
ATOM     45  H   GCT d 811       0.240  43.195  78.921  0.00  0.00     0.092 H 
ATOM     46  H   GCT d 811       2.013  44.500  79.762  0.00  0.00     0.094 H 
ATOM     47  H   GCT d 811       4.508  43.305  79.026  0.00  0.00     0.210 HD
ATOM     48  H   GCT d 811       2.790  42.134  78.084  0.00  0.00     0.091 H 
ATOM     49  H   GCT d 811       3.879  44.292  77.435  0.00  0.00     0.133 H 
ATOM     50  H   GCT d 811       0.572  43.565  76.027  0.00  0.00     0.104 H 
ATOM     51  O3  ASG d 810      -2.452  37.925  76.069  0.00  0.00    -0.348 OA
ATOM     52  C8  ASG d 810      -3.061  40.554  73.286  0.00  0.00    -0.003 C 
ATOM     53  O4  ASG d 810      -0.183  37.351  77.354  0.00  0.00    -0.246 OA
ATOM     54  C3  ASG d 810      -2.010  38.836  77.107  0.00  0.00     0.094 C 
ATOM     55  O7  ASG d 810      -0.847  39.596  73.714  0.00  0.00    -0.274 OA
ATOM     56  C6  ASG d 810       0.491  38.404  80.060  0.00  0.00     0.043 C 
ATOM     57  O6  ASG d 810       1.161  39.499  80.666  0.00  0.00    -0.398 OA
ATOM     58  OSA ASG d 810      -0.195  35.394  78.796  0.00  0.00    -0.572 OA
ATOM     59  O1  ASG d 810       0.196  41.869  76.935  0.00  0.00    -0.348 OA
ATOM     60  S   ASG d 810      -0.105  35.715  77.378  0.00  0.00     0.252 S 
ATOM     61  C1  ASG d 810      -0.655  40.886  77.540  0.00  0.00     0.154 C 
ATOM     62  O5  ASG d 810       0.164  40.129  78.441  0.00  0.00    -0.349 OA
ATOM     63  OSC ASG d 810       1.373  35.334  76.890  0.00  0.00    -0.572 OA
ATOM     64  OSB ASG d 810      -1.098  35.063  76.524  0.00  0.00    -0.572 OA
ATOM     65  C5  ASG d 810      -0.513  39.066  79.124  0.00  0.00     0.090 C 
ATOM     66  C4  ASG d 810      -1.159  38.085  78.125  0.00  0.00     0.114 C 
ATOM     67  C2  ASG d 810      -1.152  39.912  76.456  0.00  0.00     0.087 C 
ATOM     68  C7  ASG d 810      -1.855  40.163  74.131  0.00  0.00     0.214 C 
ATOM     69  N   ASG d 810      -1.982  40.494  75.434  0.00  0.00    -0.349 N 
ATOM     70  H   ASG d 810      -2.893  40.263  72.270  0.00  0.00     0.040 H 
ATOM     71  H   ASG d 810      -3.203  41.613  73.335  0.00  0.00     0.040 H 
ATOM     72  H   ASG d 810      -3.933  40.059  73.659  0.00  0.00     0.040 H 
ATOM     73  H   ASG d 810      -2.858  39.265  77.600  0.00  0.00     0.091 H 
ATOM     74  H   ASG d 810       1.179  37.793  79.512  0.00  0.00     0.078 H 
ATOM     75  H   ASG d 810       0.027  37.756  80.775  0.00  0.00     0.078 H 
ATOM     76  H   ASG d 810       1.563  40.053  79.979  0.00  0.00     0.209 HD
ATOM     77  H   ASG d 810      -1.484  41.354  78.028  0.00  0.00     0.132 H 
ATOM     78  H   ASG d 810      -1.329  39.440  79.706  0.00  0.00     0.090 H 
ATOM     79  H   ASG d 810      -1.740  37.415  78.723  0.00  0.00     0.093 H 
ATOM     80  H   ASG d 810      -0.258  39.549  75.995  0.00  0.00     0.084 H 
ATOM     81  H   ASG d 810      -2.664  41.155  75.693  0.00  0.00     0.163 HD
ATOM     82  O5  GAD d 809      -4.481  37.630  77.033  0.00  0.00    -0.311 OA
ATOM     83  C5  GAD d 809      -5.901  37.509  76.997  0.00  0.00     0.147 C 
ATOM     84  O2  GAD d 809      -3.600  37.259  73.221  0.00  0.00    -0.388 OA
ATOM     85  O3  GAD d 809      -6.159  35.556  74.046  0.00  0.00    -0.389 OA
ATOM     86  O6A GAD d 809      -7.733  38.271  78.202  0.00  0.00    -0.642 OA
ATOM     87  C4  GAD d 809      -6.472  37.170  75.805  0.00  0.00    -0.034 C 
ATOM     88  C3  GAD d 809      -5.738  36.880  74.470  0.00  0.00     0.084 C 
ATOM     89  O6B GAD d 809      -5.868  37.740  79.382  0.00  0.00    -0.642 OA
ATOM     90  C6  GAD d 809      -6.561  37.827  78.295  0.00  0.00     0.233 C 
ATOM     91  C2  GAD d 809      -4.210  36.986  74.568  0.00  0.00     0.111 C 
ATOM     92  C1  GAD d 809      -3.848  37.934  75.780  0.00  0.00     0.165 C 
ATOM     93  H   GAD d 809      -3.913  36.598  72.584  0.00  0.00     0.210 HD
ATOM     94  H   GAD d 809      -7.127  35.525  73.996  0.00  0.00     0.210 HD
ATOM     95  H   GAD d 809      -7.501  37.100  75.790  0.00  0.00     0.085 H 
ATOM     96  H   GAD d 809      -6.004  37.626  73.751  0.00  0.00     0.093 H 
ATOM     97  H   GAD d 809      -3.740  36.058  74.818  0.00  0.00     0.095 H 
ATOM     98  H   GAD d 809      -4.204  38.878  75.424  0.00  0.00     0.134 H 
ENDROOT
TORSDOF 25
ENDMDL
MODEL 2
REMARK VINA RESULT:     -16.0      0.999      1.051
REMARK  0 active torsions:
REMARK  status: ('A' for Active; 'I' for Inactive)
REMARK       I    between atoms: O6_1  and  C6_12 
REMARK       I    between atoms: O3_2  and  C3_49 
REMARK       I    between atoms: O3_3  and  C1_50 
REMARK       I    between atoms: O3_3  and  C3_14 
REMARK       I    between atoms: O3_4  and  C1_59 
REMARK       I    between atoms: O3_4  and  C3_11 
REMARK       I    between atoms: C8_5  and  C7_52 
REMARK       I    between atoms: O4_7  and  C4_43 
REMARK       I    between atoms: O4_7  and  S_26 
REMARK       I    between atoms: C5_9  and  C6_55 
REMARK       I    between atoms: O2_10  and  C2_58 
REMARK       I    between atoms: C6_12  and  C5_32 
REMARK       I    between atoms: C4_15  and  O1_20 
REMARK       I    between atoms: C6_16  and  C5_42 
REMARK       I    between atoms: C6_16  and  O6_17 
REMARK       I    between atoms: N_18  and  C2_56 
REMARK       I    between atoms: N_18  and  C7_28 
REMARK       I    between atoms: O1_20  and  C1_29 
REMARK       I    between atoms: C4_22  and  O4_34 
REMARK       I    between atoms: C1_23  and  O1_53 
REMARK       I    between atoms: O3_25  and  C3_41 
REMARK       I    between atoms: C7_28  and  C8_40 
REMARK       I    between atoms: O4_34  and  S_51 
REMARK       I    between atoms: C6_35  and  C5_60 
REMARK       I    between atoms: C2_45  and  O2_47 
REMARK       I    between atoms: C2_48  and  N_54 
REMARK       I    between atoms: C7_52  and  N_54 
ROOT
ATOM      1  O6  ASG d 812       3.918  50.823  72.871  0.00  0.00    -0.398 OA
ATOM      2  O3  ASG d 812       3.023  47.024  77.631  0.00  0.00    -0.348 OA
ATOM      3  OSA ASG d 812      -0.004  49.564  75.518  0.00  0.00    -0.572 OA
ATOM      4  C6  ASG d 812       2.986  50.319  73.828  0.00  0.00     0.043 C 
ATOM      5  C3  ASG d 812       3.727  47.685  76.566  0.00  0.00     0.094 C 
ATOM      6  N   ASG d 812       5.723  47.573  77.841  0.00  0.00    -0.349 N 
ATOM      7  O5  ASG d 812       4.654  50.254  75.608  0.00  0.00    -0.349 OA
ATOM      8  C4  ASG d 812       2.847  48.640  75.785  0.00  0.00     0.114 C 
ATOM      9  C1  ASG d 812       5.555  49.397  76.286  0.00  0.00     0.151 C 
ATOM     10  OSB ASG d 812       0.023  50.369  77.696  0.00  0.00    -0.572 OA
ATOM     11  OSC ASG d 812       1.142  51.730  75.929  0.00  0.00    -0.572 OA
ATOM     12  C7  ASG d 812       6.217  47.676  79.089  0.00  0.00     0.214 C 
ATOM     13  C5  ASG d 812       3.736  49.455  74.825  0.00  0.00     0.090 C 
ATOM     14  O4  ASG d 812       2.183  49.456  76.760  0.00  0.00    -0.246 OA
ATOM     15  O7  ASG d 812       6.102  48.755  79.735  0.00  0.00    -0.274 OA
ATOM     16  C8  ASG d 812       6.908  46.395  79.548  0.00  0.00    -0.003 C 
ATOM     17  S   ASG d 812       0.780  50.256  76.496  0.00  0.00     0.252 S 
ATOM     18  O1  ASG d 812       6.468  50.183  77.049  0.00  0.00    -0.369 OA
ATOM     19  C2  ASG d 812       4.791  48.506  77.265  0.00  0.00     0.087 C 
ATOM     20  H   ASG d 812       3.452  51.378  72.227  0.00  0.00     0.209 HD
ATOM     21  H   ASG d 812       2.240  49.734  73.332  0.00  0.00     0.078 H 
ATOM     22  H   ASG d 812       2.508  51.131  74.335  0.00  0.00     0.078 H 
ATOM     23  H   ASG d 812       4.100  46.964  75.870  0.00  0.00     0.091 H 
ATOM     24  H   ASG d 812       6.018  46.812  77.289  0.00  0.00     0.163 HD
ATOM     25  H   ASG d 812       2.114  48.148  75.180  0.00  0.00     0.093 H 
ATOM     26  H   ASG d 812       6.069  48.801  75.561  0.00  0.00     0.132 H 
ATOM     27  H   ASG d 812       4.258  48.745  74.217  0.00  0.00     0.090 H 
ATOM     28  H   ASG d 812       6.839  45.657  78.776  0.00  0.00     0.040 H 
ATOM     29  H   ASG d 812       6.432  46.031  80.434  0.00  0.00     0.040 H 
ATOM     30  H   ASG d 812       7.938  46.599  79.755  0.00  0.00     0.040 H 
ATOM     31  H   ASG d 812       5.976  50.713  77.696  0.00  0.00     0.212 HD
ATOM     32  H   ASG d 812       4.329  49.137  77.995  0.00  0.00     0.084 H 
ATOM     33  O3  GCT d 811       2.308  42.621  79.511  0.00  0.00    -0.390 OA
ATOM     34  C4  GCT d 811       0.923  43.644  77.827  0.00  0.00     0.103 C 
ATOM     35  C6  GCT d 811      -0.489  45.614  76.929  0.00  0.00     0.206 C 
ATOM     36  O6A GCT d 811      -0.493  46.775  76.421  0.00  0.00    -0.646 OA
ATOM     37  C2  GCT d 811       2.818  44.872  78.678  0.00  0.00     0.110 C 
ATOM     38  O6B GCT d 811      -1.443  45.145  77.586  0.00  0.00    -0.646 OA
ATOM     39  O2  GCT d 811       4.145  44.800  79.105  0.00  0.00    -0.388 OA
ATOM     40  C3  GCT d 811       2.340  43.472  78.376  0.00  0.00     0.092 C 
ATOM     41  C1  GCT d 811       2.907  45.630  77.359  0.00  0.00     0.160 C 
ATOM     42  O5  GCT d 811       1.906  45.377  76.387  0.00  0.00    -0.340 OA
ATOM     43  C5  GCT d 811       0.715  44.690  76.725  0.00  0.00     0.152 C 
ATOM     44  H   GCT d 811       1.994  41.743  79.247  0.00  0.00     0.210 HD
ATOM     45  H   GCT d 811       0.468  43.809  78.781  0.00  0.00     0.092 H 
ATOM     46  H   GCT d 811       2.165  45.325  79.394  0.00  0.00     0.094 H 
ATOM     47  H   GCT d 811       4.684  44.382  78.415  0.00  0.00     0.210 HD
ATOM     48  H   GCT d 811       3.015  43.002  77.691  0.00  0.00     0.091 H 
ATOM     49  H   GCT d 811       3.783  45.243  76.882  0.00  0.00     0.133 H 
ATOM     50  H   GCT d 811       0.446  44.118  75.861  0.00  0.00     0.104 H 
ATOM     51  O3  ASG d 810      -1.912  38.188  76.353  0.00  0.00    -0.348 OA
ATOM     52  C8  ASG d 810      -3.102  40.643  73.599  0.00  0.00    -0.003 C 
ATOM     53  O4  ASG d 810       0.530  37.905  77.393  0.00  0.00    -0.246 OA
ATOM     54  C3  ASG d 810      -1.466  39.175  77.317  0.00  0.00     0.094 C 
ATOM     55  O7  ASG d 810      -0.763  39.944  73.801  0.00  0.00    -0.274 OA
ATOM     56  C6  ASG d 810       1.369  39.113  79.987  0.00  0.00     0.043 C 
ATOM     57  O6  ASG d 810       1.974  40.294  80.492  0.00  0.00    -0.398 OA
ATOM     58  OSA ASG d 810       0.888  36.007  78.868  0.00  0.00    -0.572 OA
ATOM     59  O1  ASG d 810       0.359  42.421  76.840  0.00  0.00    -0.348 OA
ATOM     60  S   ASG d 810       0.791  36.288  77.443  0.00  0.00     0.252 S 
ATOM     61  C1  ASG d 810      -0.309  41.372  77.555  0.00  0.00     0.154 C 
ATOM     62  O5  ASG d 810       0.681  40.738  78.377  0.00  0.00    -0.349 OA
ATOM     63  OSC ASG d 810       2.241  36.053  76.804  0.00  0.00    -0.572 OA
ATOM     64  OSB ASG d 810      -0.209  35.506  76.717  0.00  0.00    -0.572 OA
ATOM     65  C5  ASG d 810       0.203  39.631  79.152  0.00  0.00     0.090 C 
ATOM     66  C4  ASG d 810      -0.434  38.555  78.251  0.00  0.00     0.114 C 
ATOM     67  C2  ASG d 810      -0.807  40.315  76.553  0.00  0.00     0.087 C 
ATOM     68  C7  ASG d 810      -1.778  40.413  74.315  0.00  0.00     0.214 C 
ATOM     69  N   ASG d 810      -1.801  40.771  75.616  0.00  0.00    -0.349 N 
ATOM     70  H   ASG d 810      -3.013  40.339  72.577  0.00  0.00     0.040 H 
ATOM     71  H   ASG d 810      -3.355  41.681  73.641  0.00  0.00     0.040 H 
ATOM     72  H   ASG d 810      -3.870  40.069  74.075  0.00  0.00     0.040 H 
ATOM     73  H   ASG d 810      -2.298  39.526  77.891  0.00  0.00     0.091 H 
ATOM     74  H   ASG d 810       2.057  38.562  79.379  0.00  0.00     0.078 H 
ATOM     75  H   ASG d 810       1.058  38.443  80.761  0.00  0.00     0.078 H 
ATOM     76  H   ASG d 810       2.236  40.865  79.753  0.00  0.00     0.209 HD
ATOM     77  H   ASG d 810      -1.127  41.764  78.122  0.00  0.00     0.132 H 
ATOM     78  H   ASG d 810      -0.583  39.935  79.812  0.00  0.00     0.090 H 
ATOM     79  H   ASG d 810      -0.870  37.846  78.923  0.00  0.00     0.093 H 
ATOM     80  H   ASG d 810       0.068  40.036  76.005  0.00  0.00     0.084 H 
ATOM     81  H   ASG d 810      -2.520  41.362  75.934  0.00  0.00     0.163 HD
ATOM     82  O5  GAD d 809      -3.782  37.708  77.539  0.00  0.00    -0.311 OA
ATOM     83  C5  GAD d 809      -5.175  37.434  77.662  0.00  0.00     0.147 C 
ATOM     84  O2  GAD d 809      -3.277  37.309  73.662  0.00  0.00    -0.388 OA
ATOM     85  O3  GAD d 809      -5.529  35.368  74.799  0.00  0.00    -0.389 OA
ATOM     86  O6A GAD d 809      -6.942  38.033  79.045  0.00  0.00    -0.642 OA
ATOM     87  C4  GAD d 809      -5.829  36.996  76.547  0.00  0.00    -0.034 C 
ATOM     88  C3  GAD d 809      -5.215  36.743  75.147  0.00  0.00     0.084 C 
ATOM     89  O6B GAD d 809      -4.914  37.746  80.024  0.00  0.00    -0.642 OA
ATOM     90  C6  GAD d 809      -5.724  37.721  79.018  0.00  0.00     0.233 C 
ATOM     91  C2  GAD d 809      -3.706  37.016  75.074  0.00  0.00     0.111 C 
ATOM     92  C1  GAD d 809      -3.324  38.037  76.219  0.00  0.00     0.165 C 
ATOM     93  H   GAD d 809      -3.582  36.598  73.078  0.00  0.00     0.210 HD
ATOM     94  H   GAD d 809      -6.488  35.231  74.856  0.00  0.00     0.210 HD
ATOM     95  H   GAD d 809      -6.840  36.815  76.647  0.00  0.00     0.085 H 
ATOM     96  H   GAD d 809      -5.636  37.432  74.445  0.00  0.00     0.093 H 
ATOM     97  H   GAD d 809      -3.112  36.153  75.291  0.00  0.00     0.095 H 
ATOM     98  H   GAD d 809      -3.818  38.925  75.885  0.00  0.00     0.134 H 
ENDROOT
TORSDOF 25
ENDMDL
MODEL 3
REMARK VINA RESULT:     -13.1      0.971      1.053
REMARK  0 active torsions:
REMARK  status: ('A' for Active; 'I' for Inactive)
REMARK       I    between atoms: O6_1  and  C6_12 
REMARK       I    between atoms: O3_2  and  C3_49 
REMARK       I    between atoms: O3_3  and  C1_50 
REMARK       I    between atoms: O3_3  and  C3_14 
REMARK       I    between atoms: O3_4  and  C1_59 
REMARK       I    between atoms: O3_4  and  C3_11 
REMARK       I    between atoms: C8_5  and  C7_52 
REMARK       I    between atoms: O4_7  and  C4_43 
REMARK       I    between atoms: O4_7  and  S_26 
REMARK       I    between atoms: C5_9  and  C6_55 
REMARK       I    between atoms: O2_10  and  C2_58 
REMARK       I    between atoms: C6_12  and  C5_32 
REMARK       I    between atoms: C4_15  and  O1_20 
REMARK       I    between atoms: C6_16  and  C5_42 
REMARK       I    between atoms: C6_16  and  O6_17 
REMARK       I    between atoms: N_18  and  C2_56 
REMARK       I    between atoms: N_18  and  C7_28 
REMARK       I    between atoms: O1_20  and  C1_29 
REMARK       I    between atoms: C4_22  and  O4_34 
REMARK       I    between atoms: C1_23  and  O1_53 
REMARK       I    between atoms: O3_25  and  C3_41 
REMARK       I    between atoms: C7_28  and  C8_40 
REMARK       I    between atoms: O4_34  and  S_51 
REMARK       I    between atoms: C6_35  and  C5_60 
REMARK       I    between atoms: C2_45  and  O2_47 
REMARK       I    between atoms: C2_48  and  N_54 
REMARK       I    between atoms: C7_52  and  N_54 
ROOT
ATOM      1  O6  ASG d 812       6.297  48.853  74.617  0.00  0.00    -0.398 OA
ATOM      2  O3  ASG d 812       3.594  45.233  78.798  0.00  0.00    -0.348 OA
ATOM      3  OSA ASG d 812       1.723  48.463  76.318  0.00  0.00    -0.572 OA
ATOM      4  C6  ASG d 812       5.094  48.553  75.326  0.00  0.00     0.043 C 
ATOM      5  C3  ASG d 812       4.637  45.743  77.949  0.00  0.00     0.094 C 
ATOM      6  N   ASG d 812       6.240  45.136  79.587  0.00  0.00    -0.349 N 
ATOM      7  O5  ASG d 812       6.289  48.054  77.395  0.00  0.00    -0.349 OA
ATOM      8  C4  ASG d 812       4.176  46.897  77.082  0.00  0.00     0.114 C 
ATOM      9  C1  ASG d 812       6.813  46.993  78.173  0.00  0.00     0.151 C 
ATOM     10  OSB ASG d 812       1.461  49.179  78.513  0.00  0.00    -0.572 OA
ATOM     11  OSC ASG d 812       3.203  50.292  77.114  0.00  0.00    -0.572 OA
ATOM     12  C7  ASG d 812       6.468  45.087  80.913  0.00  0.00     0.214 C 
ATOM     13  C5  ASG d 812       5.405  47.510  76.385  0.00  0.00     0.090 C 
ATOM     14  O4  ASG d 812       3.516  47.817  77.963  0.00  0.00    -0.246 OA
ATOM     15  O7  ASG d 812       6.458  46.145  81.603  0.00  0.00    -0.274 OA
ATOM     16  C8  ASG d 812       6.745  43.669  81.403  0.00  0.00    -0.003 C 
ATOM     17  S   ASG d 812       2.413  48.927  77.484  0.00  0.00     0.252 S 
ATOM     18  O1  ASG d 812       7.693  47.524  79.161  0.00  0.00    -0.369 OA
ATOM     19  C2  ASG d 812       5.681  46.276  78.908  0.00  0.00     0.087 C 
ATOM     20  H   ASG d 812       6.113  49.518  73.936  0.00  0.00     0.209 HD
ATOM     21  H   ASG d 812       4.361  48.170  74.647  0.00  0.00     0.078 H 
ATOM     22  H   ASG d 812       4.711  49.438  75.787  0.00  0.00     0.078 H 
ATOM     23  H   ASG d 812       4.981  44.975  77.290  0.00  0.00     0.091 H 
ATOM     24  H   ASG d 812       6.471  44.344  79.050  0.00  0.00     0.163 HD
ATOM     25  H   ASG d 812       3.498  46.605  76.307  0.00  0.00     0.093 H 
ATOM     26  H   ASG d 812       7.326  46.314  77.523  0.00  0.00     0.132 H 
ATOM     27  H   ASG d 812       5.875  46.716  75.842  0.00  0.00     0.090 H 
ATOM     28  H   ASG d 812       6.681  42.989  80.580  0.00  0.00     0.040 H 
ATOM     29  H   ASG d 812       6.023  43.400  82.145  0.00  0.00     0.040 H 
ATOM     30  H   ASG d 812       7.727  43.624  81.827  0.00  0.00     0.040 H 
ATOM     31  H   ASG d 812       7.204  48.135  79.735  0.00  0.00     0.212 HD
ATOM     32  H   ASG d 812       5.225  46.976  79.576  0.00  0.00     0.084 H 
ATOM     33  O3  GCT d 811       1.542  41.065  80.157  0.00  0.00    -0.390 OA
ATOM     34  C4  GCT d 811       0.808  42.427  78.311  0.00  0.00     0.103 C 
ATOM     35  C6  GCT d 811       0.089  44.695  77.300  0.00  0.00     0.206 C 
ATOM     36  O6A GCT d 811       0.450  45.838  76.891  0.00  0.00    -0.646 OA
ATOM     37  C2  GCT d 811       2.701  43.159  79.616  0.00  0.00     0.110 C 
ATOM     38  O6B GCT d 811      -1.062  44.441  77.715  0.00  0.00    -0.646 OA
ATOM     39  O2  GCT d 811       3.858  42.770  80.294  0.00  0.00    -0.388 OA
ATOM     40  C3  GCT d 811       2.002  41.916  79.119  0.00  0.00     0.092 C 
ATOM     41  C1  GCT d 811       3.234  43.912  78.403  0.00  0.00     0.160 C 
ATOM     42  O5  GCT d 811       2.433  43.924  77.233  0.00  0.00    -0.340 OA
ATOM     43  C5  GCT d 811       1.075  43.523  77.272  0.00  0.00     0.152 C 
ATOM     44  H   GCT d 811       1.106  40.291  79.770  0.00  0.00     0.210 HD
ATOM     45  H   GCT d 811       0.208  42.666  79.164  0.00  0.00     0.092 H 
ATOM     46  H   GCT d 811       2.027  43.731  80.219  0.00  0.00     0.094 H 
ATOM     47  H   GCT d 811       4.426  42.257  79.697  0.00  0.00     0.210 HD
ATOM     48  H   GCT d 811       2.687  41.322  78.551  0.00  0.00     0.091 H 
ATOM     49  H   GCT d 811       4.084  43.346  78.084  0.00  0.00     0.133 H 
ATOM     50  H   GCT d 811       0.877  43.053  76.331  0.00  0.00     0.104 H 
ATOM     51  O3  ASG d 810      -2.780  37.819  75.889  0.00  0.00    -0.348 OA
ATOM     52  C8  ASG d 810      -2.785  40.558  73.145  0.00  0.00    -0.003 C 
ATOM     53  O4  ASG d 810      -0.739  36.950  77.373  0.00  0.00    -0.246 OA
ATOM     54  C3  ASG d 810      -2.343  38.648  76.994  0.00  0.00     0.094 C 
ATOM     55  O7  ASG d 810      -0.755  39.332  73.760  0.00  0.00    -0.274 OA
ATOM     56  C6  ASG d 810      -0.226  37.858  80.166  0.00  0.00     0.043 C 
ATOM     57  O6  ASG d 810       0.502  38.852  80.871  0.00  0.00    -0.398 OA
ATOM     58  OSA ASG d 810      -1.130  34.979  78.742  0.00  0.00    -0.572 OA
ATOM     59  O1  ASG d 810       0.212  41.396  77.141  0.00  0.00    -0.348 OA
ATOM     60  S   ASG d 810      -0.857  35.315  77.352  0.00  0.00     0.252 S 
ATOM     61  C1  ASG d 810      -0.807  40.511  77.626  0.00  0.00     0.154 C 
ATOM     62  O5  ASG d 810      -0.180  39.642  78.580  0.00  0.00    -0.349 OA
ATOM     63  OSC ASG d 810       0.607  34.769  77.002  0.00  0.00    -0.572 OA
ATOM     64  OSB ASG d 810      -1.827  34.806  76.383  0.00  0.00    -0.572 OA
ATOM     65  C5  ASG d 810      -1.044  38.655  79.156  0.00  0.00     0.090 C 
ATOM     66  C4  ASG d 810      -1.695  37.780  78.067  0.00  0.00     0.114 C 
ATOM     67  C2  ASG d 810      -1.302  39.626  76.467  0.00  0.00     0.087 C 
ATOM     68  C7  ASG d 810      -1.727  40.008  74.093  0.00  0.00     0.214 C 
ATOM     69  N   ASG d 810      -1.947  40.325  75.387  0.00  0.00    -0.349 N 
ATOM     70  H   ASG d 810      -2.549  40.270  72.142  0.00  0.00     0.040 H 
ATOM     71  H   ASG d 810      -2.805  41.625  73.215  0.00  0.00     0.040 H 
ATOM     72  H   ASG d 810      -3.743  40.165  73.413  0.00  0.00     0.040 H 
ATOM     73  H   ASG d 810      -3.180  39.166  77.414  0.00  0.00     0.091 H 
ATOM     74  H   ASG d 810       0.437  37.180  79.670  0.00  0.00     0.078 H 
ATOM     75  H   ASG d 810      -0.835  37.256  80.810  0.00  0.00     0.078 H 
ATOM     76  H   ASG d 810       1.036  39.367  80.245  0.00  0.00     0.209 HD
ATOM     77  H   ASG d 810      -1.620  41.065  78.045  0.00  0.00     0.132 H 
ATOM     78  H   ASG d 810      -1.865  39.113  79.667  0.00  0.00     0.090 H 
ATOM     79  H   ASG d 810      -2.410  37.173  78.582  0.00  0.00     0.093 H 
ATOM     80  H   ASG d 810      -0.413  39.168  76.086  0.00  0.00     0.084 H 
ATOM     81  H   ASG d 810      -2.570  41.058  75.598  0.00  0.00     0.163 HD
ATOM     82  O5  GAD d 809      -4.918  37.752  76.635  0.00  0.00    -0.311 OA
ATOM     83  C5  GAD d 809      -6.331  37.804  76.454  0.00  0.00     0.147 C 
ATOM     84  O2  GAD d 809      -3.700  37.354  72.920  0.00  0.00    -0.388 OA
ATOM     85  O3  GAD d 809      -6.513  35.956  73.431  0.00  0.00    -0.389 OA
ATOM     86  O6A GAD d 809      -8.174  38.756  77.496  0.00  0.00    -0.642 OA
ATOM     87  C4  GAD d 809      -6.812  37.561  75.201  0.00  0.00    -0.034 C 
ATOM     88  C3  GAD d 809      -5.985  37.211  73.938  0.00  0.00     0.084 C 
ATOM     89  O6B GAD d 809      -6.516  37.981  78.837  0.00  0.00    -0.642 OA
ATOM     90  C6  GAD d 809      -7.078  38.173  77.690  0.00  0.00     0.233 C 
ATOM     91  C2  GAD d 809      -4.473  37.130  74.190  0.00  0.00     0.111 C 
ATOM     92  C1  GAD d 809      -4.128  38.002  75.462  0.00  0.00     0.165 C 
ATOM     93  H   GAD d 809      -4.022  36.750  72.234  0.00  0.00     0.210 HD
ATOM     94  H   GAD d 809      -7.468  36.044  73.283  0.00  0.00     0.210 HD
ATOM     95  H   GAD d 809      -7.835  37.616  75.081  0.00  0.00     0.085 H 
ATOM     96  H   GAD d 809      -6.085  37.998  73.219  0.00  0.00     0.093 H 
ATOM     97  H   GAD d 809      -4.144  36.147  74.456  0.00  0.00     0.095 H 
ATOM     98  H   GAD d 809      -4.332  38.990  75.104  0.00  0.00     0.134 H 
ENDROOT
TORSDOF 25
ENDMDL
