MODEL 1
REMARK VINA RESULT:     -12.4      0.000      0.000
REMARK  0 active torsions:
REMARK  status: ('A' for Active; 'I' for Inactive)
REMARK       I    between atoms: C2_2  and  C6_20 
REMARK       I    between atoms: C4_3  and  O9_7 
REMARK       I    between atoms: O15_4  and  C10_16 
REMARK       I    between atoms: N14_5  and  C8_30 
REMARK       I    between atoms: N14_5  and  S20_35 
REMARK       I    between atoms: S16_6  and  O11_29 
REMARK       I    between atoms: C17_8  and  O25_21 
REMARK       I    between atoms: C7_9  and  O3_34 
REMARK       I    between atoms: C1_10  and  O3_34 
REMARK       I    between atoms: C19_11  and  C27_15 
REMARK       I    between atoms: S26_13  and  O18_22 
REMARK       I    between atoms: C6_20  and  O11_29 
REMARK       I    between atoms: O18_22  and  C12_32 
REMARK       I    between atoms: O30_23  and  S20_35 
REMARK       I    between atoms: O28_24  and  S20_35 
REMARK       I    between atoms: O29_31  and  S20_35 
ROOT
ATOM      1  O33 H1S d 601      22.395  13.716  15.648  0.00  0.00    -0.572 OA
ATOM      2  C2  H1S d 601      27.853   9.062  13.723  0.00  0.00     0.091 C 
ATOM      3  C4  H1S d 601      29.552  10.787  13.160  0.00  0.00     0.083 C 
ATOM      4  O15 H1S d 601      30.419   7.994  13.296  0.00  0.00    -0.369 OA
ATOM      5  N14 H1S d 601      31.362  10.119  11.647  0.00  0.00    -0.210 NA
ATOM      6  S16 H1S d 601      24.106   9.228  13.129  0.00  0.00     0.251 S 
ATOM      7  O9  H1S d 601      29.761  12.172  12.870  0.00  0.00    -0.391 OA
ATOM      8  C17 H1S d 601      26.909  13.556  16.335  0.00  0.00     0.086 C 
ATOM      9  C7  H1S d 601      26.492  12.058  14.374  0.00  0.00     0.167 C 
ATOM     10  C1  H1S d 601      28.073  10.558  13.480  0.00  0.00     0.095 C 
ATOM     11  C19 H1S d 601      27.525  14.128  13.924  0.00  0.00     0.147 C 
ATOM     12  O21 H1S d 601      23.995  10.526  13.873  0.00  0.00    -0.572 OA
ATOM     13  S26 H1S d 601      23.695  13.250  16.236  0.00  0.00     0.252 S 
ATOM     14  O32 H1S d 601      24.002  14.055  17.464  0.00  0.00    -0.572 OA
ATOM     15  C27 H1S d 601      28.291  15.011  12.935  0.00  0.00     0.233 C 
ATOM     16  C10 H1S d 601      29.612   8.473  12.216  0.00  0.00     0.147 C 
ATOM     17  O22 H1S d 601      23.876   7.944  13.865  0.00  0.00    -0.572 OA
ATOM     18  O23 H1S d 601      23.661   9.336  11.699  0.00  0.00    -0.572 OA
ATOM     19  O35 H1S d 601      28.031  14.890  11.721  0.00  0.00    -0.642 OA
ATOM     20  C6  H1S d 601      26.379   8.801  14.045  0.00  0.00     0.067 C 
ATOM     21  O25 H1S d 601      27.858  12.756  17.049  0.00  0.00    -0.389 OA
ATOM     22  O18 H1S d 601      24.743  13.427  15.277  0.00  0.00    -0.244 OA
ATOM     23  O30 H1S d 601      31.788   8.281   9.914  0.00  0.00    -0.296 OA
ATOM     24  O28 H1S d 601      30.595  10.302   9.210  0.00  0.00    -0.296 OA
ATOM     25  O31 H1S d 601      23.587  11.800  16.599  0.00  0.00    -0.572 OA
ATOM     26  O5  H1S d 601      28.220   8.324  12.544  0.00  0.00    -0.350 OA
ATOM     27  O13 H1S d 601      26.738  13.126  13.441  0.00  0.00    -0.311 OA
ATOM     28  O34 H1S d 601      29.141  15.802  13.400  0.00  0.00    -0.642 OA
ATOM     29  O11 H1S d 601      25.526   9.166  12.955  0.00  0.00    -0.254 OA
ATOM     30  C8  H1S d 601      29.933   9.946  11.941  0.00  0.00     0.081 C 
ATOM     31  O29 H1S d 601      32.986  10.406   9.695  0.00  0.00    -0.296 OA
ATOM     32  C12 H1S d 601      25.885  12.650  15.649  0.00  0.00     0.135 C 
ATOM     33  C24 H1S d 601      27.647  14.390  15.285  0.00  0.00    -0.034 C 
ATOM     34  O3  H1S d 601      27.711  11.325  14.658  0.00  0.00    -0.348 OA
ATOM     35  S20 H1S d 601      31.687   9.767  10.088  0.00  0.00     0.156 S 
ATOM     36  H   H1S d 601      28.460   8.746  14.547  0.00  0.00     0.090 H 
ATOM     37  H   H1S d 601      30.156  10.503  13.996  0.00  0.00     0.089 H 
ATOM     38  H   H1S d 601      30.212   7.062  13.466  0.00  0.00     0.212 HD
ATOM     39  H   H1S d 601      31.904   9.498  12.249  0.00  0.00     0.140 HD
ATOM     40  H   H1S d 601      29.214  12.431  12.112  0.00  0.00     0.210 HD
ATOM     41  H   H1S d 601      26.399  14.205  17.016  0.00  0.00     0.093 H 
ATOM     42  H   H1S d 601      25.802  11.360  13.949  0.00  0.00     0.134 H 
ATOM     43  H   H1S d 601      27.459  10.879  12.665  0.00  0.00     0.091 H 
ATOM     44  H   H1S d 601      29.826   7.902  11.337  0.00  0.00     0.131 H 
ATOM     45  H   H1S d 601      26.106   9.375  14.905  0.00  0.00     0.080 H 
ATOM     46  H   H1S d 601      26.258   7.754  14.227  0.00  0.00     0.080 H 
ATOM     47  H   H1S d 601      28.317  12.170  16.428  0.00  0.00     0.210 HD
ATOM     48  H   H1S d 601      30.947   7.868  10.168  0.00  0.00     0.231 HD
ATOM     49  H   H1S d 601      29.751   9.894   9.458  0.00  0.00     0.231 HD
ATOM     50  H   H1S d 601      29.370  10.268  11.089  0.00  0.00     0.076 H 
ATOM     51  H   H1S d 601      33.698  10.064  10.259  0.00  0.00     0.231 HD
ATOM     52  H   H1S d 601      25.605  11.866  16.322  0.00  0.00     0.097 H 
ATOM     53  H   H1S d 601      28.252  15.167  15.595  0.00  0.00     0.085 H 
ENDROOT
TORSDOF 16
ENDMDL
MODEL 2
REMARK VINA RESULT:     -10.3      1.272      1.399
REMARK  0 active torsions:
REMARK  status: ('A' for Active; 'I' for Inactive)
REMARK       I    between atoms: C2_2  and  C6_20 
REMARK       I    between atoms: C4_3  and  O9_7 
REMARK       I    between atoms: O15_4  and  C10_16 
REMARK       I    between atoms: N14_5  and  C8_30 
REMARK       I    between atoms: N14_5  and  S20_35 
REMARK       I    between atoms: S16_6  and  O11_29 
REMARK       I    between atoms: C17_8  and  O25_21 
REMARK       I    between atoms: C7_9  and  O3_34 
REMARK       I    between atoms: C1_10  and  O3_34 
REMARK       I    between atoms: C19_11  and  C27_15 
REMARK       I    between atoms: S26_13  and  O18_22 
REMARK       I    between atoms: C6_20  and  O11_29 
REMARK       I    between atoms: O18_22  and  C12_32 
REMARK       I    between atoms: O30_23  and  S20_35 
REMARK       I    between atoms: O28_24  and  S20_35 
REMARK       I    between atoms: O29_31  and  S20_35 
ROOT
ATOM      1  O33 H1S d 601      23.220  15.412  16.257  0.00  0.00    -0.572 OA
ATOM      2  C2  H1S d 601      28.114  10.100  14.525  0.00  0.00     0.091 C 
ATOM      3  C4  H1S d 601      29.774  11.562  13.390  0.00  0.00     0.083 C 
ATOM      4  O15 H1S d 601      30.535   8.791  13.952  0.00  0.00    -0.369 OA
ATOM      5  N14 H1S d 601      31.297  10.491  11.795  0.00  0.00    -0.210 NA
ATOM      6  S16 H1S d 601      24.330  10.416  14.459  0.00  0.00     0.251 S 
ATOM      7  O9  H1S d 601      29.993  12.848  12.804  0.00  0.00    -0.391 OA
ATOM      8  C17 H1S d 601      27.775  15.064  16.301  0.00  0.00     0.086 C 
ATOM      9  C7  H1S d 601      26.996  13.255  14.758  0.00  0.00     0.167 C 
ATOM     10  C1  H1S d 601      28.355  11.503  13.960  0.00  0.00     0.095 C 
ATOM     11  C19 H1S d 601      28.031  15.122  13.761  0.00  0.00     0.147 C 
ATOM     12  O21 H1S d 601      24.390  11.837  14.938  0.00  0.00    -0.572 OA
ATOM     13  S26 H1S d 601      24.576  14.975  16.731  0.00  0.00     0.252 S 
ATOM     14  O32 H1S d 601      25.103  15.974  17.717  0.00  0.00    -0.572 OA
ATOM     15  C27 H1S d 601      28.669  15.745  12.516  0.00  0.00     0.233 C 
ATOM     16  C10 H1S d 601      29.590   9.112  12.926  0.00  0.00     0.147 C 
ATOM     17  O22 H1S d 601      24.165   9.315  15.461  0.00  0.00    -0.572 OA
ATOM     18  O23 H1S d 601      23.672  10.282  13.116  0.00  0.00    -0.572 OA
ATOM     19  O35 H1S d 601      28.219  15.414  11.401  0.00  0.00    -0.642 OA
ATOM     20  C6  H1S d 601      26.698  10.011  15.102  0.00  0.00     0.067 C 
ATOM     21  O25 H1S d 601      28.790  14.350  17.014  0.00  0.00    -0.389 OA
ATOM     22  O18 H1S d 601      25.467  14.891  15.614  0.00  0.00    -0.244 OA
ATOM     23  O30 H1S d 601      31.371   8.332  10.418  0.00  0.00    -0.296 OA
ATOM     24  O28 H1S d 601      30.167  10.262   9.507  0.00  0.00    -0.296 OA
ATOM     25  O31 H1S d 601      24.465  13.631  17.387  0.00  0.00    -0.572 OA
ATOM     26  O5  H1S d 601      28.261   9.127  13.475  0.00  0.00    -0.350 OA
ATOM     27  O13 H1S d 601      27.138  14.105  13.606  0.00  0.00    -0.311 OA
ATOM     28  O34 H1S d 601      29.614  16.547  12.686  0.00  0.00    -0.642 OA
ATOM     29  O11 H1S d 601      25.701  10.222  14.097  0.00  0.00    -0.254 OA
ATOM     30  C8  H1S d 601      29.925  10.479  12.320  0.00  0.00     0.081 C 
ATOM     31  O29 H1S d 601      32.607  10.286   9.610  0.00  0.00    -0.296 OA
ATOM     32  C12 H1S d 601      26.620  14.119  15.964  0.00  0.00     0.135 C 
ATOM     33  C24 H1S d 601      28.375  15.629  15.011  0.00  0.00    -0.034 C 
ATOM     34  O3  H1S d 601      28.213  12.504  15.002  0.00  0.00    -0.348 OA
ATOM     35  S20 H1S d 601      31.360   9.828  10.306  0.00  0.00     0.156 S 
ATOM     36  H   H1S d 601      28.828   9.905  15.298  0.00  0.00     0.090 H 
ATOM     37  H   H1S d 601      30.488  11.400  14.170  0.00  0.00     0.089 H 
ATOM     38  H   H1S d 601      30.318   7.925  14.332  0.00  0.00     0.212 HD
ATOM     39  H   H1S d 601      31.899   9.959  12.423  0.00  0.00     0.140 HD
ATOM     40  H   H1S d 601      29.345  12.996  12.097  0.00  0.00     0.210 HD
ATOM     41  H   H1S d 601      27.406  15.865  16.906  0.00  0.00     0.093 H 
ATOM     42  H   H1S d 601      26.220  12.539  14.584  0.00  0.00     0.134 H 
ATOM     43  H   H1S d 601      27.635  11.706  13.195  0.00  0.00     0.091 H 
ATOM     44  H   H1S d 601      29.640   8.371  12.157  0.00  0.00     0.131 H 
ATOM     45  H   H1S d 601      26.586  10.756  15.862  0.00  0.00     0.080 H 
ATOM     46  H   H1S d 601      26.564   9.029  15.504  0.00  0.00     0.080 H 
ATOM     47  H   H1S d 601      29.122  13.624  16.463  0.00  0.00     0.210 HD
ATOM     48  H   H1S d 601      30.564   8.035  10.868  0.00  0.00     0.231 HD
ATOM     49  H   H1S d 601      29.356   9.969   9.951  0.00  0.00     0.231 HD
ATOM     50  H   H1S d 601      29.250  10.673  11.513  0.00  0.00     0.076 H 
ATOM     51  H   H1S d 601      33.383  10.008  10.121  0.00  0.00     0.231 HD
ATOM     52  H   H1S d 601      26.417  13.500  16.812  0.00  0.00     0.097 H 
ATOM     53  H   H1S d 601      29.052  16.405  15.070  0.00  0.00     0.085 H 
ENDROOT
TORSDOF 16
ENDMDL
MODEL 3
REMARK VINA RESULT:      -9.3      2.927      6.656
REMARK  0 active torsions:
REMARK  status: ('A' for Active; 'I' for Inactive)
REMARK       I    between atoms: C2_2  and  C6_20 
REMARK       I    between atoms: C4_3  and  O9_7 
REMARK       I    between atoms: O15_4  and  C10_16 
REMARK       I    between atoms: N14_5  and  C8_30 
REMARK       I    between atoms: N14_5  and  S20_35 
REMARK       I    between atoms: S16_6  and  O11_29 
REMARK       I    between atoms: C17_8  and  O25_21 
REMARK       I    between atoms: C7_9  and  O3_34 
REMARK       I    between atoms: C1_10  and  O3_34 
REMARK       I    between atoms: C19_11  and  C27_15 
REMARK       I    between atoms: S26_13  and  O18_22 
REMARK       I    between atoms: C6_20  and  O11_29 
REMARK       I    between atoms: O18_22  and  C12_32 
REMARK       I    between atoms: O30_23  and  S20_35 
REMARK       I    between atoms: O28_24  and  S20_35 
REMARK       I    between atoms: O29_31  and  S20_35 
ROOT
ATOM      1  O33 H1S d 601      31.495  16.714  14.780  0.00  0.00    -0.572 OA
ATOM      2  C2  H1S d 601      25.374  12.879  16.512  0.00  0.00     0.091 C 
ATOM      3  C4  H1S d 601      26.135  10.673  15.656  0.00  0.00     0.083 C 
ATOM      4  O15 H1S d 601      23.671  10.763  17.235  0.00  0.00    -0.369 OA
ATOM      5  N14 H1S d 601      24.399   9.039  15.086  0.00  0.00    -0.210 NA
ATOM      6  S16 H1S d 601      26.092  16.304  15.034  0.00  0.00     0.251 S 
ATOM      7  O9  H1S d 601      27.096  10.005  14.835  0.00  0.00    -0.391 OA
ATOM      8  C17 H1S d 601      30.649  12.575  16.518  0.00  0.00     0.086 C 
ATOM      9  C7  H1S d 601      28.517  13.264  15.403  0.00  0.00     0.167 C 
ATOM     10  C1  H1S d 601      26.450  12.170  15.683  0.00  0.00     0.095 C 
ATOM     11  C19 H1S d 601      29.777  11.585  14.331  0.00  0.00     0.147 C 
ATOM     12  O21 H1S d 601      27.573  16.062  15.065  0.00  0.00    -0.572 OA
ATOM     13  S26 H1S d 601      31.096  15.693  15.805  0.00  0.00     0.252 S 
ATOM     14  O32 H1S d 601      32.308  15.261  16.574  0.00  0.00    -0.572 OA
ATOM     15  C27 H1S d 601      29.841  10.488  13.266  0.00  0.00     0.233 C 
ATOM     16  C10 H1S d 601      23.719  11.269  15.898  0.00  0.00     0.147 C 
ATOM     17  O22 H1S d 601      25.443  17.000  16.190  0.00  0.00    -0.572 OA
ATOM     18  O23 H1S d 601      25.572  16.554  13.648  0.00  0.00    -0.572 OA
ATOM     19  O35 H1S d 601      29.194  10.657  12.213  0.00  0.00    -0.642 OA
ATOM     20  C6  H1S d 601      25.663  14.383  16.555  0.00  0.00     0.067 C 
ATOM     21  O25 H1S d 601      30.117  12.003  17.718  0.00  0.00    -0.389 OA
ATOM     22  O18 H1S d 601      30.519  14.559  15.149  0.00  0.00    -0.244 OA
ATOM     23  O30 H1S d 601      21.901   9.064  14.520  0.00  0.00    -0.296 OA
ATOM     24  O28 H1S d 601      23.513   9.475  12.721  0.00  0.00    -0.296 OA
ATOM     25  O31 H1S d 601      30.093  16.294  16.743  0.00  0.00    -0.572 OA
ATOM     26  O5  H1S d 601      24.084  12.660  15.915  0.00  0.00    -0.350 OA
ATOM     27  O13 H1S d 601      28.884  12.602  14.179  0.00  0.00    -0.311 OA
ATOM     28  O34 H1S d 601      30.534   9.476  13.513  0.00  0.00    -0.642 OA
ATOM     29  O11 H1S d 601      25.622  14.969  15.250  0.00  0.00    -0.254 OA
ATOM     30  C8  H1S d 601      24.735  10.469  15.075  0.00  0.00     0.081 C 
ATOM     31  O29 H1S d 601      23.283   7.233  13.662  0.00  0.00    -0.296 OA
ATOM     32  C12 H1S d 601      29.789  13.766  16.091  0.00  0.00     0.135 C 
ATOM     33  C24 H1S d 601      30.647  11.513  15.416  0.00  0.00    -0.034 C 
ATOM     34  O3  H1S d 601      27.762  12.376  16.267  0.00  0.00    -0.348 OA
ATOM     35  S20 H1S d 601      23.250   8.699  13.978  0.00  0.00     0.156 S 
ATOM     36  H   H1S d 601      25.381  12.486  17.508  0.00  0.00     0.090 H 
ATOM     37  H   H1S d 601      26.175  10.273  16.648  0.00  0.00     0.089 H 
ATOM     38  H   H1S d 601      23.027  11.273  17.751  0.00  0.00     0.212 HD
ATOM     39  H   H1S d 601      24.055   8.784  16.011  0.00  0.00     0.140 HD
ATOM     40  H   H1S d 601      27.061  10.367  13.936  0.00  0.00     0.210 HD
ATOM     41  H   H1S d 601      31.650  12.911  16.692  0.00  0.00     0.093 H 
ATOM     42  H   H1S d 601      27.883  14.098  15.186  0.00  0.00     0.134 H 
ATOM     43  H   H1S d 601      26.453  12.570  14.691  0.00  0.00     0.091 H 
ATOM     44  H   H1S d 601      22.754  11.168  15.449  0.00  0.00     0.131 H 
ATOM     45  H   H1S d 601      26.635  14.537  16.973  0.00  0.00     0.080 H 
ATOM     46  H   H1S d 601      24.909  14.850  17.154  0.00  0.00     0.080 H 
ATOM     47  H   H1S d 601      29.210  11.700  17.557  0.00  0.00     0.210 HD
ATOM     48  H   H1S d 601      21.879  10.012  14.724  0.00  0.00     0.231 HD
ATOM     49  H   H1S d 601      23.494  10.425  12.918  0.00  0.00     0.231 HD
ATOM     50  H   H1S d 601      24.710  10.817  14.064  0.00  0.00     0.076 H 
ATOM     51  H   H1S d 601      23.113   6.724  14.470  0.00  0.00     0.231 HD
ATOM     52  H   H1S d 601      29.538  14.344  16.955  0.00  0.00     0.097 H 
ATOM     53  H   H1S d 601      31.309  10.723  15.478  0.00  0.00     0.085 H 
ENDROOT
TORSDOF 16
ENDMDL
MODEL 4
REMARK VINA RESULT:      -8.6      2.723      5.274
REMARK  0 active torsions:
REMARK  status: ('A' for Active; 'I' for Inactive)
REMARK       I    between atoms: C2_2  and  C6_20 
REMARK       I    between atoms: C4_3  and  O9_7 
REMARK       I    between atoms: O15_4  and  C10_16 
REMARK       I    between atoms: N14_5  and  C8_30 
REMARK       I    between atoms: N14_5  and  S20_35 
REMARK       I    between atoms: S16_6  and  O11_29 
REMARK       I    between atoms: C17_8  and  O25_21 
REMARK       I    between atoms: C7_9  and  O3_34 
REMARK       I    between atoms: C1_10  and  O3_34 
REMARK       I    between atoms: C19_11  and  C27_15 
REMARK       I    between atoms: S26_13  and  O18_22 
REMARK       I    between atoms: C6_20  and  O11_29 
REMARK       I    between atoms: O18_22  and  C12_32 
REMARK       I    between atoms: O30_23  and  S20_35 
REMARK       I    between atoms: O28_24  and  S20_35 
REMARK       I    between atoms: O29_31  and  S20_35 
ROOT
ATOM      1  O33 H1S d 601      25.799  13.842  18.109  0.00  0.00    -0.572 OA
ATOM      2  C2  H1S d 601      31.672  11.552  14.182  0.00  0.00     0.091 C 
ATOM      3  C4  H1S d 601      30.505   9.790  12.874  0.00  0.00     0.083 C 
ATOM      4  O15 H1S d 601      33.238  10.499  12.098  0.00  0.00    -0.369 OA
ATOM      5  N14 H1S d 601      31.889   7.993  11.940  0.00  0.00    -0.210 NA
ATOM      6  S16 H1S d 601      31.054  12.536  17.798  0.00  0.00     0.251 S 
ATOM      7  O9  H1S d 601      29.325   8.987  12.784  0.00  0.00    -0.391 OA
ATOM      8  C17 H1S d 601      26.515  12.619  13.766  0.00  0.00     0.086 C 
ATOM      9  C7  H1S d 601      28.431  11.643  15.045  0.00  0.00     0.167 C 
ATOM     10  C1  H1S d 601      30.375  10.747  14.060  0.00  0.00     0.095 C 
ATOM     11  C19 H1S d 601      26.795  10.133  14.274  0.00  0.00     0.147 C 
ATOM     12  O21 H1S d 601      29.594  12.769  17.538  0.00  0.00    -0.572 OA
ATOM     13  S26 H1S d 601      26.284  13.962  16.694  0.00  0.00     0.252 S 
ATOM     14  O32 H1S d 601      25.217  14.600  15.856  0.00  0.00    -0.572 OA
ATOM     15  C27 H1S d 601      26.387   8.681  14.009  0.00  0.00     0.233 C 
ATOM     16  C10 H1S d 601      32.970   9.755  13.290  0.00  0.00     0.147 C 
ATOM     17  O22 H1S d 601      32.004  13.690  17.704  0.00  0.00    -0.572 OA
ATOM     18  O23 H1S d 601      31.299  11.473  18.830  0.00  0.00    -0.572 OA
ATOM     19  O35 H1S d 601      26.816   7.802  14.784  0.00  0.00    -0.642 OA
ATOM     20  C6  H1S d 601      31.571  12.520  15.365  0.00  0.00     0.067 C 
ATOM     21  O25 H1S d 601      27.216  13.105  12.617  0.00  0.00    -0.389 OA
ATOM     22  O18 H1S d 601      26.580  12.660  16.179  0.00  0.00    -0.244 OA
ATOM     23  O30 H1S d 601      34.201   6.979  12.371  0.00  0.00    -0.296 OA
ATOM     24  O28 H1S d 601      32.307   6.186  13.707  0.00  0.00    -0.296 OA
ATOM     25  O31 H1S d 601      27.522  14.808  16.662  0.00  0.00    -0.572 OA
ATOM     26  O5  H1S d 601      32.777  10.656  14.395  0.00  0.00    -0.350 OA
ATOM     27  O13 H1S d 601      27.745  10.390  15.215  0.00  0.00    -0.311 OA
ATOM     28  O34 H1S d 601      25.651   8.454  13.023  0.00  0.00    -0.642 OA
ATOM     29  O11 H1S d 601      31.405  11.826  16.605  0.00  0.00    -0.254 OA
ATOM     30  C8  H1S d 601      31.722   8.889  13.093  0.00  0.00     0.081 C 
ATOM     31  O29 H1S d 601      32.473   5.577  11.348  0.00  0.00    -0.296 OA
ATOM     32  C12 H1S d 601      27.395  12.769  15.008  0.00  0.00     0.135 C 
ATOM     33  C24 H1S d 601      26.167  11.144  13.553  0.00  0.00    -0.034 C 
ATOM     34  O3  H1S d 601      29.244  11.631  13.844  0.00  0.00    -0.348 OA
ATOM     35  S20 H1S d 601      32.736   6.661  12.351  0.00  0.00     0.156 S 
ATOM     36  H   H1S d 601      31.828  12.107  13.280  0.00  0.00     0.090 H 
ATOM     37  H   H1S d 601      30.628  10.345  11.967  0.00  0.00     0.089 H 
ATOM     38  H   H1S d 601      34.029  11.046  12.229  0.00  0.00     0.212 HD
ATOM     39  H   H1S d 601      32.387   8.491  11.202  0.00  0.00     0.140 HD
ATOM     40  H   H1S d 601      29.213   8.484  13.605  0.00  0.00     0.210 HD
ATOM     41  H   H1S d 601      25.616  13.184  13.905  0.00  0.00     0.093 H 
ATOM     42  H   H1S d 601      29.097  11.805  15.867  0.00  0.00     0.134 H 
ATOM     43  H   H1S d 601      30.210  10.202  14.965  0.00  0.00     0.091 H 
ATOM     44  H   H1S d 601      33.803   9.119  13.503  0.00  0.00     0.131 H 
ATOM     45  H   H1S d 601      30.730  13.165  15.214  0.00  0.00     0.080 H 
ATOM     46  H   H1S d 601      32.481  13.080  15.415  0.00  0.00     0.080 H 
ATOM     47  H   H1S d 601      28.030  12.591  12.494  0.00  0.00     0.210 HD
ATOM     48  H   H1S d 601      34.372   7.680  13.019  0.00  0.00     0.231 HD
ATOM     49  H   H1S d 601      32.474   6.883  14.361  0.00  0.00     0.231 HD
ATOM     50  H   H1S d 601      31.575   8.291  13.969  0.00  0.00     0.076 H 
ATOM     51  H   H1S d 601      32.748   5.877  10.468  0.00  0.00     0.231 HD
ATOM     52  H   H1S d 601      27.885  13.720  14.977  0.00  0.00     0.097 H 
ATOM     53  H   H1S d 601      25.448  10.893  12.857  0.00  0.00     0.085 H 
ENDROOT
TORSDOF 16
ENDMDL
MODEL 5
REMARK VINA RESULT:      -8.5      2.639      5.256
REMARK  0 active torsions:
REMARK  status: ('A' for Active; 'I' for Inactive)
REMARK       I    between atoms: C2_2  and  C6_20 
REMARK       I    between atoms: C4_3  and  O9_7 
REMARK       I    between atoms: O15_4  and  C10_16 
REMARK       I    between atoms: N14_5  and  C8_30 
REMARK       I    between atoms: N14_5  and  S20_35 
REMARK       I    between atoms: S16_6  and  O11_29 
REMARK       I    between atoms: C17_8  and  O25_21 
REMARK       I    between atoms: C7_9  and  O3_34 
REMARK       I    between atoms: C1_10  and  O3_34 
REMARK       I    between atoms: C19_11  and  C27_15 
REMARK       I    between atoms: S26_13  and  O18_22 
REMARK       I    between atoms: C6_20  and  O11_29 
REMARK       I    between atoms: O18_22  and  C12_32 
REMARK       I    between atoms: O30_23  and  S20_35 
REMARK       I    between atoms: O28_24  and  S20_35 
REMARK       I    between atoms: O29_31  and  S20_35 
ROOT
ATOM      1  O33 H1S d 601      25.955  16.285  19.025  0.00  0.00    -0.572 OA
ATOM      2  C2  H1S d 601      30.136  12.754  14.003  0.00  0.00     0.091 C 
ATOM      3  C4  H1S d 601      28.401  11.154  13.222  0.00  0.00     0.083 C 
ATOM      4  O15 H1S d 601      30.905  11.317  11.713  0.00  0.00    -0.369 OA
ATOM      5  N14 H1S d 601      29.187   9.087  12.162  0.00  0.00    -0.210 NA
ATOM      6  S16 H1S d 601      30.665  14.046  17.535  0.00  0.00     0.251 S 
ATOM      7  O9  H1S d 601      27.129  10.571  13.517  0.00  0.00    -0.391 OA
ATOM      8  C17 H1S d 601      25.287  14.698  14.793  0.00  0.00     0.086 C 
ATOM      9  C7  H1S d 601      27.298  13.474  15.641  0.00  0.00     0.167 C 
ATOM     10  C1  H1S d 601      28.743  12.188  14.297  0.00  0.00     0.095 C 
ATOM     11  C19 H1S d 601      25.299  12.236  15.470  0.00  0.00     0.147 C 
ATOM     12  O21 H1S d 601      29.244  14.520  17.629  0.00  0.00    -0.572 OA
ATOM     13  S26 H1S d 601      26.059  16.233  17.529  0.00  0.00     0.252 S 
ATOM     14  O32 H1S d 601      24.921  17.000  16.924  0.00  0.00    -0.572 OA
ATOM     15  C27 H1S d 601      24.613  10.868  15.469  0.00  0.00     0.233 C 
ATOM     16  C10 H1S d 601      30.851  10.704  13.005  0.00  0.00     0.147 C 
ATOM     17  O22 H1S d 601      31.725  15.004  17.085  0.00  0.00    -0.572 OA
ATOM     18  O23 H1S d 601      31.007  13.020  18.577  0.00  0.00    -0.572 OA
ATOM     19  O35 H1S d 601      25.090   9.974  16.198  0.00  0.00    -0.642 OA
ATOM     20  C6  H1S d 601      30.506  13.793  15.066  0.00  0.00     0.067 C 
ATOM     21  O25 H1S d 601      25.725  14.982  13.460  0.00  0.00    -0.389 OA
ATOM     22  O18 H1S d 601      25.999  14.870  17.094  0.00  0.00    -0.244 OA
ATOM     23  O30 H1S d 601      31.341   7.703  12.098  0.00  0.00    -0.296 OA
ATOM     24  O28 H1S d 601      29.772   7.343  13.945  0.00  0.00    -0.296 OA
ATOM     25  O31 H1S d 601      27.360  16.841  17.097  0.00  0.00    -0.572 OA
ATOM     26  O5  H1S d 601      31.102  11.689  14.022  0.00  0.00    -0.350 OA
ATOM     27  O13 H1S d 601      26.494  12.375  16.109  0.00  0.00    -0.311 OA
ATOM     28  O34 H1S d 601      23.615  10.718  14.730  0.00  0.00    -0.642 OA
ATOM     29  O11 H1S d 601      30.570  13.215  16.373  0.00  0.00    -0.254 OA
ATOM     30  C8  H1S d 601      29.475  10.065  13.220  0.00  0.00     0.081 C 
ATOM     31  O29 H1S d 601      29.205   6.574  11.697  0.00  0.00    -0.296 OA
ATOM     32  C12 H1S d 601      26.479  14.762  15.750  0.00  0.00     0.135 C 
ATOM     33  C24 H1S d 601      24.669  13.299  14.830  0.00  0.00    -0.034 C 
ATOM     34  O3  H1S d 601      27.749  13.245  14.282  0.00  0.00    -0.348 OA
ATOM     35  S20 H1S d 601      29.893   7.652  12.482  0.00  0.00     0.156 S 
ATOM     36  H   H1S d 601      30.130  13.217  13.038  0.00  0.00     0.090 H 
ATOM     37  H   H1S d 601      28.363  11.623  12.261  0.00  0.00     0.089 H 
ATOM     38  H   H1S d 601      31.778  11.720  11.582  0.00  0.00     0.212 HD
ATOM     39  H   H1S d 601      29.542   9.443  11.274  0.00  0.00     0.140 HD
ATOM     40  H   H1S d 601      27.162  10.145  14.388  0.00  0.00     0.210 HD
ATOM     41  H   H1S d 601      24.558  15.422  15.095  0.00  0.00     0.093 H 
ATOM     42  H   H1S d 601      28.175  13.563  16.248  0.00  0.00     0.134 H 
ATOM     43  H   H1S d 601      28.742  11.735  15.266  0.00  0.00     0.091 H 
ATOM     44  H   H1S d 601      31.600   9.943  13.065  0.00  0.00     0.131 H 
ATOM     45  H   H1S d 601      29.768  14.567  15.066  0.00  0.00     0.080 H 
ATOM     46  H   H1S d 601      31.473  14.184  14.826  0.00  0.00     0.080 H 
ATOM     47  H   H1S d 601      26.385  14.324  13.190  0.00  0.00     0.210 HD
ATOM     48  H   H1S d 601      31.786   8.400  12.607  0.00  0.00     0.231 HD
ATOM     49  H   H1S d 601      30.214   8.036  14.459  0.00  0.00     0.231 HD
ATOM     50  H   H1S d 601      29.476   9.556  14.162  0.00  0.00     0.076 H 
ATOM     51  H   H1S d 601      29.280   6.767  10.749  0.00  0.00     0.231 HD
ATOM     52  H   H1S d 601      27.085  15.607  15.497  0.00  0.00     0.097 H 
ATOM     53  H   H1S d 601      23.760  13.139  14.367  0.00  0.00     0.085 H 
ENDROOT
TORSDOF 16
ENDMDL
MODEL 6
REMARK VINA RESULT:      -8.1      2.732      8.011
REMARK  0 active torsions:
REMARK  status: ('A' for Active; 'I' for Inactive)
REMARK       I    between atoms: C2_2  and  C6_20 
REMARK       I    between atoms: C4_3  and  O9_7 
REMARK       I    between atoms: O15_4  and  C10_16 
REMARK       I    between atoms: N14_5  and  C8_30 
REMARK       I    between atoms: N14_5  and  S20_35 
REMARK       I    between atoms: S16_6  and  O11_29 
REMARK       I    between atoms: C17_8  and  O25_21 
REMARK       I    between atoms: C7_9  and  O3_34 
REMARK       I    between atoms: C1_10  and  O3_34 
REMARK       I    between atoms: C19_11  and  C27_15 
REMARK       I    between atoms: S26_13  and  O18_22 
REMARK       I    between atoms: C6_20  and  O11_29 
REMARK       I    between atoms: O18_22  and  C12_32 
REMARK       I    between atoms: O30_23  and  S20_35 
REMARK       I    between atoms: O28_24  and  S20_35 
REMARK       I    between atoms: O29_31  and  S20_35 
ROOT
ATOM      1  O33 H1S d 601      31.985  11.002  11.427  0.00  0.00    -0.572 OA
ATOM      2  C2  H1S d 601      27.414  13.979  16.467  0.00  0.00     0.091 C 
ATOM      3  C4  H1S d 601      25.781  12.106  16.553  0.00  0.00     0.083 C 
ATOM      4  O15 H1S d 601      25.552  14.227  18.558  0.00  0.00    -0.369 OA
ATOM      5  N14 H1S d 601      23.523  12.631  17.351  0.00  0.00    -0.210 NA
ATOM      6  S16 H1S d 601      29.296  15.266  13.429  0.00  0.00     0.251 S 
ATOM      7  O9  H1S d 601      25.322  10.923  15.894  0.00  0.00    -0.391 OA
ATOM      8  C17 H1S d 601      29.693   9.428  15.052  0.00  0.00     0.086 C 
ATOM      9  C7  H1S d 601      28.549  11.565  14.432  0.00  0.00     0.167 C 
ATOM     10  C1  H1S d 601      26.975  12.678  15.786  0.00  0.00     0.095 C 
ATOM     11  C19 H1S d 601      27.396   9.568  13.945  0.00  0.00     0.147 C 
ATOM     12  O21 H1S d 601      29.845  13.901  13.129  0.00  0.00    -0.572 OA
ATOM     13  S26 H1S d 601      31.658  10.781  12.875  0.00  0.00     0.252 S 
ATOM     14  O32 H1S d 601      32.356   9.545  13.358  0.00  0.00    -0.572 OA
ATOM     15  C27 H1S d 601      26.083   8.889  13.547  0.00  0.00     0.233 C 
ATOM     16  C10 H1S d 601      25.186  14.448  17.193  0.00  0.00     0.147 C 
ATOM     17  O22 H1S d 601      30.106  16.210  14.263  0.00  0.00    -0.572 OA
ATOM     18  O23 H1S d 601      28.460  15.816  12.310  0.00  0.00    -0.572 OA
ATOM     19  O35 H1S d 601      25.315   9.505  12.781  0.00  0.00    -0.642 OA
ATOM     20  C6  H1S d 601      28.609  14.576  15.719  0.00  0.00     0.067 C 
ATOM     21  O25 H1S d 601      29.710   9.570  16.476  0.00  0.00    -0.389 OA
ATOM     22  O18 H1S d 601      30.244  10.619  13.025  0.00  0.00    -0.244 OA
ATOM     23  O30 H1S d 601      22.051  14.711  17.606  0.00  0.00    -0.296 OA
ATOM     24  O28 H1S d 601      22.104  13.574  15.437  0.00  0.00    -0.296 OA
ATOM     25  O31 H1S d 601      32.117  11.962  13.676  0.00  0.00    -0.572 OA
ATOM     26  O5  H1S d 601      26.326  14.919  16.453  0.00  0.00    -0.350 OA
ATOM     27  O13 H1S d 601      27.592  10.874  13.609  0.00  0.00    -0.311 OA
ATOM     28  O34 H1S d 601      25.849   7.753  14.018  0.00  0.00    -0.642 OA
ATOM     29  O11 H1S d 601      28.274  14.917  14.369  0.00  0.00    -0.254 OA
ATOM     30  C8  H1S d 601      24.661  13.147  16.577  0.00  0.00     0.081 C 
ATOM     31  O29 H1S d 601      20.969  12.531  17.332  0.00  0.00    -0.296 OA
ATOM     32  C12 H1S d 601      29.873  10.798  14.396  0.00  0.00     0.135 C 
ATOM     33  C24 H1S d 601      28.354   8.822  14.625  0.00  0.00    -0.034 C 
ATOM     34  O3  H1S d 601      28.057  11.711  15.789  0.00  0.00    -0.348 OA
ATOM     35  S20 H1S d 601      22.137  13.379  16.924  0.00  0.00     0.156 S 
ATOM     36  H   H1S d 601      27.695  13.769  17.478  0.00  0.00     0.090 H 
ATOM     37  H   H1S d 601      26.071  11.865  17.555  0.00  0.00     0.089 H 
ATOM     38  H   H1S d 601      25.883  15.054  18.942  0.00  0.00     0.212 HD
ATOM     39  H   H1S d 601      23.695  12.788  18.343  0.00  0.00     0.140 HD
ATOM     40  H   H1S d 601      25.059  11.140  14.986  0.00  0.00     0.210 HD
ATOM     41  H   H1S d 601      30.492   8.786  14.744  0.00  0.00     0.093 H 
ATOM     42  H   H1S d 601      28.705  12.553  14.051  0.00  0.00     0.134 H 
ATOM     43  H   H1S d 601      26.706  12.883  14.771  0.00  0.00     0.091 H 
ATOM     44  H   H1S d 601      24.414  15.188  17.151  0.00  0.00     0.131 H 
ATOM     45  H   H1S d 601      29.404  13.861  15.708  0.00  0.00     0.080 H 
ATOM     46  H   H1S d 601      28.904  15.472  16.225  0.00  0.00     0.080 H 
ATOM     47  H   H1S d 601      28.985  10.152  16.751  0.00  0.00     0.210 HD
ATOM     48  H   H1S d 601      22.806  15.260  17.342  0.00  0.00     0.231 HD
ATOM     49  H   H1S d 601      22.857  14.121  15.166  0.00  0.00     0.231 HD
ATOM     50  H   H1S d 601      24.331  13.346  15.579  0.00  0.00     0.076 H 
ATOM     51  H   H1S d 601      20.984  12.401  18.293  0.00  0.00     0.231 HD
ATOM     52  H   H1S d 601      30.629  11.342  14.923  0.00  0.00     0.097 H 
ATOM     53  H   H1S d 601      28.156   7.833  14.848  0.00  0.00     0.085 H 
ENDROOT
TORSDOF 16
ENDMDL
MODEL 7
REMARK VINA RESULT:      -7.7      2.939      8.215
REMARK  0 active torsions:
REMARK  status: ('A' for Active; 'I' for Inactive)
REMARK       I    between atoms: C2_2  and  C6_20 
REMARK       I    between atoms: C4_3  and  O9_7 
REMARK       I    between atoms: O15_4  and  C10_16 
REMARK       I    between atoms: N14_5  and  C8_30 
REMARK       I    between atoms: N14_5  and  S20_35 
REMARK       I    between atoms: S16_6  and  O11_29 
REMARK       I    between atoms: C17_8  and  O25_21 
REMARK       I    between atoms: C7_9  and  O3_34 
REMARK       I    between atoms: C1_10  and  O3_34 
REMARK       I    between atoms: C19_11  and  C27_15 
REMARK       I    between atoms: S26_13  and  O18_22 
REMARK       I    between atoms: C6_20  and  O11_29 
REMARK       I    between atoms: O18_22  and  C12_32 
REMARK       I    between atoms: O30_23  and  S20_35 
REMARK       I    between atoms: O28_24  and  S20_35 
REMARK       I    between atoms: O29_31  and  S20_35 
ROOT
ATOM      1  O33 H1S d 601      30.426  10.867  10.887  0.00  0.00    -0.572 OA
ATOM      2  C2  H1S d 601      27.042  15.405  15.695  0.00  0.00     0.091 C 
ATOM      3  C4  H1S d 601      25.302  13.804  16.465  0.00  0.00     0.083 C 
ATOM      4  O15 H1S d 601      25.592  16.328  17.920  0.00  0.00    -0.369 OA
ATOM      5  N14 H1S d 601      23.264  14.755  17.440  0.00  0.00    -0.210 NA
ATOM      6  S16 H1S d 601      28.473  15.755  12.195  0.00  0.00     0.251 S 
ATOM      7  O9  H1S d 601      24.643  12.567  16.181  0.00  0.00    -0.391 OA
ATOM      8  C17 H1S d 601      28.670  10.416  15.081  0.00  0.00     0.086 C 
ATOM      9  C7  H1S d 601      27.613  12.483  14.147  0.00  0.00     0.167 C 
ATOM     10  C1  H1S d 601      26.390  14.047  15.416  0.00  0.00     0.095 C 
ATOM     11  C19 H1S d 601      26.236  10.579  14.325  0.00  0.00     0.147 C 
ATOM     12  O21 H1S d 601      28.850  14.303  12.149  0.00  0.00    -0.572 OA
ATOM     13  S26 H1S d 601      30.335  11.012  12.378  0.00  0.00     0.252 S 
ATOM     14  O32 H1S d 601      31.004   9.840  13.033  0.00  0.00    -0.572 OA
ATOM     15  C27 H1S d 601      24.824   9.988  14.299  0.00  0.00     0.233 C 
ATOM     16  C10 H1S d 601      25.016  16.283  16.611  0.00  0.00     0.147 C 
ATOM     17  O22 H1S d 601      29.488  16.758  12.651  0.00  0.00    -0.572 OA
ATOM     18  O23 H1S d 601      27.505  16.139  11.114  0.00  0.00    -0.572 OA
ATOM     19  O35 H1S d 601      23.988  10.506  13.531  0.00  0.00    -0.642 OA
ATOM     20  C6  H1S d 601      28.135  15.676  14.658  0.00  0.00     0.067 C 
ATOM     21  O25 H1S d 601      28.942  10.867  16.411  0.00  0.00    -0.389 OA
ATOM     22  O18 H1S d 601      28.960  11.056  12.771  0.00  0.00    -0.244 OA
ATOM     23  O30 H1S d 601      22.030  17.000  17.409  0.00  0.00    -0.296 OA
ATOM     24  O28 H1S d 601      21.619  15.412  15.589  0.00  0.00    -0.296 OA
ATOM     25  O31 H1S d 601      31.018  12.279  12.799  0.00  0.00    -0.572 OA
ATOM     26  O5  H1S d 601      26.047  16.441  15.620  0.00  0.00    -0.350 OA
ATOM     27  O13 H1S d 601      26.476  11.745  13.664  0.00  0.00    -0.311 OA
ATOM     28  O34 H1S d 601      24.583   9.021  15.056  0.00  0.00    -0.642 OA
ATOM     29  O11 H1S d 601      27.602  15.747  13.331  0.00  0.00    -0.254 OA
ATOM     30  C8  H1S d 601      24.290  14.949  16.407  0.00  0.00     0.081 C 
ATOM     31  O29 H1S d 601      20.745  14.957  17.824  0.00  0.00    -0.296 OA
ATOM     32  C12 H1S d 601      28.845  11.576  14.099  0.00  0.00     0.135 C 
ATOM     33  C24 H1S d 601      27.233   9.894  15.014  0.00  0.00    -0.034 C 
ATOM     34  O3  H1S d 601      27.375  12.984  15.488  0.00  0.00    -0.348 OA
ATOM     35  S20 H1S d 601      21.891  15.549  17.058  0.00  0.00     0.156 S 
ATOM     36  H   H1S d 601      27.474  15.392  16.675  0.00  0.00     0.090 H 
ATOM     37  H   H1S d 601      25.739  13.758  17.441  0.00  0.00     0.089 H 
ATOM     38  H   H1S d 601      26.050  17.174  18.043  0.00  0.00     0.212 HD
ATOM     39  H   H1S d 601      23.616  15.107  18.330  0.00  0.00     0.140 HD
ATOM     40  H   H1S d 601      24.247  12.607  15.297  0.00  0.00     0.210 HD
ATOM     41  H   H1S d 601      29.350   9.633  14.819  0.00  0.00     0.093 H 
ATOM     42  H   H1S d 601      27.781  13.337  13.524  0.00  0.00     0.134 H 
ATOM     43  H   H1S d 601      25.968  14.052  14.433  0.00  0.00     0.091 H 
ATOM     44  H   H1S d 601      24.311  17.081  16.509  0.00  0.00     0.131 H 
ATOM     45  H   H1S d 601      28.856  14.887  14.700  0.00  0.00     0.080 H 
ATOM     46  H   H1S d 601      28.584  16.620  14.887  0.00  0.00     0.080 H 
ATOM     47  H   H1S d 601      28.324  11.577  16.645  0.00  0.00     0.210 HD
ATOM     48  H   H1S d 601      22.771  17.383  16.914  0.00  0.00     0.231 HD
ATOM     49  H   H1S d 601      22.356  15.793  15.087  0.00  0.00     0.231 HD
ATOM     50  H   H1S d 601      23.812  14.960  15.450  0.00  0.00     0.076 H 
ATOM     51  H   H1S d 601      20.914  15.042  18.776  0.00  0.00     0.231 HD
ATOM     52  H   H1S d 601      29.721  12.130  14.364  0.00  0.00     0.097 H 
ATOM     53  H   H1S d 601      26.997   9.010  15.492  0.00  0.00     0.085 H 
ENDROOT
TORSDOF 16
ENDMDL
MODEL 8
REMARK VINA RESULT:      -7.6      2.633      8.012
REMARK  0 active torsions:
REMARK  status: ('A' for Active; 'I' for Inactive)
REMARK       I    between atoms: C2_2  and  C6_20 
REMARK       I    between atoms: C4_3  and  O9_7 
REMARK       I    between atoms: O15_4  and  C10_16 
REMARK       I    between atoms: N14_5  and  C8_30 
REMARK       I    between atoms: N14_5  and  S20_35 
REMARK       I    between atoms: S16_6  and  O11_29 
REMARK       I    between atoms: C17_8  and  O25_21 
REMARK       I    between atoms: C7_9  and  O3_34 
REMARK       I    between atoms: C1_10  and  O3_34 
REMARK       I    between atoms: C19_11  and  C27_15 
REMARK       I    between atoms: S26_13  and  O18_22 
REMARK       I    between atoms: C6_20  and  O11_29 
REMARK       I    between atoms: O18_22  and  C12_32 
REMARK       I    between atoms: O30_23  and  S20_35 
REMARK       I    between atoms: O28_24  and  S20_35 
REMARK       I    between atoms: O29_31  and  S20_35 
ROOT
ATOM      1  O33 H1S d 601      30.369   9.555  10.778  0.00  0.00    -0.572 OA
ATOM      2  C2  H1S d 601      27.130  13.203  16.378  0.00  0.00     0.091 C 
ATOM      3  C4  H1S d 601      24.995  11.931  16.387  0.00  0.00     0.083 C 
ATOM      4  O15 H1S d 601      25.509  13.775  18.602  0.00  0.00    -0.369 OA
ATOM      5  N14 H1S d 601      23.043  13.034  17.380  0.00  0.00    -0.210 NA
ATOM      6  S16 H1S d 601      29.224  14.183  13.364  0.00  0.00     0.251 S 
ATOM      7  O9  H1S d 601      24.166  11.032  15.646  0.00  0.00    -0.391 OA
ATOM      8  C17 H1S d 601      27.815   8.363  14.374  0.00  0.00     0.086 C 
ATOM      9  C7  H1S d 601      27.383  10.806  14.045  0.00  0.00     0.167 C 
ATOM     10  C1  H1S d 601      26.283  12.189  15.603  0.00  0.00     0.095 C 
ATOM     11  C19 H1S d 601      25.645   9.333  13.441  0.00  0.00     0.147 C 
ATOM     12  O21 H1S d 601      29.305  12.759  12.895  0.00  0.00    -0.572 OA
ATOM     13  S26 H1S d 601      30.036   9.281  12.215  0.00  0.00     0.252 S 
ATOM     14  O32 H1S d 601      30.324   7.843  12.528  0.00  0.00    -0.572 OA
ATOM     15  C27 H1S d 601      24.173   9.144  13.065  0.00  0.00     0.233 C 
ATOM     16  C10 H1S d 601      25.188  14.253  17.292  0.00  0.00     0.147 C 
ATOM     17  O22 H1S d 601      30.317  14.728  14.231  0.00  0.00    -0.572 OA
ATOM     18  O23 H1S d 601      28.568  15.089  12.363  0.00  0.00    -0.572 OA
ATOM     19  O35 H1S d 601      23.613  10.050  12.416  0.00  0.00    -0.642 OA
ATOM     20  C6  H1S d 601      28.428  13.483  15.615  0.00  0.00     0.067 C 
ATOM     21  O25 H1S d 601      27.921   8.330  15.800  0.00  0.00    -0.389 OA
ATOM     22  O18 H1S d 601      28.648   9.549  12.443  0.00  0.00    -0.244 OA
ATOM     23  O30 H1S d 601      22.310  15.424  17.936  0.00  0.00    -0.296 OA
ATOM     24  O28 H1S d 601      21.933  14.582  15.666  0.00  0.00    -0.296 OA
ATOM     25  O31 H1S d 601      30.868  10.164  13.097  0.00  0.00    -0.572 OA
ATOM     26  O5  H1S d 601      26.394  14.430  16.529  0.00  0.00    -0.350 OA
ATOM     27  O13 H1S d 601      26.231  10.543  13.223  0.00  0.00    -0.311 OA
ATOM     28  O34 H1S d 601      23.609   8.090  13.436  0.00  0.00    -0.642 OA
ATOM     29  O11 H1S d 601      28.174  14.062  14.331  0.00  0.00    -0.254 OA
ATOM     30  C8  H1S d 601      24.260  13.257  16.588  0.00  0.00     0.081 C 
ATOM     31  O29 H1S d 601      20.589  13.732  17.520  0.00  0.00    -0.296 OA
ATOM     32  C12 H1S d 601      28.396   9.676  13.845  0.00  0.00     0.135 C 
ATOM     33  C24 H1S d 601      26.340   8.255  13.979  0.00  0.00    -0.034 C 
ATOM     34  O3  H1S d 601      27.006  10.941  15.439  0.00  0.00    -0.348 OA
ATOM     35  S20 H1S d 601      21.951  14.217  17.121  0.00  0.00     0.156 S 
ATOM     36  H   H1S d 601      27.363  12.803  17.343  0.00  0.00     0.090 H 
ATOM     37  H   H1S d 601      25.226  11.499  17.339  0.00  0.00     0.089 H 
ATOM     38  H   H1S d 601      26.096  14.409  19.043  0.00  0.00     0.212 HD
ATOM     39  H   H1S d 601      23.288  13.016  18.370  0.00  0.00     0.140 HD
ATOM     40  H   H1S d 601      23.956  11.422  14.783  0.00  0.00     0.210 HD
ATOM     41  H   H1S d 601      28.361   7.546  13.952  0.00  0.00     0.093 H 
ATOM     42  H   H1S d 601      27.830  11.734  13.753  0.00  0.00     0.134 H 
ATOM     43  H   H1S d 601      26.060  12.582  14.633  0.00  0.00     0.091 H 
ATOM     44  H   H1S d 601      24.687  15.194  17.374  0.00  0.00     0.131 H 
ATOM     45  H   H1S d 601      28.957  12.563  15.481  0.00  0.00     0.080 H 
ATOM     46  H   H1S d 601      29.007  14.179  16.186  0.00  0.00     0.080 H 
ATOM     47  H   H1S d 601      27.425   9.072  16.179  0.00  0.00     0.210 HD
ATOM     48  H   H1S d 601      23.191  15.739  17.678  0.00  0.00     0.231 HD
ATOM     49  H   H1S d 601      22.810  14.896  15.401  0.00  0.00     0.231 HD
ATOM     50  H   H1S d 601      23.979  13.662  15.638  0.00  0.00     0.076 H 
ATOM     51  H   H1S d 601      20.592  13.495  18.461  0.00  0.00     0.231 HD
ATOM     52  H   H1S d 601      29.301   9.895  14.373  0.00  0.00     0.097 H 
ATOM     53  H   H1S d 601      25.848   7.357  14.116  0.00  0.00     0.085 H 
ENDROOT
TORSDOF 16
ENDMDL
MODEL 9
REMARK VINA RESULT:      -7.3      2.894      7.373
REMARK  0 active torsions:
REMARK  status: ('A' for Active; 'I' for Inactive)
REMARK       I    between atoms: C2_2  and  C6_20 
REMARK       I    between atoms: C4_3  and  O9_7 
REMARK       I    between atoms: O15_4  and  C10_16 
REMARK       I    between atoms: N14_5  and  C8_30 
REMARK       I    between atoms: N14_5  and  S20_35 
REMARK       I    between atoms: S16_6  and  O11_29 
REMARK       I    between atoms: C17_8  and  O25_21 
REMARK       I    between atoms: C7_9  and  O3_34 
REMARK       I    between atoms: C1_10  and  O3_34 
REMARK       I    between atoms: C19_11  and  C27_15 
REMARK       I    between atoms: S26_13  and  O18_22 
REMARK       I    between atoms: C6_20  and  O11_29 
REMARK       I    between atoms: O18_22  and  C12_32 
REMARK       I    between atoms: O30_23  and  S20_35 
REMARK       I    between atoms: O28_24  and  S20_35 
REMARK       I    between atoms: O29_31  and  S20_35 
ROOT
ATOM      1  O33 H1S d 601      32.034   8.542  13.856  0.00  0.00    -0.572 OA
ATOM      2  C2  H1S d 601      25.686  12.336  14.554  0.00  0.00     0.091 C 
ATOM      3  C4  H1S d 601      26.560  14.139  16.025  0.00  0.00     0.083 C 
ATOM      4  O15 H1S d 601      23.874  14.455  14.905  0.00  0.00    -0.369 OA
ATOM      5  N14 H1S d 601      24.927  15.347  17.398  0.00  0.00    -0.210 NA
ATOM      6  S16 H1S d 601      26.659   8.664  14.572  0.00  0.00     0.251 S 
ATOM      7  O9  H1S d 601      27.637  14.533  16.880  0.00  0.00    -0.391 OA
ATOM      8  C17 H1S d 601      30.888  12.965  13.875  0.00  0.00     0.086 C 
ATOM      9  C7  H1S d 601      28.970  11.787  14.969  0.00  0.00     0.167 C 
ATOM     10  C1  H1S d 601      26.877  12.772  15.413  0.00  0.00     0.095 C 
ATOM     11  C19 H1S d 601      30.375  13.054  16.375  0.00  0.00     0.147 C 
ATOM     12  O21 H1S d 601      28.113   8.997  14.411  0.00  0.00    -0.572 OA
ATOM     13  S26 H1S d 601      31.467   9.833  13.340  0.00  0.00     0.252 S 
ATOM     14  O32 H1S d 601      32.536  10.587  12.608  0.00  0.00    -0.572 OA
ATOM     15  C27 H1S d 601      30.602  13.703  17.743  0.00  0.00     0.233 C 
ATOM     16  C10 H1S d 601      24.141  13.512  15.947  0.00  0.00     0.147 C 
ATOM     17  O22 H1S d 601      25.836   8.383  13.353  0.00  0.00    -0.572 OA
ATOM     18  O23 H1S d 601      26.372   7.904  15.835  0.00  0.00    -0.572 OA
ATOM     19  O35 H1S d 601      30.136  13.129  18.747  0.00  0.00    -0.642 OA
ATOM     20  C6  H1S d 601      25.975  10.968  13.929  0.00  0.00     0.067 C 
ATOM     21  O25 H1S d 601      30.165  13.889  13.056  0.00  0.00    -0.389 OA
ATOM     22  O18 H1S d 601      30.996  10.620  14.439  0.00  0.00    -0.244 OA
ATOM     23  O30 H1S d 601      22.554  14.960  18.281  0.00  0.00    -0.296 OA
ATOM     24  O28 H1S d 601      24.439  14.043  19.549  0.00  0.00    -0.296 OA
ATOM     25  O31 H1S d 601      30.329   9.540  12.408  0.00  0.00    -0.572 OA
ATOM     26  O5  H1S d 601      24.508  12.244  15.374  0.00  0.00    -0.350 OA
ATOM     27  O13 H1S d 601      29.526  11.993  16.281  0.00  0.00    -0.311 OA
ATOM     28  O34 H1S d 601      31.239  14.780  17.778  0.00  0.00    -0.642 OA
ATOM     29  O11 H1S d 601      26.150   9.955  14.925  0.00  0.00    -0.254 OA
ATOM     30  C8  H1S d 601      25.271  14.031  16.842  0.00  0.00     0.081 C 
ATOM     31  O29 H1S d 601      24.044  16.453  19.526  0.00  0.00    -0.296 OA
ATOM     32  C12 H1S d 601      30.118  11.646  13.966  0.00  0.00     0.135 C 
ATOM     33  C24 H1S d 601      31.057  13.563  15.274  0.00  0.00    -0.034 C 
ATOM     34  O3  H1S d 601      28.079  12.873  14.607  0.00  0.00    -0.348 OA
ATOM     35  S20 H1S d 601      23.971  15.196  18.711  0.00  0.00     0.156 S 
ATOM     36  H   H1S d 601      25.529  13.056  13.778  0.00  0.00     0.090 H 
ATOM     37  H   H1S d 601      26.436  14.867  15.251  0.00  0.00     0.089 H 
ATOM     38  H   H1S d 601      23.158  14.121  14.342  0.00  0.00     0.212 HD
ATOM     39  H   H1S d 601      24.436  15.891  16.689  0.00  0.00     0.140 HD
ATOM     40  H   H1S d 601      27.750  13.874  17.582  0.00  0.00     0.210 HD
ATOM     41  H   H1S d 601      31.850  12.778  13.445  0.00  0.00     0.093 H 
ATOM     42  H   H1S d 601      28.386  10.891  14.962  0.00  0.00     0.134 H 
ATOM     43  H   H1S d 601      27.044  12.047  16.182  0.00  0.00     0.091 H 
ATOM     44  H   H1S d 601      23.261  13.383  16.540  0.00  0.00     0.131 H 
ATOM     45  H   H1S d 601      26.868  11.035  13.344  0.00  0.00     0.080 H 
ATOM     46  H   H1S d 601      25.137  10.696  13.321  0.00  0.00     0.080 H 
ATOM     47  H   H1S d 601      29.294  14.056  13.448  0.00  0.00     0.210 HD
ATOM     48  H   H1S d 601      22.506  14.147  17.754  0.00  0.00     0.231 HD
ATOM     49  H   H1S d 601      24.395  13.226  19.028  0.00  0.00     0.231 HD
ATOM     50  H   H1S d 601      25.412  13.346  17.651  0.00  0.00     0.076 H 
ATOM     51  H   H1S d 601      23.742  17.203  18.991  0.00  0.00     0.231 HD
ATOM     52  H   H1S d 601      29.734  11.398  12.999  0.00  0.00     0.097 H 
ATOM     53  H   H1S d 601      31.695  14.365  15.403  0.00  0.00     0.085 H 
ENDROOT
TORSDOF 16
ENDMDL
MODEL 10
REMARK VINA RESULT:      -7.3      2.938      7.109
REMARK  0 active torsions:
REMARK  status: ('A' for Active; 'I' for Inactive)
REMARK       I    between atoms: C2_2  and  C6_20 
REMARK       I    between atoms: C4_3  and  O9_7 
REMARK       I    between atoms: O15_4  and  C10_16 
REMARK       I    between atoms: N14_5  and  C8_30 
REMARK       I    between atoms: N14_5  and  S20_35 
REMARK       I    between atoms: S16_6  and  O11_29 
REMARK       I    between atoms: C17_8  and  O25_21 
REMARK       I    between atoms: C7_9  and  O3_34 
REMARK       I    between atoms: C1_10  and  O3_34 
REMARK       I    between atoms: C19_11  and  C27_15 
REMARK       I    between atoms: S26_13  and  O18_22 
REMARK       I    between atoms: C6_20  and  O11_29 
REMARK       I    between atoms: O18_22  and  C12_32 
REMARK       I    between atoms: O30_23  and  S20_35 
REMARK       I    between atoms: O28_24  and  S20_35 
REMARK       I    between atoms: O29_31  and  S20_35 
ROOT
ATOM      1  O33 H1S d 601      30.659   5.000  13.004  0.00  0.00    -0.572 OA
ATOM      2  C2  H1S d 601      27.631  11.760  13.555  0.00  0.00     0.091 C 
ATOM      3  C4  H1S d 601      29.735  13.010  13.991  0.00  0.00     0.083 C 
ATOM      4  O15 H1S d 601      27.304  14.550  13.450  0.00  0.00    -0.369 OA
ATOM      5  N14 H1S d 601      29.530  15.180  15.114  0.00  0.00    -0.210 NA
ATOM      6  S16 H1S d 601      26.717   8.280  14.770  0.00  0.00     0.251 S 
ATOM      7  O9  H1S d 601      31.108  12.892  14.371  0.00  0.00    -0.391 OA
ATOM      8  C17 H1S d 601      31.797   9.186  11.571  0.00  0.00     0.086 C 
ATOM      9  C7  H1S d 601      30.154   9.553  13.423  0.00  0.00     0.167 C 
ATOM     10  C1  H1S d 601      29.117  11.613  13.898  0.00  0.00     0.095 C 
ATOM     11  C19 H1S d 601      32.408  10.061  13.891  0.00  0.00     0.147 C 
ATOM     12  O21 H1S d 601      27.965   7.691  14.181  0.00  0.00    -0.572 OA
ATOM     13  S26 H1S d 601      30.602   6.246  12.169  0.00  0.00     0.252 S 
ATOM     14  O32 H1S d 601      31.515   6.095  10.989  0.00  0.00    -0.572 OA
ATOM     15  C27 H1S d 601      33.423  10.732  14.819  0.00  0.00     0.233 C 
ATOM     16  C10 H1S d 601      27.489  13.858  14.688  0.00  0.00     0.147 C 
ATOM     17  O22 H1S d 601      25.455   8.269  13.964  0.00  0.00    -0.572 OA
ATOM     18  O23 H1S d 601      26.631   8.094  16.258  0.00  0.00    -0.572 OA
ATOM     19  O35 H1S d 601      33.180  10.743  16.042  0.00  0.00    -0.642 OA
ATOM     20  C6  H1S d 601      26.984  10.375  13.457  0.00  0.00     0.067 C 
ATOM     21  O25 H1S d 601      31.327  10.165  10.638  0.00  0.00    -0.389 OA
ATOM     22  O18 H1S d 601      31.020   7.367  12.954  0.00  0.00    -0.244 OA
ATOM     23  O30 H1S d 601      27.808  16.392  16.572  0.00  0.00    -0.296 OA
ATOM     24  O28 H1S d 601      29.381  14.854  17.651  0.00  0.00    -0.296 OA
ATOM     25  O31 H1S d 601      29.197   6.463  11.692  0.00  0.00    -0.572 OA
ATOM     26  O5  H1S d 601      26.972  12.520  14.582  0.00  0.00    -0.350 OA
ATOM     27  O13 H1S d 601      31.205   9.673  14.399  0.00  0.00    -0.311 OA
ATOM     28  O34 H1S d 601      34.441  11.240  14.297  0.00  0.00    -0.642 OA
ATOM     29  O11 H1S d 601      27.046   9.671  14.702  0.00  0.00    -0.254 OA
ATOM     30  C8  H1S d 601      28.979  13.820  15.045  0.00  0.00     0.081 C 
ATOM     31  O29 H1S d 601      30.170  16.999  16.790  0.00  0.00    -0.296 OA
ATOM     32  C12 H1S d 601      30.610   8.586  12.327  0.00  0.00     0.135 C 
ATOM     33  C24 H1S d 601      32.755   9.856  12.558  0.00  0.00    -0.034 C 
ATOM     34  O3  H1S d 601      29.804  10.849  12.874  0.00  0.00    -0.348 OA
ATOM     35  S20 H1S d 601      29.213  15.868  16.558  0.00  0.00     0.156 S 
ATOM     36  H   H1S d 601      27.535  12.265  12.616  0.00  0.00     0.090 H 
ATOM     37  H   H1S d 601      29.669  13.503  13.043  0.00  0.00     0.089 H 
ATOM     38  H   H1S d 601      26.359  14.571  13.229  0.00  0.00     0.212 HD
ATOM     39  H   H1S d 601      29.113  15.747  14.375  0.00  0.00     0.140 HD
ATOM     40  H   H1S d 601      31.169  12.446  15.230  0.00  0.00     0.210 HD
ATOM     41  H   H1S d 601      32.308   8.405  11.047  0.00  0.00     0.093 H 
ATOM     42  H   H1S d 601      29.272   9.165  13.888  0.00  0.00     0.134 H 
ATOM     43  H   H1S d 601      29.215  11.097  14.830  0.00  0.00     0.091 H 
ATOM     44  H   H1S d 601      26.961  14.375  15.462  0.00  0.00     0.131 H 
ATOM     45  H   H1S d 601      27.498   9.804  12.711  0.00  0.00     0.080 H 
ATOM     46  H   H1S d 601      25.954  10.506  13.199  0.00  0.00     0.080 H 
ATOM     47  H   H1S d 601      30.865  10.871  11.116  0.00  0.00     0.210 HD
ATOM     48  H   H1S d 601      27.188  15.660  16.422  0.00  0.00     0.231 HD
ATOM     49  H   H1S d 601      28.765  14.120  17.507  0.00  0.00     0.231 HD
ATOM     50  H   H1S d 601      29.091  13.358  16.004  0.00  0.00     0.076 H 
ATOM     51  H   H1S d 601      30.067  17.660  16.087  0.00  0.00     0.231 HD
ATOM     52  H   H1S d 601      29.812   8.406  11.639  0.00  0.00     0.097 H 
ATOM     53  H   H1S d 601      33.683  10.164  12.228  0.00  0.00     0.085 H 
ENDROOT
TORSDOF 16
ENDMDL
MODEL 11
REMARK VINA RESULT:      -6.8      2.789      7.330
REMARK  0 active torsions:
REMARK  status: ('A' for Active; 'I' for Inactive)
REMARK       I    between atoms: C2_2  and  C6_20 
REMARK       I    between atoms: C4_3  and  O9_7 
REMARK       I    between atoms: O15_4  and  C10_16 
REMARK       I    between atoms: N14_5  and  C8_30 
REMARK       I    between atoms: N14_5  and  S20_35 
REMARK       I    between atoms: S16_6  and  O11_29 
REMARK       I    between atoms: C17_8  and  O25_21 
REMARK       I    between atoms: C7_9  and  O3_34 
REMARK       I    between atoms: C1_10  and  O3_34 
REMARK       I    between atoms: C19_11  and  C27_15 
REMARK       I    between atoms: S26_13  and  O18_22 
REMARK       I    between atoms: C6_20  and  O11_29 
REMARK       I    between atoms: O18_22  and  C12_32 
REMARK       I    between atoms: O30_23  and  S20_35 
REMARK       I    between atoms: O28_24  and  S20_35 
REMARK       I    between atoms: O29_31  and  S20_35 
ROOT
ATOM      1  O33 H1S d 601      34.495   7.624  13.190  0.00  0.00    -0.572 OA
ATOM      2  C2  H1S d 601      27.225   9.057  12.673  0.00  0.00     0.091 C 
ATOM      3  C4  H1S d 601      27.155  10.914  14.324  0.00  0.00     0.083 C 
ATOM      4  O15 H1S d 601      24.772  10.428  12.694  0.00  0.00    -0.369 OA
ATOM      5  N14 H1S d 601      24.988  11.400  15.364  0.00  0.00    -0.210 NA
ATOM      6  S16 H1S d 601      29.359   5.918  12.816  0.00  0.00     0.251 S 
ATOM      7  O9  H1S d 601      27.860  11.565  15.384  0.00  0.00    -0.391 OA
ATOM      8  C17 H1S d 601      31.940  11.409  13.063  0.00  0.00     0.086 C 
ATOM      9  C7  H1S d 601      30.367   9.580  13.728  0.00  0.00     0.167 C 
ATOM     10  C1  H1S d 601      28.020   9.784  13.762  0.00  0.00     0.095 C 
ATOM     11  C19 H1S d 601      30.980  11.113  15.410  0.00  0.00     0.147 C 
ATOM     12  O21 H1S d 601      30.620   6.721  12.956  0.00  0.00    -0.572 OA
ATOM     13  S26 H1S d 601      33.630   8.697  12.595  0.00  0.00     0.252 S 
ATOM     14  O32 H1S d 601      34.496   9.819  12.106  0.00  0.00    -0.572 OA
ATOM     15  C27 H1S d 601      30.721  11.681  16.808  0.00  0.00     0.233 C 
ATOM     16  C10 H1S d 601      25.147   9.539  13.750  0.00  0.00     0.147 C 
ATOM     17  O22 H1S d 601      28.917   5.488  11.452  0.00  0.00    -0.572 OA
ATOM     18  O23 H1S d 601      29.121   5.002  13.982  0.00  0.00    -0.572 OA
ATOM     19  O35 H1S d 601      30.301  10.903  17.687  0.00  0.00    -0.642 OA
ATOM     20  C6  H1S d 601      28.068   7.917  12.093  0.00  0.00     0.067 C 
ATOM     21  O25 H1S d 601      31.110  12.112  12.133  0.00  0.00    -0.389 OA
ATOM     22  O18 H1S d 601      32.728   9.190  13.592  0.00  0.00    -0.244 OA
ATOM     23  O30 H1S d 601      22.767  10.184  15.746  0.00  0.00    -0.296 OA
ATOM     24  O28 H1S d 601      24.586   9.830  17.348  0.00  0.00    -0.296 OA
ATOM     25  O31 H1S d 601      32.848   8.129  11.449  0.00  0.00    -0.572 OA
ATOM     26  O5  H1S d 601      26.019   8.515  13.239  0.00  0.00    -0.350 OA
ATOM     27  O13 H1S d 601      30.571   9.844  15.128  0.00  0.00    -0.311 OA
ATOM     28  O34 H1S d 601      30.939  12.900  16.990  0.00  0.00    -0.642 OA
ATOM     29  O11 H1S d 601      28.389   6.937  13.085  0.00  0.00    -0.254 OA
ATOM     30  C8  H1S d 601      25.852  10.322  14.863  0.00  0.00     0.081 C 
ATOM     31  O29 H1S d 601      23.411  11.970  17.293  0.00  0.00    -0.296 OA
ATOM     32  C12 H1S d 601      31.657   9.908  12.973  0.00  0.00     0.135 C 
ATOM     33  C24 H1S d 601      31.639  11.908  14.478  0.00  0.00    -0.034 C 
ATOM     34  O3  H1S d 601      29.244  10.341  13.215  0.00  0.00    -0.348 OA
ATOM     35  S20 H1S d 601      23.917  10.833  16.456  0.00  0.00     0.156 S 
ATOM     36  H   H1S d 601      26.978   9.750  11.895  0.00  0.00     0.090 H 
ATOM     37  H   H1S d 601      26.936  11.625  13.554  0.00  0.00     0.089 H 
ATOM     38  H   H1S d 601      24.326   9.927  11.992  0.00  0.00     0.212 HD
ATOM     39  H   H1S d 601      24.481  11.812  14.581  0.00  0.00     0.140 HD
ATOM     40  H   H1S d 601      28.059  10.922  16.082  0.00  0.00     0.210 HD
ATOM     41  H   H1S d 601      32.970  11.585  12.831  0.00  0.00     0.093 H 
ATOM     42  H   H1S d 601      30.131   8.546  13.587  0.00  0.00     0.134 H 
ATOM     43  H   H1S d 601      28.279   9.091  14.534  0.00  0.00     0.091 H 
ATOM     44  H   H1S d 601      24.269   9.079  14.152  0.00  0.00     0.131 H 
ATOM     45  H   H1S d 601      28.976   8.323  11.700  0.00  0.00     0.080 H 
ATOM     46  H   H1S d 601      27.496   7.439  11.324  0.00  0.00     0.080 H 
ATOM     47  H   H1S d 601      30.177  11.950  12.346  0.00  0.00     0.210 HD
ATOM     48  H   H1S d 601      23.093   9.448  15.205  0.00  0.00     0.231 HD
ATOM     49  H   H1S d 601      24.916   9.091  16.814  0.00  0.00     0.231 HD
ATOM     50  H   H1S d 601      26.066   9.654  15.671  0.00  0.00     0.076 H 
ATOM     51  H   H1S d 601      22.977  12.623  16.722  0.00  0.00     0.231 HD
ATOM     52  H   H1S d 601      31.563   9.632  11.944  0.00  0.00     0.097 H 
ATOM     53  H   H1S d 601      31.933  12.860  14.748  0.00  0.00     0.085 H 
ENDROOT
TORSDOF 16
ENDMDL
MODEL 12
REMARK VINA RESULT:      -6.7      3.060      6.366
REMARK  0 active torsions:
REMARK  status: ('A' for Active; 'I' for Inactive)
REMARK       I    between atoms: C2_2  and  C6_20 
REMARK       I    between atoms: C4_3  and  O9_7 
REMARK       I    between atoms: O15_4  and  C10_16 
REMARK       I    between atoms: N14_5  and  C8_30 
REMARK       I    between atoms: N14_5  and  S20_35 
REMARK       I    between atoms: S16_6  and  O11_29 
REMARK       I    between atoms: C17_8  and  O25_21 
REMARK       I    between atoms: C7_9  and  O3_34 
REMARK       I    between atoms: C1_10  and  O3_34 
REMARK       I    between atoms: C19_11  and  C27_15 
REMARK       I    between atoms: S26_13  and  O18_22 
REMARK       I    between atoms: C6_20  and  O11_29 
REMARK       I    between atoms: O18_22  and  C12_32 
REMARK       I    between atoms: O30_23  and  S20_35 
REMARK       I    between atoms: O28_24  and  S20_35 
REMARK       I    between atoms: O29_31  and  S20_35 
ROOT
ATOM      1  O33 H1S d 601      21.984   7.361  15.665  0.00  0.00    -0.572 OA
ATOM      2  C2  H1S d 601      25.355  13.979  15.667  0.00  0.00     0.091 C 
ATOM      3  C4  H1S d 601      27.607  13.183  14.978  0.00  0.00     0.083 C 
ATOM      4  O15 H1S d 601      27.122  16.069  15.026  0.00  0.00    -0.369 OA
ATOM      5  N14 H1S d 601      29.517  14.613  15.542  0.00  0.00    -0.210 NA
ATOM      6  S16 H1S d 601      22.871  12.209  17.930  0.00  0.00     0.251 S 
ATOM      7  O9  H1S d 601      28.450  12.037  14.837  0.00  0.00    -0.391 OA
ATOM      8  C17 H1S d 601      25.006   9.458  12.955  0.00  0.00     0.086 C 
ATOM      9  C7  H1S d 601      25.132  10.673  15.139  0.00  0.00     0.167 C 
ATOM     10  C1  H1S d 601      26.225  12.735  15.458  0.00  0.00     0.095 C 
ATOM     11  C19 H1S d 601      26.950   9.274  14.600  0.00  0.00     0.147 C 
ATOM     12  O21 H1S d 601      22.899  10.973  17.078  0.00  0.00    -0.572 OA
ATOM     13  S26 H1S d 601      22.490   8.332  14.639  0.00  0.00     0.252 S 
ATOM     14  O32 H1S d 601      22.394   7.711  13.278  0.00  0.00    -0.572 OA
ATOM     15  C27 H1S d 601      28.388   8.840  14.895  0.00  0.00     0.233 C 
ATOM     16  C10 H1S d 601      27.254  15.314  16.235  0.00  0.00     0.147 C 
ATOM     17  O22 H1S d 601      21.819  13.244  17.678  0.00  0.00    -0.572 OA
ATOM     18  O23 H1S d 601      23.319  11.953  19.341  0.00  0.00    -0.572 OA
ATOM     19  O35 H1S d 601      28.776   8.866  16.080  0.00  0.00    -0.642 OA
ATOM     20  C6  H1S d 601      23.964  13.561  16.151  0.00  0.00     0.067 C 
ATOM     21  O25 H1S d 601      25.049  10.572  12.059  0.00  0.00    -0.389 OA
ATOM     22  O18 H1S d 601      23.856   8.655  14.920  0.00  0.00    -0.244 OA
ATOM     23  O30 H1S d 601      30.036  16.496  17.199  0.00  0.00    -0.296 OA
ATOM     24  O28 H1S d 601      30.271  14.176  17.951  0.00  0.00    -0.296 OA
ATOM     25  O31 H1S d 601      21.660   9.580  14.682  0.00  0.00    -0.572 OA
ATOM     26  O5  H1S d 601      25.964  14.832  16.651  0.00  0.00    -0.350 OA
ATOM     27  O13 H1S d 601      26.216   9.844  15.596  0.00  0.00    -0.311 OA
ATOM     28  O34 H1S d 601      29.100   8.487  13.927  0.00  0.00    -0.642 OA
ATOM     29  O11 H1S d 601      24.021  12.888  17.413  0.00  0.00    -0.254 OA
ATOM     30  C8  H1S d 601      28.208  14.137  16.011  0.00  0.00     0.081 C 
ATOM     31  O29 H1S d 601      31.881  15.114  16.372  0.00  0.00    -0.296 OA
ATOM     32  C12 H1S d 601      24.233   9.843  14.218  0.00  0.00     0.135 C 
ATOM     33  C24 H1S d 601      26.436   9.057  13.325  0.00  0.00    -0.034 C 
ATOM     34  O3  H1S d 601      25.631  11.857  14.467  0.00  0.00    -0.348 OA
ATOM     35  S20 H1S d 601      30.441  15.111  16.791  0.00  0.00     0.156 S 
ATOM     36  H   H1S d 601      25.267  14.506  14.739  0.00  0.00     0.090 H 
ATOM     37  H   H1S d 601      27.523  13.680  14.034  0.00  0.00     0.089 H 
ATOM     38  H   H1S d 601      26.516  16.813  15.174  0.00  0.00     0.212 HD
ATOM     39  H   H1S d 601      29.377  15.393  14.899  0.00  0.00     0.140 HD
ATOM     40  H   H1S d 601      28.528  11.584  15.692  0.00  0.00     0.210 HD
ATOM     41  H   H1S d 601      24.513   8.634  12.483  0.00  0.00     0.093 H 
ATOM     42  H   H1S d 601      24.558  11.011  15.977  0.00  0.00     0.134 H 
ATOM     43  H   H1S d 601      26.305  12.200  16.381  0.00  0.00     0.091 H 
ATOM     44  H   H1S d 601      27.654  15.944  17.001  0.00  0.00     0.131 H 
ATOM     45  H   H1S d 601      23.528  12.903  15.428  0.00  0.00     0.080 H 
ATOM     46  H   H1S d 601      23.373  14.445  16.270  0.00  0.00     0.080 H 
ATOM     47  H   H1S d 601      25.497  11.317  12.490  0.00  0.00     0.210 HD
ATOM     48  H   H1S d 601      29.104  16.494  17.470  0.00  0.00     0.231 HD
ATOM     49  H   H1S d 601      29.341  14.168  18.227  0.00  0.00     0.231 HD
ATOM     50  H   H1S d 601      28.346  13.624  16.939  0.00  0.00     0.076 H 
ATOM     51  H   H1S d 601      31.999  15.717  15.622  0.00  0.00     0.231 HD
ATOM     52  H   H1S d 601      23.369  10.408  13.940  0.00  0.00     0.097 H 
ATOM     53  H   H1S d 601      27.034   8.614  12.610  0.00  0.00     0.085 H 
ENDROOT
TORSDOF 16
ENDMDL
MODEL 13
REMARK VINA RESULT:      -6.3      2.862      5.208
REMARK  0 active torsions:
REMARK  status: ('A' for Active; 'I' for Inactive)
REMARK       I    between atoms: C2_2  and  C6_20 
REMARK       I    between atoms: C4_3  and  O9_7 
REMARK       I    between atoms: O15_4  and  C10_16 
REMARK       I    between atoms: N14_5  and  C8_30 
REMARK       I    between atoms: N14_5  and  S20_35 
REMARK       I    between atoms: S16_6  and  O11_29 
REMARK       I    between atoms: C17_8  and  O25_21 
REMARK       I    between atoms: C7_9  and  O3_34 
REMARK       I    between atoms: C1_10  and  O3_34 
REMARK       I    between atoms: C19_11  and  C27_15 
REMARK       I    between atoms: S26_13  and  O18_22 
REMARK       I    between atoms: C6_20  and  O11_29 
REMARK       I    between atoms: O18_22  and  C12_32 
REMARK       I    between atoms: O30_23  and  S20_35 
REMARK       I    between atoms: O28_24  and  S20_35 
REMARK       I    between atoms: O29_31  and  S20_35 
ROOT
ATOM      1  O33 H1S d 601      22.853   8.364  12.379  0.00  0.00    -0.572 OA
ATOM      2  C2  H1S d 601      28.910  10.686  15.996  0.00  0.00     0.091 C 
ATOM      3  C4  H1S d 601      28.099  12.976  16.526  0.00  0.00     0.083 C 
ATOM      4  O15 H1S d 601      30.576  12.065  17.792  0.00  0.00    -0.369 OA
ATOM      5  N14 H1S d 601      29.798  14.684  16.981  0.00  0.00    -0.210 NA
ATOM      6  S16 H1S d 601      28.248   8.672  12.845  0.00  0.00     0.251 S 
ATOM      7  O9  H1S d 601      27.118  13.970  16.218  0.00  0.00    -0.391 OA
ATOM      8  C17 H1S d 601      23.630  10.826  16.148  0.00  0.00     0.086 C 
ATOM      9  C7  H1S d 601      25.766  10.927  14.848  0.00  0.00     0.167 C 
ATOM     10  C1  H1S d 601      27.814  11.716  15.704  0.00  0.00     0.095 C 
ATOM     11  C19 H1S d 601      24.465  12.891  14.900  0.00  0.00     0.147 C 
ATOM     12  O21 H1S d 601      26.763   8.824  12.999  0.00  0.00    -0.572 OA
ATOM     13  S26 H1S d 601      23.240   8.640  13.802  0.00  0.00     0.252 S 
ATOM     14  O32 H1S d 601      22.025   8.539  14.675  0.00  0.00    -0.572 OA
ATOM     15  C27 H1S d 601      24.372  14.396  14.636  0.00  0.00     0.233 C 
ATOM     16  C10 H1S d 601      30.528  12.398  16.401  0.00  0.00     0.147 C 
ATOM     17  O22 H1S d 601      28.920   7.460  13.412  0.00  0.00    -0.572 OA
ATOM     18  O23 H1S d 601      28.762   9.255  11.560  0.00  0.00    -0.572 OA
ATOM     19  O35 H1S d 601      25.014  14.862  13.672  0.00  0.00    -0.642 OA
ATOM     20  C6  H1S d 601      28.651   9.413  15.185  0.00  0.00     0.067 C 
ATOM     21  O25 H1S d 601      24.160  10.634  17.463  0.00  0.00    -0.389 OA
ATOM     22  O18 H1S d 601      23.789   9.958  13.900  0.00  0.00    -0.244 OA
ATOM     23  O30 H1S d 601      32.292  15.033  16.510  0.00  0.00    -0.296 OA
ATOM     24  O28 H1S d 601      30.674  15.670  14.784  0.00  0.00    -0.296 OA
ATOM     25  O31 H1S d 601      24.262   7.636  14.245  0.00  0.00    -0.572 OA
ATOM     26  O5  H1S d 601      30.190  11.230  15.632  0.00  0.00    -0.350 OA
ATOM     27  O13 H1S d 601      25.377  12.155  14.206  0.00  0.00    -0.311 OA
ATOM     28  O34 H1S d 601      23.661  15.079  15.406  0.00  0.00    -0.642 OA
ATOM     29  O11 H1S d 601      28.694   9.664  13.776  0.00  0.00    -0.254 OA
ATOM     30  C8  H1S d 601      29.490  13.500  16.166  0.00  0.00     0.081 C 
ATOM     31  O29 H1S d 601      30.866  17.000  16.824  0.00  0.00    -0.296 OA
ATOM     32  C12 H1S d 601      24.510  10.099  15.128  0.00  0.00     0.135 C 
ATOM     33  C24 H1S d 601      23.603  12.323  15.833  0.00  0.00    -0.034 C 
ATOM     34  O3  H1S d 601      26.510  11.191  16.065  0.00  0.00    -0.348 OA
ATOM     35  S20 H1S d 601      30.931  15.611  16.261  0.00  0.00     0.156 S 
ATOM     36  H   H1S d 601      28.903  10.451  17.040  0.00  0.00     0.090 H 
ATOM     37  H   H1S d 601      28.059  12.748  17.571  0.00  0.00     0.089 H 
ATOM     38  H   H1S d 601      31.235  11.366  17.935  0.00  0.00     0.212 HD
ATOM     39  H   H1S d 601      30.144  14.381  17.891  0.00  0.00     0.140 HD
ATOM     40  H   H1S d 601      27.153  14.177  15.271  0.00  0.00     0.210 HD
ATOM     41  H   H1S d 601      22.638  10.429  16.097  0.00  0.00     0.093 H 
ATOM     42  H   H1S d 601      26.415  10.372  14.202  0.00  0.00     0.134 H 
ATOM     43  H   H1S d 601      27.811  11.944  14.659  0.00  0.00     0.091 H 
ATOM     44  H   H1S d 601      31.487  12.753  16.091  0.00  0.00     0.131 H 
ATOM     45  H   H1S d 601      27.685   9.030  15.439  0.00  0.00     0.080 H 
ATOM     46  H   H1S d 601      29.419   8.707  15.421  0.00  0.00     0.080 H 
ATOM     47  H   H1S d 601      25.060  10.994  17.505  0.00  0.00     0.210 HD
ATOM     48  H   H1S d 601      32.334  14.135  16.146  0.00  0.00     0.231 HD
ATOM     49  H   H1S d 601      30.713  14.776  14.413  0.00  0.00     0.231 HD
ATOM     50  H   H1S d 601      29.514  13.782  15.134  0.00  0.00     0.076 H 
ATOM     51  H   H1S d 601      31.033  16.969  17.780  0.00  0.00     0.231 HD
ATOM     52  H   H1S d 601      24.780   9.140  15.520  0.00  0.00     0.097 H 
ATOM     53  H   H1S d 601      22.926  12.927  16.325  0.00  0.00     0.085 H 
ENDROOT
TORSDOF 16
ENDMDL
MODEL 14
REMARK VINA RESULT:      -6.2      2.600      7.258
REMARK  0 active torsions:
REMARK  status: ('A' for Active; 'I' for Inactive)
REMARK       I    between atoms: C2_2  and  C6_20 
REMARK       I    between atoms: C4_3  and  O9_7 
REMARK       I    between atoms: O15_4  and  C10_16 
REMARK       I    between atoms: N14_5  and  C8_30 
REMARK       I    between atoms: N14_5  and  S20_35 
REMARK       I    between atoms: S16_6  and  O11_29 
REMARK       I    between atoms: C17_8  and  O25_21 
REMARK       I    between atoms: C7_9  and  O3_34 
REMARK       I    between atoms: C1_10  and  O3_34 
REMARK       I    between atoms: C19_11  and  C27_15 
REMARK       I    between atoms: S26_13  and  O18_22 
REMARK       I    between atoms: C6_20  and  O11_29 
REMARK       I    between atoms: O18_22  and  C12_32 
REMARK       I    between atoms: O30_23  and  S20_35 
REMARK       I    between atoms: O28_24  and  S20_35 
REMARK       I    between atoms: O29_31  and  S20_35 
ROOT
ATOM      1  O33 H1S d 601      29.800   5.345  11.502  0.00  0.00    -0.572 OA
ATOM      2  C2  H1S d 601      29.501  12.324  14.026  0.00  0.00     0.091 C 
ATOM      3  C4  H1S d 601      27.043  12.420  14.389  0.00  0.00     0.083 C 
ATOM      4  O15 H1S d 601      28.676  14.619  15.424  0.00  0.00    -0.369 OA
ATOM      5  N14 H1S d 601      26.007  14.642  14.425  0.00  0.00    -0.210 NA
ATOM      6  S16 H1S d 601      31.356  10.534  11.236  0.00  0.00     0.251 S 
ATOM      7  O9  H1S d 601      25.792  11.792  14.098  0.00  0.00    -0.391 OA
ATOM      8  C17 H1S d 601      27.527   7.490  14.834  0.00  0.00     0.086 C 
ATOM      9  C7  H1S d 601      28.257   9.301  13.269  0.00  0.00     0.167 C 
ATOM     10  C1  H1S d 601      28.175  11.604  13.761  0.00  0.00     0.095 C 
ATOM     11  C19 H1S d 601      25.964   8.757  13.262  0.00  0.00     0.147 C 
ATOM     12  O21 H1S d 601      30.688   9.230  11.561  0.00  0.00    -0.572 OA
ATOM     13  S26 H1S d 601      29.585   6.023  12.824  0.00  0.00     0.252 S 
ATOM     14  O32 H1S d 601      29.202   5.000  13.851  0.00  0.00    -0.572 OA
ATOM     15  C27 H1S d 601      24.540   9.131  12.841  0.00  0.00     0.233 C 
ATOM     16  C10 H1S d 601      28.436  14.463  14.023  0.00  0.00     0.147 C 
ATOM     17  O22 H1S d 601      32.687  10.844  11.848  0.00  0.00    -0.572 OA
ATOM     18  O23 H1S d 601      31.070  11.002   9.838  0.00  0.00    -0.572 OA
ATOM     19  O35 H1S d 601      24.389   9.729  11.757  0.00  0.00    -0.642 OA
ATOM     20  C6  H1S d 601      30.654  11.530  13.406  0.00  0.00     0.067 C 
ATOM     21  O25 H1S d 601      27.807   8.128  16.085  0.00  0.00    -0.389 OA
ATOM     22  O18 H1S d 601      28.537   6.990  12.699  0.00  0.00    -0.244 OA
ATOM     23  O30 H1S d 601      26.576  17.000  13.603  0.00  0.00    -0.296 OA
ATOM     24  O28 H1S d 601      25.527  15.435  12.037  0.00  0.00    -0.296 OA
ATOM     25  O31 H1S d 601      30.852   6.708  13.244  0.00  0.00    -0.572 OA
ATOM     26  O5  H1S d 601      29.460  13.638  13.441  0.00  0.00    -0.350 OA
ATOM     27  O13 H1S d 601      27.014   9.247  12.546  0.00  0.00    -0.311 OA
ATOM     28  O34 H1S d 601      23.605   8.821  13.613  0.00  0.00    -0.642 OA
ATOM     29  O11 H1S d 601      30.523  11.428  11.984  0.00  0.00    -0.254 OA
ATOM     30  C8  H1S d 601      27.059  13.830  13.798  0.00  0.00     0.081 C 
ATOM     31  O29 H1S d 601      24.221  16.383  13.869  0.00  0.00    -0.296 OA
ATOM     32  C12 H1S d 601      28.577   7.902  13.801  0.00  0.00     0.135 C 
ATOM     33  C24 H1S d 601      26.137   7.915  14.357  0.00  0.00    -0.034 C 
ATOM     34  O3  H1S d 601      28.191  10.275  14.343  0.00  0.00    -0.348 OA
ATOM     35  S20 H1S d 601      25.578  15.889  13.465  0.00  0.00     0.156 S 
ATOM     36  H   H1S d 601      29.652  12.405  15.083  0.00  0.00     0.090 H 
ATOM     37  H   H1S d 601      27.176  12.473  15.450  0.00  0.00     0.089 H 
ATOM     38  H   H1S d 601      29.549  15.020  15.561  0.00  0.00     0.212 HD
ATOM     39  H   H1S d 601      26.352  15.007  15.313  0.00  0.00     0.140 HD
ATOM     40  H   H1S d 601      25.671  11.743  13.137  0.00  0.00     0.210 HD
ATOM     41  H   H1S d 601      27.556   6.428  14.957  0.00  0.00     0.093 H 
ATOM     42  H   H1S d 601      29.042   9.616  12.614  0.00  0.00     0.134 H 
ATOM     43  H   H1S d 601      28.028  11.510  12.705  0.00  0.00     0.091 H 
ATOM     44  H   H1S d 601      28.456  15.424  13.554  0.00  0.00     0.131 H 
ATOM     45  H   H1S d 601      30.660  10.545  13.823  0.00  0.00     0.080 H 
ATOM     46  H   H1S d 601      31.567  12.045  13.621  0.00  0.00     0.080 H 
ATOM     47  H   H1S d 601      27.779   9.091  15.970  0.00  0.00     0.210 HD
ATOM     48  H   H1S d 601      27.454  16.681  13.341  0.00  0.00     0.231 HD
ATOM     49  H   H1S d 601      26.402  15.113  11.768  0.00  0.00     0.231 HD
ATOM     50  H   H1S d 601      26.869  13.782  12.745  0.00  0.00     0.076 H 
ATOM     51  H   H1S d 601      24.246  16.679  14.793  0.00  0.00     0.231 HD
ATOM     52  H   H1S d 601      29.543   7.895  14.261  0.00  0.00     0.097 H 
ATOM     53  H   H1S d 601      25.305   7.566  14.859  0.00  0.00     0.085 H 
ENDROOT
TORSDOF 16
ENDMDL
MODEL 15
REMARK VINA RESULT:      -6.1      2.725      7.229
REMARK  0 active torsions:
REMARK  status: ('A' for Active; 'I' for Inactive)
REMARK       I    between atoms: C2_2  and  C6_20 
REMARK       I    between atoms: C4_3  and  O9_7 
REMARK       I    between atoms: O15_4  and  C10_16 
REMARK       I    between atoms: N14_5  and  C8_30 
REMARK       I    between atoms: N14_5  and  S20_35 
REMARK       I    between atoms: S16_6  and  O11_29 
REMARK       I    between atoms: C17_8  and  O25_21 
REMARK       I    between atoms: C7_9  and  O3_34 
REMARK       I    between atoms: C1_10  and  O3_34 
REMARK       I    between atoms: C19_11  and  C27_15 
REMARK       I    between atoms: S26_13  and  O18_22 
REMARK       I    between atoms: C6_20  and  O11_29 
REMARK       I    between atoms: O18_22  and  C12_32 
REMARK       I    between atoms: O30_23  and  S20_35 
REMARK       I    between atoms: O28_24  and  S20_35 
REMARK       I    between atoms: O29_31  and  S20_35 
ROOT
ATOM      1  O33 H1S d 601      30.553   6.805  13.427  0.00  0.00    -0.572 OA
ATOM      2  C2  H1S d 601      26.223  12.803  14.096  0.00  0.00     0.091 C 
ATOM      3  C4  H1S d 601      27.639  14.030  15.731  0.00  0.00     0.083 C 
ATOM      4  O15 H1S d 601      25.391  15.456  14.512  0.00  0.00    -0.369 OA
ATOM      5  N14 H1S d 601      26.534  15.730  17.109  0.00  0.00    -0.210 NA
ATOM      6  S16 H1S d 601      25.640   9.055  13.899  0.00  0.00     0.251 S 
ATOM      7  O9  H1S d 601      28.719  13.915  16.660  0.00  0.00    -0.391 OA
ATOM      8  C17 H1S d 601      31.276  11.308  13.707  0.00  0.00     0.086 C 
ATOM      9  C7  H1S d 601      28.974  10.957  14.624  0.00  0.00     0.167 C 
ATOM     10  C1  H1S d 601      27.425  12.682  15.039  0.00  0.00     0.095 C 
ATOM     11  C19 H1S d 601      30.665  11.482  16.180  0.00  0.00     0.147 C 
ATOM     12  O21 H1S d 601      27.114   8.779  13.830  0.00  0.00    -0.572 OA
ATOM     13  S26 H1S d 601      30.588   8.237  12.978  0.00  0.00     0.252 S 
ATOM     14  O32 H1S d 601      31.919   8.529  12.352  0.00  0.00    -0.572 OA
ATOM     15  C27 H1S d 601      31.035  11.919  17.599  0.00  0.00     0.233 C 
ATOM     16  C10 H1S d 601      25.184  14.438  15.495  0.00  0.00     0.147 C 
ATOM     17  O22 H1S d 601      24.862   9.188  12.626  0.00  0.00    -0.572 OA
ATOM     18  O23 H1S d 601      24.984   8.419  15.090  0.00  0.00    -0.572 OA
ATOM     19  O35 H1S d 601      30.307  11.537  18.538  0.00  0.00    -0.642 OA
ATOM     20  C6  H1S d 601      25.984  11.466  13.389  0.00  0.00     0.067 C 
ATOM     21  O25 H1S d 601      31.043  12.482  12.922  0.00  0.00    -0.389 OA
ATOM     22  O18 H1S d 601      30.395   9.096  14.107  0.00  0.00    -0.244 OA
ATOM     23  O30 H1S d 601      24.148  16.295  17.850  0.00  0.00    -0.296 OA
ATOM     24  O28 H1S d 601      25.412  14.636  19.136  0.00  0.00    -0.296 OA
ATOM     25  O31 H1S d 601      29.499   8.473  11.975  0.00  0.00    -0.572 OA
ATOM     26  O5  H1S d 601      25.052  13.158  14.852  0.00  0.00    -0.350 OA
ATOM     27  O13 H1S d 601      29.471  10.860  15.971  0.00  0.00    -0.311 OA
ATOM     28  O34 H1S d 601      32.046  12.644  17.740  0.00  0.00    -0.642 OA
ATOM     29  O11 H1S d 601      25.667  10.424  14.319  0.00  0.00    -0.254 OA
ATOM     30  C8  H1S d 601      26.360  14.415  16.477  0.00  0.00     0.081 C 
ATOM     31  O29 H1S d 601      26.018  16.999  19.266  0.00  0.00    -0.296 OA
ATOM     32  C12 H1S d 601      30.037  10.410  13.668  0.00  0.00     0.135 C 
ATOM     33  C24 H1S d 601      31.570  11.721  15.150  0.00  0.00    -0.034 C 
ATOM     34  O3  H1S d 601      28.621  12.325  14.298  0.00  0.00    -0.348 OA
ATOM     35  S20 H1S d 601      25.506  15.917  18.361  0.00  0.00     0.156 S 
ATOM     36  H   H1S d 601      26.424  13.561  13.367  0.00  0.00     0.090 H 
ATOM     37  H   H1S d 601      27.872  14.781  15.005  0.00  0.00     0.089 H 
ATOM     38  H   H1S d 601      24.643  15.466  13.894  0.00  0.00     0.212 HD
ATOM     39  H   H1S d 601      26.353  16.458  16.418  0.00  0.00     0.140 HD
ATOM     40  H   H1S d 601      28.509  13.235  17.319  0.00  0.00     0.210 HD
ATOM     41  H   H1S d 601      32.110  10.768  13.310  0.00  0.00     0.093 H 
ATOM     42  H   H1S d 601      28.082  10.374  14.526  0.00  0.00     0.134 H 
ATOM     43  H   H1S d 601      27.232  11.916  15.761  0.00  0.00     0.091 H 
ATOM     44  H   H1S d 601      24.286  14.649  16.036  0.00  0.00     0.131 H 
ATOM     45  H   H1S d 601      26.868  11.194  12.853  0.00  0.00     0.080 H 
ATOM     46  H   H1S d 601      25.153  11.584  12.726  0.00  0.00     0.080 H 
ATOM     47  H   H1S d 601      30.287  12.968  13.284  0.00  0.00     0.210 HD
ATOM     48  H   H1S d 601      23.816  15.595  17.266  0.00  0.00     0.231 HD
ATOM     49  H   H1S d 601      25.082  13.932  18.557  0.00  0.00     0.231 HD
ATOM     50  H   H1S d 601      26.157  13.694  17.241  0.00  0.00     0.076 H 
ATOM     51  H   H1S d 601      26.081  17.831  18.772  0.00  0.00     0.231 HD
ATOM     52  H   H1S d 601      29.656  10.383  12.669  0.00  0.00     0.097 H 
ATOM     53  H   H1S d 601      32.464  12.190  15.366  0.00  0.00     0.085 H 
ENDROOT
TORSDOF 16
ENDMDL
MODEL 16
REMARK VINA RESULT:      -5.5      2.902      7.305
REMARK  0 active torsions:
REMARK  status: ('A' for Active; 'I' for Inactive)
REMARK       I    between atoms: C2_2  and  C6_20 
REMARK       I    between atoms: C4_3  and  O9_7 
REMARK       I    between atoms: O15_4  and  C10_16 
REMARK       I    between atoms: N14_5  and  C8_30 
REMARK       I    between atoms: N14_5  and  S20_35 
REMARK       I    between atoms: S16_6  and  O11_29 
REMARK       I    between atoms: C17_8  and  O25_21 
REMARK       I    between atoms: C7_9  and  O3_34 
REMARK       I    between atoms: C1_10  and  O3_34 
REMARK       I    between atoms: C19_11  and  C27_15 
REMARK       I    between atoms: S26_13  and  O18_22 
REMARK       I    between atoms: C6_20  and  O11_29 
REMARK       I    between atoms: O18_22  and  C12_32 
REMARK       I    between atoms: O30_23  and  S20_35 
REMARK       I    between atoms: O28_24  and  S20_35 
REMARK       I    between atoms: O29_31  and  S20_35 
ROOT
ATOM      1  O33 H1S d 601      31.989   9.503  14.110  0.00  0.00    -0.572 OA
ATOM      2  C2  H1S d 601      24.987  11.949  14.494  0.00  0.00     0.091 C 
ATOM      3  C4  H1S d 601      25.490  14.190  15.444  0.00  0.00     0.083 C 
ATOM      4  O15 H1S d 601      22.762  13.667  14.519  0.00  0.00    -0.369 OA
ATOM      5  N14 H1S d 601      23.680  15.323  16.649  0.00  0.00    -0.210 NA
ATOM      6  S16 H1S d 601      26.751   8.671  15.246  0.00  0.00     0.251 S 
ATOM      7  O9  H1S d 601      26.482  14.990  16.092  0.00  0.00    -0.391 OA
ATOM      8  C17 H1S d 601      29.890  13.467  13.242  0.00  0.00     0.086 C 
ATOM      9  C7  H1S d 601      28.323  12.210  14.734  0.00  0.00     0.167 C 
ATOM     10  C1  H1S d 601      26.080  12.814  15.127  0.00  0.00     0.095 C 
ATOM     11  C19 H1S d 601      29.460  14.037  15.694  0.00  0.00     0.147 C 
ATOM     12  O21 H1S d 601      28.089   9.251  14.889  0.00  0.00    -0.572 OA
ATOM     13  S26 H1S d 601      31.131  10.487  13.371  0.00  0.00     0.252 S 
ATOM     14  O32 H1S d 601      31.978  11.253  12.399  0.00  0.00    -0.572 OA
ATOM     15  C27 H1S d 601      29.587  15.023  16.857  0.00  0.00     0.233 C 
ATOM     16  C10 H1S d 601      23.270  13.074  15.718  0.00  0.00     0.147 C 
ATOM     17  O22 H1S d 601      25.968   7.944  14.197  0.00  0.00    -0.572 OA
ATOM     18  O23 H1S d 601      26.686   8.189  16.667  0.00  0.00    -0.572 OA
ATOM     19  O35 H1S d 601      29.297  14.620  18.001  0.00  0.00    -0.642 OA
ATOM     20  C6  H1S d 601      25.549  10.562  14.167  0.00  0.00     0.067 C 
ATOM     21  O25 H1S d 601      28.950  13.999  12.303  0.00  0.00    -0.389 OA
ATOM     22  O18 H1S d 601      30.537  11.397  14.303  0.00  0.00    -0.244 OA
ATOM     23  O30 H1S d 601      21.486  14.671  17.799  0.00  0.00    -0.296 OA
ATOM     24  O28 H1S d 601      23.572  14.493  19.071  0.00  0.00    -0.296 OA
ATOM     25  O31 H1S d 601      30.054   9.753  12.630  0.00  0.00    -0.572 OA
ATOM     26  O5  H1S d 601      23.889  11.812  15.413  0.00  0.00    -0.350 OA
ATOM     27  O13 H1S d 601      28.866  12.831  15.913  0.00  0.00    -0.311 OA
ATOM     28  O34 H1S d 601      29.970  16.186  16.595  0.00  0.00    -0.642 OA
ATOM     29  O11 H1S d 601      25.981   9.874  15.345  0.00  0.00    -0.254 OA
ATOM     30  C8  H1S d 601      24.288  14.014  16.372  0.00  0.00     0.081 C 
ATOM     31  O29 H1S d 601      22.651  16.692  18.545  0.00  0.00    -0.296 OA
ATOM     32  C12 H1S d 601      29.436  12.076  13.692  0.00  0.00     0.135 C 
ATOM     33  C24 H1S d 601      29.972  14.400  14.451  0.00  0.00    -0.034 C 
ATOM     34  O3  H1S d 601      27.200  12.968  14.217  0.00  0.00    -0.348 OA
ATOM     35  S20 H1S d 601      22.830  15.291  18.041  0.00  0.00     0.156 S 
ATOM     36  H   H1S d 601      24.645  12.417  13.593  0.00  0.00     0.090 H 
ATOM     37  H   H1S d 601      25.179  14.672  14.540  0.00  0.00     0.089 H 
ATOM     38  H   H1S d 601      22.118  13.067  14.109  0.00  0.00     0.212 HD
ATOM     39  H   H1S d 601      23.055  15.569  15.882  0.00  0.00     0.140 HD
ATOM     40  H   H1S d 601      26.765  14.555  16.911  0.00  0.00     0.210 HD
ATOM     41  H   H1S d 601      30.853  13.387  12.783  0.00  0.00     0.093 H 
ATOM     42  H   H1S d 601      27.952  11.236  14.978  0.00  0.00     0.134 H 
ATOM     43  H   H1S d 601      26.432  12.343  16.020  0.00  0.00     0.091 H 
ATOM     44  H   H1S d 601      22.462  12.909  16.399  0.00  0.00     0.131 H 
ATOM     45  H   H1S d 601      26.383  10.674  13.506  0.00  0.00     0.080 H 
ATOM     46  H   H1S d 601      24.771   9.987  13.710  0.00  0.00     0.080 H 
ATOM     47  H   H1S d 601      28.079  14.069  12.723  0.00  0.00     0.210 HD
ATOM     48  H   H1S d 601      21.601  13.765  17.473  0.00  0.00     0.231 HD
ATOM     49  H   H1S d 601      23.692  13.585  18.751  0.00  0.00     0.231 HD
ATOM     50  H   H1S d 601      24.607  13.584  17.299  0.00  0.00     0.076 H 
ATOM     51  H   H1S d 601      22.170  17.215  17.884  0.00  0.00     0.231 HD
ATOM     52  H   H1S d 601      29.082  11.532  12.841  0.00  0.00     0.097 H 
ATOM     53  H   H1S d 601      30.420  15.325  14.343  0.00  0.00     0.085 H 
ENDROOT
TORSDOF 16
ENDMDL
MODEL 17
REMARK VINA RESULT:      -5.3      2.990      6.426
REMARK  0 active torsions:
REMARK  status: ('A' for Active; 'I' for Inactive)
REMARK       I    between atoms: C2_2  and  C6_20 
REMARK       I    between atoms: C4_3  and  O9_7 
REMARK       I    between atoms: O15_4  and  C10_16 
REMARK       I    between atoms: N14_5  and  C8_30 
REMARK       I    between atoms: N14_5  and  S20_35 
REMARK       I    between atoms: S16_6  and  O11_29 
REMARK       I    between atoms: C17_8  and  O25_21 
REMARK       I    between atoms: C7_9  and  O3_34 
REMARK       I    between atoms: C1_10  and  O3_34 
REMARK       I    between atoms: C19_11  and  C27_15 
REMARK       I    between atoms: S26_13  and  O18_22 
REMARK       I    between atoms: C6_20  and  O11_29 
REMARK       I    between atoms: O18_22  and  C12_32 
REMARK       I    between atoms: O30_23  and  S20_35 
REMARK       I    between atoms: O28_24  and  S20_35 
REMARK       I    between atoms: O29_31  and  S20_35 
ROOT
ATOM      1  O33 H1S d 601      31.964  14.990  17.636  0.00  0.00    -0.572 OA
ATOM      2  C2  H1S d 601      27.710  10.323  13.726  0.00  0.00     0.091 C 
ATOM      3  C4  H1S d 601      25.524  11.395  14.231  0.00  0.00     0.083 C 
ATOM      4  O15 H1S d 601      25.594   9.306  12.180  0.00  0.00    -0.369 OA
ATOM      5  N14 H1S d 601      23.520  10.000  14.008  0.00  0.00    -0.210 NA
ATOM      6  S16 H1S d 601      30.696   9.962  16.045  0.00  0.00     0.251 S 
ATOM      7  O9  H1S d 601      24.843  12.315  15.087  0.00  0.00    -0.391 OA
ATOM      8  C17 H1S d 601      28.344  15.438  14.885  0.00  0.00     0.086 C 
ATOM      9  C7  H1S d 601      28.333  13.039  15.595  0.00  0.00     0.167 C 
ATOM     10  C1  H1S d 601      27.007  11.361  14.607  0.00  0.00     0.095 C 
ATOM     11  C19 H1S d 601      26.679  14.428  16.536  0.00  0.00     0.147 C 
ATOM     12  O21 H1S d 601      30.734  11.439  16.308  0.00  0.00    -0.572 OA
ATOM     13  S26 H1S d 601      31.194  15.028  16.348  0.00  0.00     0.252 S 
ATOM     14  O32 H1S d 601      31.198  16.426  15.808  0.00  0.00    -0.572 OA
ATOM     15  C27 H1S d 601      25.369  14.543  17.320  0.00  0.00     0.233 C 
ATOM     16  C10 H1S d 601      25.731   8.993  13.569  0.00  0.00     0.147 C 
ATOM     17  O22 H1S d 601      31.547   9.394  14.950  0.00  0.00    -0.572 OA
ATOM     18  O23 H1S d 601      30.479   9.154  17.292  0.00  0.00    -0.572 OA
ATOM     19  O35 H1S d 601      25.140  13.693  18.204  0.00  0.00    -0.642 OA
ATOM     20  C6  H1S d 601      29.198  10.265  14.082  0.00  0.00     0.067 C 
ATOM     21  O25 H1S d 601      28.025  15.279  13.499  0.00  0.00    -0.389 OA
ATOM     22  O18 H1S d 601      29.845  14.613  16.586  0.00  0.00    -0.244 OA
ATOM     23  O30 H1S d 601      22.959   7.501  13.967  0.00  0.00    -0.296 OA
ATOM     24  O28 H1S d 601      23.159   8.621  16.137  0.00  0.00    -0.296 OA
ATOM     25  O31 H1S d 601      31.836  14.104  15.357  0.00  0.00    -0.572 OA
ATOM     26  O5  H1S d 601      27.119   9.029  13.943  0.00  0.00    -0.350 OA
ATOM     27  O13 H1S d 601      27.448  13.316  16.695  0.00  0.00    -0.311 OA
ATOM     28  O34 H1S d 601      24.595  15.481  17.025  0.00  0.00    -0.642 OA
ATOM     29  O11 H1S d 601      29.404   9.854  15.438  0.00  0.00    -0.254 OA
ATOM     30  C8  H1S d 601      24.934   9.995  14.410  0.00  0.00     0.081 C 
ATOM     31  O29 H1S d 601      21.238   9.082  14.701  0.00  0.00    -0.296 OA
ATOM     32  C12 H1S d 601      29.212  14.268  15.350  0.00  0.00     0.135 C 
ATOM     33  C24 H1S d 601      27.047  15.476  15.696  0.00  0.00    -0.034 C 
ATOM     34  O3  H1S d 601      27.586  12.676  14.406  0.00  0.00    -0.348 OA
ATOM     35  S20 H1S d 601      22.706   8.776  14.715  0.00  0.00     0.156 S 
ATOM     36  H   H1S d 601      27.599  10.601  12.698  0.00  0.00     0.090 H 
ATOM     37  H   H1S d 601      25.412  11.705  13.213  0.00  0.00     0.089 H 
ATOM     38  H   H1S d 601      26.100   8.668  11.653  0.00  0.00     0.212 HD
ATOM     39  H   H1S d 601      23.461   9.898  12.995  0.00  0.00     0.140 HD
ATOM     40  H   H1S d 601      24.944  12.035  16.010  0.00  0.00     0.210 HD
ATOM     41  H   H1S d 601      28.884  16.351  15.027  0.00  0.00     0.093 H 
ATOM     42  H   H1S d 601      28.957  12.203  15.835  0.00  0.00     0.134 H 
ATOM     43  H   H1S d 601      27.127  11.092  15.635  0.00  0.00     0.091 H 
ATOM     44  H   H1S d 601      25.349   8.010  13.747  0.00  0.00     0.131 H 
ATOM     45  H   H1S d 601      29.625  11.237  13.947  0.00  0.00     0.080 H 
ATOM     46  H   H1S d 601      29.666   9.548  13.441  0.00  0.00     0.080 H 
ATOM     47  H   H1S d 601      27.536  14.451  13.373  0.00  0.00     0.210 HD
ATOM     48  H   H1S d 601      23.908   7.302  13.976  0.00  0.00     0.231 HD
ATOM     49  H   H1S d 601      24.108   8.423  16.154  0.00  0.00     0.231 HD
ATOM     50  H   H1S d 601      24.994   9.707  15.439  0.00  0.00     0.076 H 
ATOM     51  H   H1S d 601      20.938   9.183  13.784  0.00  0.00     0.231 HD
ATOM     52  H   H1S d 601      29.944  14.054  14.599  0.00  0.00     0.097 H 
ATOM     53  H   H1S d 601      26.430  16.299  15.618  0.00  0.00     0.085 H 
ENDROOT
TORSDOF 16
ENDMDL
MODEL 18
REMARK VINA RESULT:      -5.2      2.033      5.025
REMARK  0 active torsions:
REMARK  status: ('A' for Active; 'I' for Inactive)
REMARK       I    between atoms: C2_2  and  C6_20 
REMARK       I    between atoms: C4_3  and  O9_7 
REMARK       I    between atoms: O15_4  and  C10_16 
REMARK       I    between atoms: N14_5  and  C8_30 
REMARK       I    between atoms: N14_5  and  S20_35 
REMARK       I    between atoms: S16_6  and  O11_29 
REMARK       I    between atoms: C17_8  and  O25_21 
REMARK       I    between atoms: C7_9  and  O3_34 
REMARK       I    between atoms: C1_10  and  O3_34 
REMARK       I    between atoms: C19_11  and  C27_15 
REMARK       I    between atoms: S26_13  and  O18_22 
REMARK       I    between atoms: C6_20  and  O11_29 
REMARK       I    between atoms: O18_22  and  C12_32 
REMARK       I    between atoms: O30_23  and  S20_35 
REMARK       I    between atoms: O28_24  and  S20_35 
REMARK       I    between atoms: O29_31  and  S20_35 
ROOT
ATOM      1  O33 H1S d 601      23.955  12.498  17.910  0.00  0.00    -0.572 OA
ATOM      2  C2  H1S d 601      29.471  11.940  12.967  0.00  0.00     0.091 C 
ATOM      3  C4  H1S d 601      29.184   9.525  12.450  0.00  0.00     0.083 C 
ATOM      4  O15 H1S d 601      31.006  11.087  10.772  0.00  0.00    -0.369 OA
ATOM      5  N14 H1S d 601      31.126   8.342  11.532  0.00  0.00    -0.210 NA
ATOM      6  S16 H1S d 601      29.012  13.653  16.326  0.00  0.00     0.251 S 
ATOM      7  O9  H1S d 601      28.584   8.300  12.879  0.00  0.00    -0.391 OA
ATOM      8  C17 H1S d 601      24.504  10.393  13.892  0.00  0.00     0.086 C 
ATOM      9  C7  H1S d 601      26.823  10.848  14.715  0.00  0.00     0.167 C 
ATOM     10  C1  H1S d 601      28.769  10.649  13.402  0.00  0.00     0.095 C 
ATOM     11  C19 H1S d 601      26.095   8.608  14.787  0.00  0.00     0.147 C 
ATOM     12  O21 H1S d 601      27.619  13.112  16.468  0.00  0.00    -0.572 OA
ATOM     13  S26 H1S d 601      24.081  12.357  16.421  0.00  0.00     0.252 S 
ATOM     14  O32 H1S d 601      22.722  12.143  15.825  0.00  0.00    -0.572 OA
ATOM     15  C27 H1S d 601      26.453   7.129  14.955  0.00  0.00     0.233 C 
ATOM     16  C10 H1S d 601      31.348  10.731  12.115  0.00  0.00     0.147 C 
ATOM     17  O22 H1S d 601      29.208  15.010  15.722  0.00  0.00    -0.572 OA
ATOM     18  O23 H1S d 601      29.925  13.209  17.432  0.00  0.00    -0.572 OA
ATOM     19  O35 H1S d 601      27.386   6.837  15.730  0.00  0.00    -0.642 OA
ATOM     20  C6  H1S d 601      29.075  13.084  13.905  0.00  0.00     0.067 C 
ATOM     21  O25 H1S d 601      24.668  10.740  12.513  0.00  0.00    -0.389 OA
ATOM     22  O18 H1S d 601      24.917  11.236  16.116  0.00  0.00    -0.244 OA
ATOM     23  O30 H1S d 601      33.666   8.667  11.455  0.00  0.00    -0.296 OA
ATOM     24  O28 H1S d 601      32.682   7.592  13.425  0.00  0.00    -0.296 OA
ATOM     25  O31 H1S d 601      24.687  13.605  15.852  0.00  0.00    -0.572 OA
ATOM     26  O5  H1S d 601      30.896  11.753  13.020  0.00  0.00    -0.350 OA
ATOM     27  O13 H1S d 601      26.913   9.551  15.332  0.00  0.00    -0.311 OA
ATOM     28  O34 H1S d 601      25.792   6.292  14.299  0.00  0.00    -0.642 OA
ATOM     29  O11 H1S d 601      29.486  12.832  15.253  0.00  0.00    -0.254 OA
ATOM     30  C8  H1S d 601      30.707   9.387  12.477  0.00  0.00     0.081 C 
ATOM     31  O29 H1S d 601      32.764   6.395  11.297  0.00  0.00    -0.296 OA
ATOM     32  C12 H1S d 601      25.366  11.313  14.760  0.00  0.00     0.135 C 
ATOM     33  C24 H1S d 601      24.933   8.939  14.096  0.00  0.00    -0.034 C 
ATOM     34  O3  H1S d 601      27.328  10.812  13.355  0.00  0.00    -0.348 OA
ATOM     35  S20 H1S d 601      32.588   7.742  11.935  0.00  0.00     0.156 S 
ATOM     36  H   H1S d 601      29.177  12.180  11.967  0.00  0.00     0.090 H 
ATOM     37  H   H1S d 601      28.860   9.750  11.455  0.00  0.00     0.089 H 
ATOM     38  H   H1S d 601      31.414  11.938  10.549  0.00  0.00     0.212 HD
ATOM     39  H   H1S d 601      31.176   8.741  10.595  0.00  0.00     0.140 HD
ATOM     40  H   H1S d 601      28.877   8.095  13.780  0.00  0.00     0.210 HD
ATOM     41  H   H1S d 601      23.478  10.508  14.173  0.00  0.00     0.093 H 
ATOM     42  H   H1S d 601      27.431  11.546  15.252  0.00  0.00     0.134 H 
ATOM     43  H   H1S d 601      29.051  10.413  14.406  0.00  0.00     0.091 H 
ATOM     44  H   H1S d 601      32.411  10.641  12.195  0.00  0.00     0.131 H 
ATOM     45  H   H1S d 601      28.011  13.198  13.883  0.00  0.00     0.080 H 
ATOM     46  H   H1S d 601      29.564  13.974  13.569  0.00  0.00     0.080 H 
ATOM     47  H   H1S d 601      25.599  10.635  12.262  0.00  0.00     0.210 HD
ATOM     48  H   H1S d 601      33.552   9.538  11.867  0.00  0.00     0.231 HD
ATOM     49  H   H1S d 601      32.569   8.459  13.844  0.00  0.00     0.231 HD
ATOM     50  H   H1S d 601      31.027   9.106  13.459  0.00  0.00     0.076 H 
ATOM     51  H   H1S d 601      32.705   6.484  10.333  0.00  0.00     0.231 HD
ATOM     52  H   H1S d 601      25.287  12.315  14.392  0.00  0.00     0.097 H 
ATOM     53  H   H1S d 601      24.345   8.183  13.710  0.00  0.00     0.085 H 
ENDROOT
TORSDOF 16
ENDMDL
MODEL 19
REMARK VINA RESULT:      -4.2      3.180      6.612
REMARK  0 active torsions:
REMARK  status: ('A' for Active; 'I' for Inactive)
REMARK       I    between atoms: C2_2  and  C6_20 
REMARK       I    between atoms: C4_3  and  O9_7 
REMARK       I    between atoms: O15_4  and  C10_16 
REMARK       I    between atoms: N14_5  and  C8_30 
REMARK       I    between atoms: N14_5  and  S20_35 
REMARK       I    between atoms: S16_6  and  O11_29 
REMARK       I    between atoms: C17_8  and  O25_21 
REMARK       I    between atoms: C7_9  and  O3_34 
REMARK       I    between atoms: C1_10  and  O3_34 
REMARK       I    between atoms: C19_11  and  C27_15 
REMARK       I    between atoms: S26_13  and  O18_22 
REMARK       I    between atoms: C6_20  and  O11_29 
REMARK       I    between atoms: O18_22  and  C12_32 
REMARK       I    between atoms: O30_23  and  S20_35 
REMARK       I    between atoms: O28_24  and  S20_35 
REMARK       I    between atoms: O29_31  and  S20_35 
ROOT
ATOM      1  O33 H1S d 601      32.538  15.013  16.654  0.00  0.00    -0.572 OA
ATOM      2  C2  H1S d 601      25.782  11.933  16.481  0.00  0.00     0.091 C 
ATOM      3  C4  H1S d 601      26.418   9.852  15.280  0.00  0.00     0.083 C 
ATOM      4  O15 H1S d 601      23.729  10.014  16.427  0.00  0.00    -0.369 OA
ATOM      5  N14 H1S d 601      24.636   8.664  14.087  0.00  0.00    -0.210 NA
ATOM      6  S16 H1S d 601      27.176  15.426  15.949  0.00  0.00     0.251 S 
ATOM      7  O9  H1S d 601      27.429   9.218  14.493  0.00  0.00    -0.391 OA
ATOM      8  C17 H1S d 601      30.883  10.797  17.255  0.00  0.00     0.086 C 
ATOM      9  C7  H1S d 601      29.101  12.027  16.001  0.00  0.00     0.167 C 
ATOM     10  C1  H1S d 601      26.901  11.243  15.695  0.00  0.00     0.095 C 
ATOM     11  C19 H1S d 601      30.328  10.419  14.791  0.00  0.00     0.147 C 
ATOM     12  O21 H1S d 601      28.584  14.950  16.159  0.00  0.00    -0.572 OA
ATOM     13  S26 H1S d 601      31.832  13.883  17.345  0.00  0.00     0.252 S 
ATOM     14  O32 H1S d 601      32.816  13.118  18.179  0.00  0.00    -0.572 OA
ATOM     15  C27 H1S d 601      30.458   9.563  13.529  0.00  0.00     0.233 C 
ATOM     16  C10 H1S d 601      24.090  10.764  15.264  0.00  0.00     0.147 C 
ATOM     17  O22 H1S d 601      26.409  15.970  17.115  0.00  0.00    -0.572 OA
ATOM     18  O23 H1S d 601      26.963  16.030  14.591  0.00  0.00    -0.572 OA
ATOM     19  O35 H1S d 601      30.048  10.042  12.452  0.00  0.00    -0.642 OA
ATOM     20  C6  H1S d 601      26.237  13.332  16.908  0.00  0.00     0.067 C 
ATOM     21  O25 H1S d 601      30.069  10.089  18.194  0.00  0.00    -0.389 OA
ATOM     22  O18 H1S d 601      31.256  13.011  16.367  0.00  0.00    -0.244 OA
ATOM     23  O30 H1S d 601      22.312   9.200  13.153  0.00  0.00    -0.296 OA
ATOM     24  O28 H1S d 601      24.273   9.702  11.773  0.00  0.00    -0.296 OA
ATOM     25  O31 H1S d 601      30.750  14.435  18.224  0.00  0.00    -0.572 OA
ATOM     26  O5  H1S d 601      24.611  12.047  15.653  0.00  0.00    -0.350 OA
ATOM     27  O13 H1S d 601      29.610  11.576  14.733  0.00  0.00    -0.311 OA
ATOM     28  O34 H1S d 601      30.965   8.425  13.647  0.00  0.00    -0.642 OA
ATOM     29  O11 H1S d 601      26.515  14.167  15.780  0.00  0.00    -0.254 OA
ATOM     30  C8  H1S d 601      25.139   9.995  14.454  0.00  0.00     0.081 C 
ATOM     31  O29 H1S d 601      23.599   7.383  12.134  0.00  0.00    -0.296 OA
ATOM     32  C12 H1S d 601      30.271  12.172  16.977  0.00  0.00     0.135 C 
ATOM     33  C24 H1S d 601      30.962   9.993  15.955  0.00  0.00    -0.034 C 
ATOM     34  O3  H1S d 601      28.094  11.116  16.510  0.00  0.00    -0.348 OA
ATOM     35  S20 H1S d 601      23.685   8.741  12.764  0.00  0.00     0.156 S 
ATOM     36  H   H1S d 601      25.553  11.352  17.350  0.00  0.00     0.090 H 
ATOM     37  H   H1S d 601      26.220   9.259  16.150  0.00  0.00     0.089 H 
ATOM     38  H   H1S d 601      23.065  10.506  16.936  0.00  0.00     0.212 HD
ATOM     39  H   H1S d 601      24.094   8.286  14.865  0.00  0.00     0.140 HD
ATOM     40  H   H1S d 601      27.609   9.754  13.705  0.00  0.00     0.210 HD
ATOM     41  H   H1S d 601      31.866  10.928  17.656  0.00  0.00     0.093 H 
ATOM     42  H   H1S d 601      28.625  12.978  15.880  0.00  0.00     0.134 H 
ATOM     43  H   H1S d 601      27.140  11.829  14.832  0.00  0.00     0.091 H 
ATOM     44  H   H1S d 601      23.222  10.911  14.657  0.00  0.00     0.131 H 
ATOM     45  H   H1S d 601      27.124  13.242  17.499  0.00  0.00     0.080 H 
ATOM     46  H   H1S d 601      25.445  13.783  17.470  0.00  0.00     0.080 H 
ATOM     47  H   H1S d 601      29.179   9.972  17.827  0.00  0.00     0.210 HD
ATOM     48  H   H1S d 601      22.367  10.079  13.560  0.00  0.00     0.231 HD
ATOM     49  H   H1S d 601      24.332  10.583  12.174  0.00  0.00     0.231 HD
ATOM     50  H   H1S d 601      25.348  10.539  13.556  0.00  0.00     0.076 H 
ATOM     51  H   H1S d 601      23.219   6.755  12.768  0.00  0.00     0.231 HD
ATOM     52  H   H1S d 601      29.932  12.596  17.899  0.00  0.00     0.097 H 
ATOM     53  H   H1S d 601      31.499   9.112  15.941  0.00  0.00     0.085 H 
ENDROOT
TORSDOF 16
ENDMDL
MODEL 20
REMARK VINA RESULT:      -4.1      3.257      5.019
REMARK  0 active torsions:
REMARK  status: ('A' for Active; 'I' for Inactive)
REMARK       I    between atoms: C2_2  and  C6_20 
REMARK       I    between atoms: C4_3  and  O9_7 
REMARK       I    between atoms: O15_4  and  C10_16 
REMARK       I    between atoms: N14_5  and  C8_30 
REMARK       I    between atoms: N14_5  and  S20_35 
REMARK       I    between atoms: S16_6  and  O11_29 
REMARK       I    between atoms: C17_8  and  O25_21 
REMARK       I    between atoms: C7_9  and  O3_34 
REMARK       I    between atoms: C1_10  and  O3_34 
REMARK       I    between atoms: C19_11  and  C27_15 
REMARK       I    between atoms: S26_13  and  O18_22 
REMARK       I    between atoms: C6_20  and  O11_29 
REMARK       I    between atoms: O18_22  and  C12_32 
REMARK       I    between atoms: O30_23  and  S20_35 
REMARK       I    between atoms: O28_24  and  S20_35 
REMARK       I    between atoms: O29_31  and  S20_35 
ROOT
ATOM      1  O33 H1S d 601      30.408  16.993  16.305  0.00  0.00    -0.572 OA
ATOM      2  C2  H1S d 601      27.403  10.349  14.897  0.00  0.00     0.091 C 
ATOM      3  C4  H1S d 601      29.519   9.044  14.889  0.00  0.00     0.083 C 
ATOM      4  O15 H1S d 601      26.990   7.569  14.841  0.00  0.00    -0.369 OA
ATOM      5  N14 H1S d 601      29.509   6.911  13.680  0.00  0.00    -0.210 NA
ATOM      6  S16 H1S d 601      26.864  13.886  13.622  0.00  0.00     0.251 S 
ATOM      7  O9  H1S d 601      30.944   9.128  14.819  0.00  0.00    -0.391 OA
ATOM      8  C17 H1S d 601      31.100  12.739  17.818  0.00  0.00     0.086 C 
ATOM      9  C7  H1S d 601      29.892  12.471  15.643  0.00  0.00     0.167 C 
ATOM     10  C1  H1S d 601      28.931  10.457  14.889  0.00  0.00     0.095 C 
ATOM     11  C19 H1S d 601      32.179  11.904  15.660  0.00  0.00     0.147 C 
ATOM     12  O21 H1S d 601      27.968  14.420  14.487  0.00  0.00    -0.572 OA
ATOM     13  S26 H1S d 601      30.139  15.730  17.068  0.00  0.00     0.252 S 
ATOM     14  O32 H1S d 601      30.776  15.822  18.422  0.00  0.00    -0.572 OA
ATOM     15  C27 H1S d 601      33.355  11.225  14.954  0.00  0.00     0.233 C 
ATOM     16  C10 H1S d 601      27.458   8.285  13.694  0.00  0.00     0.147 C 
ATOM     17  O22 H1S d 601      25.457  13.916  14.135  0.00  0.00    -0.572 OA
ATOM     18  O23 H1S d 601      27.109  14.112  12.158  0.00  0.00    -0.572 OA
ATOM     19  O35 H1S d 601      33.384  11.252  13.707  0.00  0.00    -0.642 OA
ATOM     20  C6  H1S d 601      26.785  11.751  14.896  0.00  0.00     0.067 C 
ATOM     21  O25 H1S d 601      30.414  11.752  18.596  0.00  0.00    -0.389 OA
ATOM     22  O18 H1S d 601      30.690  14.616  16.357  0.00  0.00    -0.244 OA
ATOM     23  O30 H1S d 601      28.115   5.791  11.846  0.00  0.00    -0.296 OA
ATOM     24  O28 H1S d 601      29.924   7.305  11.183  0.00  0.00    -0.296 OA
ATOM     25  O31 H1S d 601      28.659  15.545  17.221  0.00  0.00    -0.572 OA
ATOM     26  O5  H1S d 601      26.964   9.636  13.728  0.00  0.00    -0.350 OA
ATOM     27  O13 H1S d 601      31.126  12.342  14.915  0.00  0.00    -0.311 OA
ATOM     28  O34 H1S d 601      34.222  10.672  15.667  0.00  0.00    -0.642 OA
ATOM     29  O11 H1S d 601      27.135  12.483  13.717  0.00  0.00    -0.254 OA
ATOM     30  C8  H1S d 601      28.990   8.286  13.670  0.00  0.00     0.081 C 
ATOM     31  O29 H1S d 601      30.452   5.115  12.127  0.00  0.00    -0.296 OA
ATOM     32  C12 H1S d 601      30.122  13.395  16.841  0.00  0.00     0.135 C 
ATOM     33  C24 H1S d 601      32.233  12.064  17.041  0.00  0.00    -0.034 C 
ATOM     34  O3  H1S d 601      29.398  11.173  16.061  0.00  0.00    -0.348 OA
ATOM     35  S20 H1S d 601      29.496   6.269  12.181  0.00  0.00     0.156 S 
ATOM     36  H   H1S d 601      27.092   9.823  15.777  0.00  0.00     0.090 H 
ATOM     37  H   H1S d 601      29.236   8.530  15.784  0.00  0.00     0.089 H 
ATOM     38  H   H1S d 601      26.020   7.572  14.851  0.00  0.00     0.212 HD
ATOM     39  H   H1S d 601      28.926   6.339  14.293  0.00  0.00     0.140 HD
ATOM     40  H   H1S d 601      31.202   9.594  14.009  0.00  0.00     0.210 HD
ATOM     41  H   H1S d 601      31.505  13.490  18.464  0.00  0.00     0.093 H 
ATOM     42  H   H1S d 601      29.142  12.898  15.010  0.00  0.00     0.134 H 
ATOM     43  H   H1S d 601      29.243  10.993  14.018  0.00  0.00     0.091 H 
ATOM     44  H   H1S d 601      27.098   7.805  12.809  0.00  0.00     0.131 H 
ATOM     45  H   H1S d 601      27.138  12.286  15.753  0.00  0.00     0.080 H 
ATOM     46  H   H1S d 601      25.721  11.645  14.920  0.00  0.00     0.080 H 
ATOM     47  H   H1S d 601      30.049  11.074  18.007  0.00  0.00     0.210 HD
ATOM     48  H   H1S d 601      27.497   6.538  11.881  0.00  0.00     0.231 HD
ATOM     49  H   H1S d 601      29.310   8.055  11.213  0.00  0.00     0.231 HD
ATOM     50  H   H1S d 601      29.321   8.767  12.774  0.00  0.00     0.076 H 
ATOM     51  H   H1S d 601      30.182   4.440  12.769  0.00  0.00     0.231 HD
ATOM     52  H   H1S d 601      29.198  13.583  17.346  0.00  0.00     0.097 H 
ATOM     53  H   H1S d 601      33.059  11.719  17.556  0.00  0.00     0.085 H 
ENDROOT
TORSDOF 16
ENDMDL
MODEL 21
REMARK VINA RESULT:      -4.1      3.076      5.318
REMARK  0 active torsions:
REMARK  status: ('A' for Active; 'I' for Inactive)
REMARK       I    between atoms: C2_2  and  C6_20 
REMARK       I    between atoms: C4_3  and  O9_7 
REMARK       I    between atoms: O15_4  and  C10_16 
REMARK       I    between atoms: N14_5  and  C8_30 
REMARK       I    between atoms: N14_5  and  S20_35 
REMARK       I    between atoms: S16_6  and  O11_29 
REMARK       I    between atoms: C17_8  and  O25_21 
REMARK       I    between atoms: C7_9  and  O3_34 
REMARK       I    between atoms: C1_10  and  O3_34 
REMARK       I    between atoms: C19_11  and  C27_15 
REMARK       I    between atoms: S26_13  and  O18_22 
REMARK       I    between atoms: C6_20  and  O11_29 
REMARK       I    between atoms: O18_22  and  C12_32 
REMARK       I    between atoms: O30_23  and  S20_35 
REMARK       I    between atoms: O28_24  and  S20_35 
REMARK       I    between atoms: O29_31  and  S20_35 
ROOT
ATOM      1  O33 H1S d 601      23.633   9.451  11.013  0.00  0.00    -0.572 OA
ATOM      2  C2  H1S d 601      29.294   9.728  15.813  0.00  0.00     0.091 C 
ATOM      3  C4  H1S d 601      28.629  11.831  16.959  0.00  0.00     0.083 C 
ATOM      4  O15 H1S d 601      30.804  10.255  18.125  0.00  0.00    -0.369 OA
ATOM      5  N14 H1S d 601      30.395  13.076  18.119  0.00  0.00    -0.210 NA
ATOM      6  S16 H1S d 601      28.910   8.882  12.131  0.00  0.00     0.251 S 
ATOM      7  O9  H1S d 601      27.799  12.992  16.884  0.00  0.00    -0.391 OA
ATOM      8  C17 H1S d 601      24.083  10.513  15.433  0.00  0.00     0.086 C 
ATOM      9  C7  H1S d 601      26.384  10.723  14.472  0.00  0.00     0.167 C 
ATOM     10  C1  H1S d 601      28.351  10.933  15.752  0.00  0.00     0.095 C 
ATOM     11  C19 H1S d 601      25.275  12.732  15.012  0.00  0.00     0.147 C 
ATOM     12  O21 H1S d 601      27.439   9.175  12.165  0.00  0.00    -0.572 OA
ATOM     13  S26 H1S d 601      23.835   9.224  12.482  0.00  0.00     0.252 S 
ATOM     14  O32 H1S d 601      22.503   9.022  13.141  0.00  0.00    -0.572 OA
ATOM     15  C27 H1S d 601      25.360  14.244  15.236  0.00  0.00     0.233 C 
ATOM     16  C10 H1S d 601      30.987  11.002  16.918  0.00  0.00     0.147 C 
ATOM     17  O22 H1S d 601      29.379   7.476  12.348  0.00  0.00    -0.572 OA
ATOM     18  O23 H1S d 601      29.656   9.757  11.164  0.00  0.00    -0.572 OA
ATOM     19  O35 H1S d 601      26.174  14.892  14.548  0.00  0.00    -0.642 OA
ATOM     20  C6  H1S d 601      29.039   8.810  14.614  0.00  0.00     0.067 C 
ATOM     21  O25 H1S d 601      24.398   9.859  16.667  0.00  0.00    -0.389 OA
ATOM     22  O18 H1S d 601      24.483  10.363  13.057  0.00  0.00    -0.244 OA
ATOM     23  O30 H1S d 601      32.952  13.218  18.056  0.00  0.00    -0.296 OA
ATOM     24  O28 H1S d 601      31.665  14.562  16.463  0.00  0.00    -0.296 OA
ATOM     25  O31 H1S d 601      24.685   8.006  12.687  0.00  0.00    -0.572 OA
ATOM     26  O5  H1S d 601      30.658  10.182  15.783  0.00  0.00    -0.350 OA
ATOM     27  O13 H1S d 601      26.206  12.129  14.220  0.00  0.00    -0.311 OA
ATOM     28  O34 H1S d 601      24.611  14.746  16.104  0.00  0.00    -0.642 OA
ATOM     29  O11 H1S d 601      29.307   9.473  13.373  0.00  0.00    -0.254 OA
ATOM     30  C8  H1S d 601      30.100  12.250  16.939  0.00  0.00     0.081 C 
ATOM     31  O29 H1S d 601      31.683  15.165  18.830  0.00  0.00    -0.296 OA
ATOM     32  C12 H1S d 601      25.029  10.024  14.335  0.00  0.00     0.135 C 
ATOM     33  C24 H1S d 601      24.239  12.025  15.615  0.00  0.00    -0.034 C 
ATOM     34  O3  H1S d 601      26.966  10.500  15.782  0.00  0.00    -0.348 OA
ATOM     35  S20 H1S d 601      31.700  14.020  17.861  0.00  0.00     0.156 S 
ATOM     36  H   H1S d 601      29.115   9.187  16.720  0.00  0.00     0.090 H 
ATOM     37  H   H1S d 601      28.418  11.301  17.865  0.00  0.00     0.089 H 
ATOM     38  H   H1S d 601      31.368   9.466  18.106  0.00  0.00     0.212 HD
ATOM     39  H   H1S d 601      30.577  12.465  18.916  0.00  0.00     0.140 HD
ATOM     40  H   H1S d 601      27.989  13.473  16.063  0.00  0.00     0.210 HD
ATOM     41  H   H1S d 601      23.076  10.287  15.152  0.00  0.00     0.093 H 
ATOM     42  H   H1S d 601      27.065  10.312  13.757  0.00  0.00     0.134 H 
ATOM     43  H   H1S d 601      28.519  11.468  14.841  0.00  0.00     0.091 H 
ATOM     44  H   H1S d 601      32.010  11.304  16.843  0.00  0.00     0.131 H 
ATOM     45  H   H1S d 601      28.015   8.500  14.626  0.00  0.00     0.080 H 
ATOM     46  H   H1S d 601      29.697   7.970  14.692  0.00  0.00     0.080 H 
ATOM     47  H   H1S d 601      25.311  10.067  16.918  0.00  0.00     0.210 HD
ATOM     48  H   H1S d 601      32.963  12.477  17.429  0.00  0.00     0.231 HD
ATOM     49  H   H1S d 601      31.675  13.827  15.831  0.00  0.00     0.231 HD
ATOM     50  H   H1S d 601      30.298  12.829  16.061  0.00  0.00     0.076 H 
ATOM     51  H   H1S d 601      31.707  14.822  19.737  0.00  0.00     0.231 HD
ATOM     52  H   H1S d 601      25.151   8.965  14.425  0.00  0.00     0.097 H 
ATOM     53  H   H1S d 601      23.557  12.534  16.199  0.00  0.00     0.085 H 
ENDROOT
TORSDOF 16
ENDMDL
MODEL 22
REMARK VINA RESULT:      -3.5      2.798      6.903
REMARK  0 active torsions:
REMARK  status: ('A' for Active; 'I' for Inactive)
REMARK       I    between atoms: C2_2  and  C6_20 
REMARK       I    between atoms: C4_3  and  O9_7 
REMARK       I    between atoms: O15_4  and  C10_16 
REMARK       I    between atoms: N14_5  and  C8_30 
REMARK       I    between atoms: N14_5  and  S20_35 
REMARK       I    between atoms: S16_6  and  O11_29 
REMARK       I    between atoms: C17_8  and  O25_21 
REMARK       I    between atoms: C7_9  and  O3_34 
REMARK       I    between atoms: C1_10  and  O3_34 
REMARK       I    between atoms: C19_11  and  C27_15 
REMARK       I    between atoms: S26_13  and  O18_22 
REMARK       I    between atoms: C6_20  and  O11_29 
REMARK       I    between atoms: O18_22  and  C12_32 
REMARK       I    between atoms: O30_23  and  S20_35 
REMARK       I    between atoms: O28_24  and  S20_35 
REMARK       I    between atoms: O29_31  and  S20_35 
ROOT
ATOM      1  O33 H1S d 601      29.234   5.175  13.536  0.00  0.00    -0.572 OA
ATOM      2  C2  H1S d 601      26.670  12.144  13.420  0.00  0.00     0.091 C 
ATOM      3  C4  H1S d 601      28.538  13.186  14.687  0.00  0.00     0.083 C 
ATOM      4  O15 H1S d 601      26.590  14.954  13.403  0.00  0.00    -0.369 OA
ATOM      5  N14 H1S d 601      28.074  15.316  15.809  0.00  0.00    -0.210 NA
ATOM      6  S16 H1S d 601      25.142   8.710  13.962  0.00  0.00     0.251 S 
ATOM      7  O9  H1S d 601      29.661  12.932  15.535  0.00  0.00    -0.391 OA
ATOM      8  C17 H1S d 601      31.096   9.302  12.925  0.00  0.00     0.086 C 
ATOM      9  C7  H1S d 601      28.911   9.732  14.065  0.00  0.00     0.167 C 
ATOM     10  C1  H1S d 601      27.908  11.854  14.274  0.00  0.00     0.095 C 
ATOM     11  C19 H1S d 601      30.857  10.021  15.363  0.00  0.00     0.147 C 
ATOM     12  O21 H1S d 601      26.479   8.039  13.832  0.00  0.00    -0.572 OA
ATOM     13  S26 H1S d 601      29.574   6.455  12.830  0.00  0.00     0.252 S 
ATOM     14  O32 H1S d 601      30.848   6.275  12.059  0.00  0.00    -0.572 OA
ATOM     15  C27 H1S d 601      31.496  10.560  16.645  0.00  0.00     0.233 C 
ATOM     16  C10 H1S d 601      26.255  14.198  14.570  0.00  0.00     0.147 C 
ATOM     17  O22 H1S d 601      24.273   8.844  12.750  0.00  0.00    -0.572 OA
ATOM     18  O23 H1S d 601      24.499   8.469  15.297  0.00  0.00    -0.572 OA
ATOM     19  O35 H1S d 601      30.817  10.541  17.691  0.00  0.00    -0.642 OA
ATOM     20  C6  H1S d 601      26.016  10.827  12.992  0.00  0.00     0.067 C 
ATOM     21  O25 H1S d 601      31.072  10.357  11.957  0.00  0.00    -0.389 OA
ATOM     22  O18 H1S d 601      29.743   7.501  13.792  0.00  0.00    -0.244 OA
ATOM     23  O30 H1S d 601      26.017  16.612  16.616  0.00  0.00    -0.296 OA
ATOM     24  O28 H1S d 601      26.971  14.898  18.084  0.00  0.00    -0.296 OA
ATOM     25  O31 H1S d 601      28.464   6.814  11.887  0.00  0.00    -0.572 OA
ATOM     26  O5  H1S d 601      25.728  12.916  14.186  0.00  0.00    -0.350 OA
ATOM     27  O13 H1S d 601      29.529   9.719  15.365  0.00  0.00    -0.311 OA
ATOM     28  O34 H1S d 601      32.666  10.999  16.571  0.00  0.00    -0.642 OA
ATOM     29  O11 H1S d 601      25.564  10.069  14.119  0.00  0.00    -0.254 OA
ATOM     30  C8  H1S d 601      27.499  14.013  15.445  0.00  0.00     0.081 C 
ATOM     31  O29 H1S d 601      28.163  17.000  17.729  0.00  0.00    -0.296 OA
ATOM     32  C12 H1S d 601      29.676   8.776  13.148  0.00  0.00     0.135 C 
ATOM     33  C24 H1S d 601      31.660   9.843  14.240  0.00  0.00    -0.034 C 
ATOM     34  O3  H1S d 601      28.875  11.076  13.522  0.00  0.00    -0.348 OA
ATOM     35  S20 H1S d 601      27.288  15.968  17.081  0.00  0.00     0.156 S 
ATOM     36  H   H1S d 601      26.963  12.696  12.551  0.00  0.00     0.090 H 
ATOM     37  H   H1S d 601      28.862  13.722  13.819  0.00  0.00     0.089 H 
ATOM     38  H   H1S d 601      25.798  15.068  12.853  0.00  0.00     0.212 HD
ATOM     39  H   H1S d 601      27.999  15.948  15.012  0.00  0.00     0.140 HD
ATOM     40  H   H1S d 601      29.369  12.446  16.322  0.00  0.00     0.210 HD
ATOM     41  H   H1S d 601      31.712   8.502  12.571  0.00  0.00     0.093 H 
ATOM     42  H   H1S d 601      27.895   9.404  14.146  0.00  0.00     0.134 H 
ATOM     43  H   H1S d 601      27.619  11.292  15.137  0.00  0.00     0.091 H 
ATOM     44  H   H1S d 601      25.512  14.725  15.130  0.00  0.00     0.131 H 
ATOM     45  H   H1S d 601      26.731  10.246  12.449  0.00  0.00     0.080 H 
ATOM     46  H   H1S d 601      25.167  11.059  12.384  0.00  0.00     0.080 H 
ATOM     47  H   H1S d 601      30.512  11.079  12.281  0.00  0.00     0.210 HD
ATOM     48  H   H1S d 601      25.451  15.944  16.197  0.00  0.00     0.231 HD
ATOM     49  H   H1S d 601      26.406  14.227  17.671  0.00  0.00     0.231 HD
ATOM     50  H   H1S d 601      27.217  13.504  16.343  0.00  0.00     0.076 H 
ATOM     51  H   H1S d 601      28.372  17.696  17.087  0.00  0.00     0.231 HD
ATOM     52  H   H1S d 601      29.181   8.696  12.203  0.00  0.00     0.097 H 
ATOM     53  H   H1S d 601      32.663  10.082  14.297  0.00  0.00     0.085 H 
ENDROOT
TORSDOF 16
ENDMDL
MODEL 23
REMARK VINA RESULT:      -2.9      3.098      7.351
REMARK  0 active torsions:
REMARK  status: ('A' for Active; 'I' for Inactive)
REMARK       I    between atoms: C2_2  and  C6_20 
REMARK       I    between atoms: C4_3  and  O9_7 
REMARK       I    between atoms: O15_4  and  C10_16 
REMARK       I    between atoms: N14_5  and  C8_30 
REMARK       I    between atoms: N14_5  and  S20_35 
REMARK       I    between atoms: S16_6  and  O11_29 
REMARK       I    between atoms: C17_8  and  O25_21 
REMARK       I    between atoms: C7_9  and  O3_34 
REMARK       I    between atoms: C1_10  and  O3_34 
REMARK       I    between atoms: C19_11  and  C27_15 
REMARK       I    between atoms: S26_13  and  O18_22 
REMARK       I    between atoms: C6_20  and  O11_29 
REMARK       I    between atoms: O18_22  and  C12_32 
REMARK       I    between atoms: O30_23  and  S20_35 
REMARK       I    between atoms: O28_24  and  S20_35 
REMARK       I    between atoms: O29_31  and  S20_35 
ROOT
ATOM      1  O33 H1S d 601      29.612   6.208  11.205  0.00  0.00    -0.572 OA
ATOM      2  C2  H1S d 601      30.947  11.526  16.215  0.00  0.00     0.091 C 
ATOM      3  C4  H1S d 601      28.615  12.364  16.409  0.00  0.00     0.083 C 
ATOM      4  O15 H1S d 601      30.594  13.340  18.333  0.00  0.00    -0.369 OA
ATOM      5  N14 H1S d 601      28.318  14.655  17.232  0.00  0.00    -0.210 NA
ATOM      6  S16 H1S d 601      32.693  10.254  13.091  0.00  0.00     0.251 S 
ATOM      7  O9  H1S d 601      27.318  12.365  15.807  0.00  0.00    -0.391 OA
ATOM      8  C17 H1S d 601      27.476   7.753  14.936  0.00  0.00     0.086 C 
ATOM      9  C7  H1S d 601      29.022   9.599  14.255  0.00  0.00     0.167 C 
ATOM     10  C1  H1S d 601      29.547  11.464  15.596  0.00  0.00     0.095 C 
ATOM     11  C19 H1S d 601      26.723   9.949  13.872  0.00  0.00     0.147 C 
ATOM     12  O21 H1S d 601      31.609   9.248  12.834  0.00  0.00    -0.572 OA
ATOM     13  S26 H1S d 601      29.352   6.425  12.667  0.00  0.00     0.252 S 
ATOM     14  O32 H1S d 601      28.477   5.323  13.185  0.00  0.00    -0.572 OA
ATOM     15  C27 H1S d 601      25.597  10.927  13.528  0.00  0.00     0.233 C 
ATOM     16  C10 H1S d 601      30.607  13.768  16.968  0.00  0.00     0.147 C 
ATOM     17  O22 H1S d 601      33.903   9.839  13.870  0.00  0.00    -0.572 OA
ATOM     18  O23 H1S d 601      32.851  11.239  11.968  0.00  0.00    -0.572 OA
ATOM     19  O35 H1S d 601      25.856  11.870  12.754  0.00  0.00    -0.642 OA
ATOM     20  C6  H1S d 601      31.904  10.633  15.420  0.00  0.00     0.067 C 
ATOM     21  O25 H1S d 601      27.678   7.783  16.352  0.00  0.00    -0.389 OA
ATOM     22  O18 H1S d 601      28.694   7.683  12.853  0.00  0.00    -0.244 OA
ATOM     23  O30 H1S d 601      29.731  16.782  17.435  0.00  0.00    -0.296 OA
ATOM     24  O28 H1S d 601      28.595  16.329  15.312  0.00  0.00    -0.296 OA
ATOM     25  O31 H1S d 601      30.654   6.424  13.411  0.00  0.00    -0.572 OA
ATOM     26  O5  H1S d 601      31.426  12.881  16.186  0.00  0.00    -0.350 OA
ATOM     27  O13 H1S d 601      27.994  10.243  13.480  0.00  0.00    -0.311 OA
ATOM     28  O34 H1S d 601      24.476  10.729  14.049  0.00  0.00    -0.642 OA
ATOM     29  O11 H1S d 601      32.038  11.075  14.065  0.00  0.00    -0.254 OA
ATOM     30  C8  H1S d 601      29.177  13.787  16.415  0.00  0.00     0.081 C 
ATOM     31  O29 H1S d 601      27.297  16.998  17.270  0.00  0.00    -0.296 OA
ATOM     32  C12 H1S d 601      28.787   8.087  14.222  0.00  0.00     0.135 C 
ATOM     33  C24 H1S d 601      26.407   8.782  14.562  0.00  0.00    -0.034 C 
ATOM     34  O3  H1S d 601      29.040  10.104  15.615  0.00  0.00    -0.348 OA
ATOM     35  S20 H1S d 601      28.492  16.220  16.804  0.00  0.00     0.156 S 
ATOM     36  H   H1S d 601      30.899  11.183  17.228  0.00  0.00     0.090 H 
ATOM     37  H   H1S d 601      28.540  12.002  17.414  0.00  0.00     0.089 H 
ATOM     38  H   H1S d 601      31.502  13.331  18.677  0.00  0.00     0.212 HD
ATOM     39  H   H1S d 601      28.572  14.548  18.214  0.00  0.00     0.140 HD
ATOM     40  H   H1S d 601      27.384  12.693  14.897  0.00  0.00     0.210 HD
ATOM     41  H   H1S d 601      27.155   6.777  14.637  0.00  0.00     0.093 H 
ATOM     42  H   H1S d 601      29.981   9.815  13.832  0.00  0.00     0.134 H 
ATOM     43  H   H1S d 601      29.594  11.794  14.580  0.00  0.00     0.091 H 
ATOM     44  H   H1S d 601      31.013  14.756  16.912  0.00  0.00     0.131 H 
ATOM     45  H   H1S d 601      31.526   9.632  15.421  0.00  0.00     0.080 H 
ATOM     46  H   H1S d 601      32.867  10.681  15.883  0.00  0.00     0.080 H 
ATOM     47  H   H1S d 601      27.968   8.669  16.619  0.00  0.00     0.210 HD
ATOM     48  H   H1S d 601      30.505  16.279  17.133  0.00  0.00     0.231 HD
ATOM     49  H   H1S d 601      29.366  15.828  15.003  0.00  0.00     0.231 HD
ATOM     50  H   H1S d 601      29.199  14.171  15.417  0.00  0.00     0.076 H 
ATOM     51  H   H1S d 601      27.225  16.932  18.235  0.00  0.00     0.231 HD
ATOM     52  H   H1S d 601      29.591   7.579  14.712  0.00  0.00     0.097 H 
ATOM     53  H   H1S d 601      25.425   8.606  14.828  0.00  0.00     0.085 H 
ENDROOT
TORSDOF 16
ENDMDL
MODEL 24
REMARK VINA RESULT:      -2.6      2.911      6.113
REMARK  0 active torsions:
REMARK  status: ('A' for Active; 'I' for Inactive)
REMARK       I    between atoms: C2_2  and  C6_20 
REMARK       I    between atoms: C4_3  and  O9_7 
REMARK       I    between atoms: O15_4  and  C10_16 
REMARK       I    between atoms: N14_5  and  C8_30 
REMARK       I    between atoms: N14_5  and  S20_35 
REMARK       I    between atoms: S16_6  and  O11_29 
REMARK       I    between atoms: C17_8  and  O25_21 
REMARK       I    between atoms: C7_9  and  O3_34 
REMARK       I    between atoms: C1_10  and  O3_34 
REMARK       I    between atoms: C19_11  and  C27_15 
REMARK       I    between atoms: S26_13  and  O18_22 
REMARK       I    between atoms: C6_20  and  O11_29 
REMARK       I    between atoms: O18_22  and  C12_32 
REMARK       I    between atoms: O30_23  and  S20_35 
REMARK       I    between atoms: O28_24  and  S20_35 
REMARK       I    between atoms: O29_31  and  S20_35 
ROOT
ATOM      1  O33 H1S d 601      30.316  16.992  16.715  0.00  0.00    -0.572 OA
ATOM      2  C2  H1S d 601      25.165  11.641  16.773  0.00  0.00     0.091 C 
ATOM      3  C4  H1S d 601      26.121  10.267  14.935  0.00  0.00     0.083 C 
ATOM      4  O15 H1S d 601      23.927   9.132  16.506  0.00  0.00    -0.369 OA
ATOM      5  N14 H1S d 601      24.589   8.756  13.759  0.00  0.00    -0.210 NA
ATOM      6  S16 H1S d 601      25.133  15.429  17.051  0.00  0.00     0.251 S 
ATOM      7  O9  H1S d 601      27.043  10.254  13.843  0.00  0.00    -0.391 OA
ATOM      8  C17 H1S d 601      30.370  12.439  16.336  0.00  0.00     0.086 C 
ATOM      9  C7  H1S d 601      28.020  13.113  15.802  0.00  0.00     0.167 C 
ATOM     10  C1  H1S d 601      26.205  11.618  15.648  0.00  0.00     0.095 C 
ATOM     11  C19 H1S d 601      29.351  12.396  13.994  0.00  0.00     0.147 C 
ATOM     12  O21 H1S d 601      26.622  15.504  16.880  0.00  0.00    -0.572 OA
ATOM     13  S26 H1S d 601      30.229  15.560  17.156  0.00  0.00     0.252 S 
ATOM     14  O32 H1S d 601      31.592  15.082  17.560  0.00  0.00    -0.572 OA
ATOM     15  C27 H1S d 601      29.426  11.940  12.535  0.00  0.00     0.233 C 
ATOM     16  C10 H1S d 601      23.703  10.187  15.566  0.00  0.00     0.147 C 
ATOM     17  O22 H1S d 601      24.559  15.378  18.434  0.00  0.00    -0.572 OA
ATOM     18  O23 H1S d 601      24.386  16.170  15.980  0.00  0.00    -0.572 OA
ATOM     19  O35 H1S d 601      28.615  12.434  11.726  0.00  0.00    -0.642 OA
ATOM     20  C6  H1S d 601      25.225  12.985  17.506  0.00  0.00     0.067 C 
ATOM     21  O25 H1S d 601      30.110  11.292  17.151  0.00  0.00    -0.389 OA
ATOM     22  O18 H1S d 601      29.743  14.756  16.077  0.00  0.00    -0.244 OA
ATOM     23  O30 H1S d 601      22.061   8.530  13.415  0.00  0.00    -0.296 OA
ATOM     24  O28 H1S d 601      23.315  10.029  11.937  0.00  0.00    -0.296 OA
ATOM     25  O31 H1S d 601      29.293  15.454  18.323  0.00  0.00    -0.572 OA
ATOM     26  O5  H1S d 601      23.851  11.460  16.218  0.00  0.00    -0.350 OA
ATOM     27  O13 H1S d 601      28.302  13.168  14.392  0.00  0.00    -0.311 OA
ATOM     28  O34 H1S d 601      30.294  11.089  12.235  0.00  0.00    -0.642 OA
ATOM     29  O11 H1S d 601      24.907  14.077  16.636  0.00  0.00    -0.254 OA
ATOM     30  C8  H1S d 601      24.699  10.071  14.407  0.00  0.00     0.081 C 
ATOM     31  O29 H1S d 601      23.567   7.609  11.717  0.00  0.00    -0.296 OA
ATOM     32  C12 H1S d 601      29.286  13.494  16.572  0.00  0.00     0.135 C 
ATOM     33  C24 H1S d 601      30.370  12.018  14.865  0.00  0.00    -0.034 C 
ATOM     34  O3  H1S d 601      27.541  11.798  16.185  0.00  0.00    -0.348 OA
ATOM     35  S20 H1S d 601      23.358   8.732  12.690  0.00  0.00     0.156 S 
ATOM     36  H   H1S d 601      25.376  10.850  17.463  0.00  0.00     0.090 H 
ATOM     37  H   H1S d 601      26.364   9.478  15.616  0.00  0.00     0.089 H 
ATOM     38  H   H1S d 601      23.293   9.210  17.237  0.00  0.00     0.212 HD
ATOM     39  H   H1S d 601      24.425   8.046  14.473  0.00  0.00     0.140 HD
ATOM     40  H   H1S d 601      26.824  10.969  13.225  0.00  0.00     0.210 HD
ATOM     41  H   H1S d 601      31.322  12.855  16.591  0.00  0.00     0.093 H 
ATOM     42  H   H1S d 601      27.241  13.807  16.041  0.00  0.00     0.134 H 
ATOM     43  H   H1S d 601      26.004  12.416  14.965  0.00  0.00     0.091 H 
ATOM     44  H   H1S d 601      22.710  10.108  15.178  0.00  0.00     0.131 H 
ATOM     45  H   H1S d 601      26.213  13.126  17.891  0.00  0.00     0.080 H 
ATOM     46  H   H1S d 601      24.503  12.966  18.295  0.00  0.00     0.080 H 
ATOM     47  H   H1S d 601      29.246  10.919  16.917  0.00  0.00     0.210 HD
ATOM     48  H   H1S d 601      21.925   9.257  14.044  0.00  0.00     0.231 HD
ATOM     49  H   H1S d 601      23.180  10.760  12.559  0.00  0.00     0.231 HD
ATOM     50  H   H1S d 601      24.475  10.827  13.683  0.00  0.00     0.076 H 
ATOM     51  H   H1S d 601      23.595   6.767  12.197  0.00  0.00     0.231 HD
ATOM     52  H   H1S d 601      29.078  13.552  17.619  0.00  0.00     0.097 H 
ATOM     53  H   H1S d 601      31.146  11.438  14.508  0.00  0.00     0.085 H 
ENDROOT
TORSDOF 16
ENDMDL
MODEL 25
REMARK VINA RESULT:      -0.6      2.167      5.213
REMARK  0 active torsions:
REMARK  status: ('A' for Active; 'I' for Inactive)
REMARK       I    between atoms: C2_2  and  C6_20 
REMARK       I    between atoms: C4_3  and  O9_7 
REMARK       I    between atoms: O15_4  and  C10_16 
REMARK       I    between atoms: N14_5  and  C8_30 
REMARK       I    between atoms: N14_5  and  S20_35 
REMARK       I    between atoms: S16_6  and  O11_29 
REMARK       I    between atoms: C17_8  and  O25_21 
REMARK       I    between atoms: C7_9  and  O3_34 
REMARK       I    between atoms: C1_10  and  O3_34 
REMARK       I    between atoms: C19_11  and  C27_15 
REMARK       I    between atoms: S26_13  and  O18_22 
REMARK       I    between atoms: C6_20  and  O11_29 
REMARK       I    between atoms: O18_22  and  C12_32 
REMARK       I    between atoms: O30_23  and  S20_35 
REMARK       I    between atoms: O28_24  and  S20_35 
REMARK       I    between atoms: O29_31  and  S20_35 
ROOT
ATOM      1  O33 H1S d 601      23.798  10.884  17.321  0.00  0.00    -0.572 OA
ATOM      2  C2  H1S d 601      29.630  11.797  12.814  0.00  0.00     0.091 C 
ATOM      3  C4  H1S d 601      29.881   9.417  12.141  0.00  0.00     0.083 C 
ATOM      4  O15 H1S d 601      31.451  11.427  10.705  0.00  0.00    -0.369 OA
ATOM      5  N14 H1S d 601      32.082   8.716  11.318  0.00  0.00    -0.210 NA
ATOM      6  S16 H1S d 601      28.604  13.141  16.215  0.00  0.00     0.251 S 
ATOM      7  O9  H1S d 601      29.518   8.069  12.452  0.00  0.00    -0.391 OA
ATOM      8  C17 H1S d 601      25.037   9.223  13.250  0.00  0.00     0.086 C 
ATOM      9  C7  H1S d 601      27.152  10.075  14.280  0.00  0.00     0.167 C 
ATOM     10  C1  H1S d 601      29.181  10.364  13.118  0.00  0.00     0.095 C 
ATOM     11  C19 H1S d 601      26.896   7.734  14.169  0.00  0.00     0.147 C 
ATOM     12  O21 H1S d 601      27.346  12.322  16.215  0.00  0.00    -0.572 OA
ATOM     13  S26 H1S d 601      24.050  10.878  15.842  0.00  0.00     0.252 S 
ATOM     14  O32 H1S d 601      22.807  10.438  15.128  0.00  0.00    -0.572 OA
ATOM     15  C27 H1S d 601      27.539   6.350  14.282  0.00  0.00     0.233 C 
ATOM     16  C10 H1S d 601      31.768  11.053  12.049  0.00  0.00     0.147 C 
ATOM     17  O22 H1S d 601      28.557  14.549  15.706  0.00  0.00    -0.572 OA
ATOM     18  O23 H1S d 601      29.513  12.812  17.364  0.00  0.00    -0.572 OA
ATOM     19  O35 H1S d 601      28.458   6.197  15.112  0.00  0.00    -0.642 OA
ATOM     20  C6  H1S d 601      28.945  12.769  13.779  0.00  0.00     0.067 C 
ATOM     21  O25 H1S d 601      25.218   9.693  11.910  0.00  0.00    -0.389 OA
ATOM     22  O18 H1S d 601      25.117   9.972  15.543  0.00  0.00    -0.244 OA
ATOM     23  O30 H1S d 601      34.500   9.549  11.462  0.00  0.00    -0.296 OA
ATOM     24  O28 H1S d 601      33.628   8.162  13.284  0.00  0.00    -0.296 OA
ATOM     25  O31 H1S d 601      24.424  12.260  15.394  0.00  0.00    -0.572 OA
ATOM     26  O5  H1S d 601      31.056  11.897  12.971  0.00  0.00    -0.350 OA
ATOM     27  O13 H1S d 601      27.465   8.782  14.829  0.00  0.00    -0.311 OA
ATOM     28  O34 H1S d 601      27.110   5.446  13.530  0.00  0.00    -0.642 OA
ATOM     29  O11 H1S d 601      29.308  12.510  15.139  0.00  0.00    -0.254 OA
ATOM     30  C8  H1S d 601      31.394   9.586  12.283  0.00  0.00     0.081 C 
ATOM     31  O29 H1S d 601      34.097   7.159  11.107  0.00  0.00    -0.296 OA
ATOM     32  C12 H1S d 601      25.630  10.233  14.233  0.00  0.00     0.135 C 
ATOM     33  C24 H1S d 601      25.741   7.874  13.406  0.00  0.00    -0.034 C 
ATOM     34  O3  H1S d 601      27.743  10.237  12.966  0.00  0.00    -0.348 OA
ATOM     35  S20 H1S d 601      33.605   8.394  11.802  0.00  0.00     0.156 S 
ATOM     36  H   H1S d 601      29.361  12.044  11.808  0.00  0.00     0.090 H 
ATOM     37  H   H1S d 601      29.586   9.642  11.138  0.00  0.00     0.089 H 
ATOM     38  H   H1S d 601      31.690  12.357  10.562  0.00  0.00     0.212 HD
ATOM     39  H   H1S d 601      32.111   9.182  10.411  0.00  0.00     0.140 HD
ATOM     40  H   H1S d 601      29.785   7.864  13.361  0.00  0.00     0.210 HD
ATOM     41  H   H1S d 601      23.993   9.110  13.454  0.00  0.00     0.093 H 
ATOM     42  H   H1S d 601      27.566  10.840  14.903  0.00  0.00     0.134 H 
ATOM     43  H   H1S d 601      29.438  10.119  14.127  0.00  0.00     0.091 H 
ATOM     44  H   H1S d 601      32.819  11.173  12.209  0.00  0.00     0.131 H 
ATOM     45  H   H1S d 601      27.885  12.669  13.678  0.00  0.00     0.080 H 
ATOM     46  H   H1S d 601      29.263  13.761  13.533  0.00  0.00     0.080 H 
ATOM     47  H   H1S d 601      26.165   9.795  11.728  0.00  0.00     0.210 HD
ATOM     48  H   H1S d 601      34.182  10.348  11.913  0.00  0.00     0.231 HD
ATOM     49  H   H1S d 601      33.311   8.956  13.741  0.00  0.00     0.231 HD
ATOM     50  H   H1S d 601      31.698   9.306  13.270  0.00  0.00     0.076 H 
ATOM     51  H   H1S d 601      34.086   7.303  10.147  0.00  0.00     0.231 HD
ATOM     52  H   H1S d 601      25.372  11.222  13.917  0.00  0.00     0.097 H 
ATOM     53  H   H1S d 601      25.348   7.044  12.932  0.00  0.00     0.085 H 
ENDROOT
TORSDOF 16
ENDMDL
