MODEL 1
REMARK VINA RESULT:      -7.0      0.000      0.000
REMARK  0 active torsions:
REMARK  status: ('A' for Active; 'I' for Inactive)
REMARK       I    between atoms: S1_1  and  N_36 
REMARK       I    between atoms: S1_1  and  O1S_20 
REMARK       I    between atoms: S1_1  and  O2S_7 
REMARK       I    between atoms: S1_1  and  O3S_31 
REMARK       I    between atoms: C1_2  and  O4_21 
REMARK       I    between atoms: O6_4  and  C6_9 
REMARK       I    between atoms: C2_5  and  O2_18 
REMARK       I    between atoms: C5_6  and  C6_15 
REMARK       I    between atoms: C1_8  and  O1_27 
REMARK       I    between atoms: C6_9  and  C5_16 
REMARK       I    between atoms: S12_12  and  O3_28 
REMARK       I    between atoms: C4_17  and  O4_21 
REMARK       I    between atoms: O2_18  and  S_33 
REMARK       I    between atoms: C3_19  and  O3_28 
REMARK       I    between atoms: C4_23  and  O4_34 
REMARK       I    between atoms: C2_26  and  N_36 
REMARK       I    between atoms: O1_27  and  C7_35 
REMARK       I    between atoms: C3_32  and  O3_37 
ROOT
ATOM      1  S1  GNX d 141      25.517  -8.654 -20.966  0.00  0.00     0.156 S 
ATOM      2  C1  GNX d 141      24.905  -8.318 -24.484  0.00  0.00     0.150 C 
ATOM      3  O32 GNX d 141      29.457  -7.991 -22.151  0.00  0.00    -0.572 OA
ATOM      4  O6  GNX d 141      24.750  -9.784 -28.062  0.00  0.00    -0.398 OA
ATOM      5  O2S GNX d 141      25.832  -7.713 -19.896  0.00  0.00    -0.296 OA
ATOM      6  C6  GNX d 141      26.082  -9.414 -27.783  0.00  0.00     0.043 C 
ATOM      7  S12 GNX d 141      29.709  -9.046 -23.137  0.00  0.00     0.252 S 
ATOM      8  C5  GNX d 141      26.146  -8.745 -26.415  0.00  0.00     0.089 C 
ATOM      9  C3  GNX d 141      27.387  -8.609 -24.235  0.00  0.00     0.107 C 
ATOM     10  O1S GNX d 141      26.250  -9.910 -20.835  0.00  0.00    -0.296 OA
ATOM     11  C4  GNX d 141      27.367  -9.216 -25.634  0.00  0.00     0.090 C 
ATOM     12  O5  GNX d 141      24.976  -9.048 -25.688  0.00  0.00    -0.349 OA
ATOM     13  O12 GNX d 141      30.284 -10.227 -22.409  0.00  0.00    -0.572 OA
ATOM     14  C2  GNX d 141      26.031  -8.758 -23.556  0.00  0.00     0.083 C 
ATOM     15  O3  GNX d 141      28.375  -9.250 -23.460  0.00  0.00    -0.247 OA
ATOM     16  O22 GNX d 141      30.747  -8.534 -24.033  0.00  0.00    -0.572 OA
ATOM     17  O3S GNX d 141      24.079  -8.875 -21.091  0.00  0.00    -0.296 OA
ATOM     18  O4  GNX d 141      28.539  -8.844 -26.324  0.00  0.00    -0.390 OA
ATOM     19  N   GNX d 141      26.001  -7.978 -22.334  0.00  0.00    -0.210 NA
ATOM     20  H   GNX d 141      23.962  -8.501 -24.012  0.00  0.00     0.131 H 
ATOM     21  H   GNX d 141      24.708 -10.210 -28.933  0.00  0.00     0.209 HD
ATOM     22  H   GNX d 141      26.793  -7.593 -19.844  0.00  0.00     0.231 HD
ATOM     23  H   GNX d 141      26.428  -8.732 -28.530  0.00  0.00     0.078 H 
ATOM     24  H   GNX d 141      26.702 -10.287 -27.783  0.00  0.00     0.078 H 
ATOM     25  H   GNX d 141      26.225  -7.688 -26.558  0.00  0.00     0.090 H 
ATOM     26  H   GNX d 141      27.610  -7.565 -24.321  0.00  0.00     0.092 H 
ATOM     27  H   GNX d 141      27.199  -9.724 -20.754  0.00  0.00     0.231 HD
ATOM     28  H   GNX d 141      27.320 -10.280 -25.540  0.00  0.00     0.091 H 
ATOM     29  H   GNX d 141      25.886  -9.791 -23.318  0.00  0.00     0.076 H 
ATOM     30  H   GNX d 141      23.909  -9.503 -21.810  0.00  0.00     0.231 HD
ATOM     31  H   GNX d 141      28.575  -7.878 -26.405  0.00  0.00     0.210 HD
ATOM     32  H   GNX d 141      26.951  -7.641 -22.176  0.00  0.00     0.140 HD
ATOM     33  C2  IDY d 142      24.417  -4.531 -22.736  0.00  0.00     0.134 C 
ATOM     34  C5  IDY d 142      23.741  -5.073 -25.620  0.00  0.00     0.152 C 
ATOM     35  C1  IDY d 142      24.427  -3.506 -23.873  0.00  0.00     0.160 C 
ATOM     36  O5  IDY d 142      24.614  -4.028 -25.192  0.00  0.00    -0.340 OA
ATOM     37  O61 IDY d 142      23.644  -5.934 -27.889  0.00  0.00    -0.646 OA
ATOM     38  OS3 IDY d 142      26.537  -2.562 -21.743  0.00  0.00    -0.572 OA
ATOM     39  OS1 IDY d 142      28.030  -4.450 -21.488  0.00  0.00    -0.572 OA
ATOM     40  C6  IDY d 142      24.389  -5.619 -26.865  0.00  0.00     0.206 C 
ATOM     41  C4  IDY d 142      23.630  -6.187 -24.573  0.00  0.00     0.103 C 
ATOM     42  O2  IDY d 142      25.741  -4.913 -22.299  0.00  0.00    -0.244 OA
ATOM     43  O4  IDY d 142      25.034  -6.942 -24.760  0.00  0.00    -0.348 OA
ATOM     44  O62 IDY d 142      25.649  -5.724 -26.924  0.00  0.00    -0.646 OA
ATOM     45  O1  IDY d 142      23.885  -2.043 -23.562  0.00  0.00    -0.363 OA
ATOM     46  OS2 IDY d 142      26.237  -4.185 -19.948  0.00  0.00    -0.572 OA
ATOM     47  C3  IDY d 142      23.524  -5.721 -23.112  0.00  0.00     0.094 C 
ATOM     48  S   IDY d 142      26.621  -4.021 -21.369  0.00  0.00     0.252 S 
ATOM     49  C7  IDY d 142      23.229  -1.351 -23.770  0.00  0.00     0.007 C 
ATOM     50  O3  IDY d 142      22.159  -5.361 -22.820  0.00  0.00    -0.390 OA
ATOM     51  H   IDY d 142      23.988  -4.065 -21.874  0.00  0.00     0.097 H 
ATOM     52  H   IDY d 142      22.749  -4.706 -25.781  0.00  0.00     0.104 H 
ATOM     53  H   IDY d 142      25.370  -3.006 -23.946  0.00  0.00     0.133 H 
ATOM     54  H   IDY d 142      22.738  -6.757 -24.727  0.00  0.00     0.092 H 
ATOM     55  H   IDY d 142      23.866  -6.553 -22.533  0.00  0.00     0.091 H 
ATOM     56  H   IDY d 142      23.404  -0.496 -23.152  0.00  0.00     0.066 H 
ATOM     57  H   IDY d 142      22.243  -1.728 -23.588  0.00  0.00     0.066 H 
ATOM     58  H   IDY d 142      23.318  -1.072 -24.799  0.00  0.00     0.066 H 
ATOM     59  H   IDY d 142      21.899  -4.605 -23.369  0.00  0.00     0.210 HD
ENDROOT
TORSDOF 18
ENDMDL
MODEL 2
REMARK VINA RESULT:      -7.0      3.717      8.091
REMARK  0 active torsions:
REMARK  status: ('A' for Active; 'I' for Inactive)
REMARK       I    between atoms: S1_1  and  N_36 
REMARK       I    between atoms: S1_1  and  O1S_20 
REMARK       I    between atoms: S1_1  and  O2S_7 
REMARK       I    between atoms: S1_1  and  O3S_31 
REMARK       I    between atoms: C1_2  and  O4_21 
REMARK       I    between atoms: O6_4  and  C6_9 
REMARK       I    between atoms: C2_5  and  O2_18 
REMARK       I    between atoms: C5_6  and  C6_15 
REMARK       I    between atoms: C1_8  and  O1_27 
REMARK       I    between atoms: C6_9  and  C5_16 
REMARK       I    between atoms: S12_12  and  O3_28 
REMARK       I    between atoms: C4_17  and  O4_21 
REMARK       I    between atoms: O2_18  and  S_33 
REMARK       I    between atoms: C3_19  and  O3_28 
REMARK       I    between atoms: C4_23  and  O4_34 
REMARK       I    between atoms: C2_26  and  N_36 
REMARK       I    between atoms: O1_27  and  C7_35 
REMARK       I    between atoms: C3_32  and  O3_37 
ROOT
ATOM      1  S1  GNX d 141      25.103  -8.341 -22.232  0.00  0.00     0.156 S 
ATOM      2  C1  GNX d 141      26.277  -6.906 -19.162  0.00  0.00     0.150 C 
ATOM      3  O32 GNX d 141      27.255  -5.180 -23.888  0.00  0.00    -0.572 OA
ATOM      4  O6  GNX d 141      25.978  -4.348 -16.273  0.00  0.00    -0.398 OA
ATOM      5  O2S GNX d 141      25.728  -9.131 -23.288  0.00  0.00    -0.296 OA
ATOM      6  C6  GNX d 141      26.633  -3.730 -17.358  0.00  0.00     0.043 C 
ATOM      7  S12 GNX d 141      26.673  -3.992 -23.257  0.00  0.00     0.252 S 
ATOM      8  C5  GNX d 141      26.847  -4.750 -18.470  0.00  0.00     0.089 C 
ATOM      9  C3  GNX d 141      26.693  -5.181 -20.940  0.00  0.00     0.107 C 
ATOM     10  O1S GNX d 141      24.150  -7.367 -22.758  0.00  0.00    -0.296 OA
ATOM     11  C4  GNX d 141      26.558  -4.139 -19.835  0.00  0.00     0.090 C 
ATOM     12  O5  GNX d 141      26.000  -5.858 -18.261  0.00  0.00    -0.349 OA
ATOM     13  O12 GNX d 141      25.562  -3.501 -24.140  0.00  0.00    -0.572 OA
ATOM     14  C2  GNX d 141      25.943  -6.458 -20.580  0.00  0.00     0.083 C 
ATOM     15  O3  GNX d 141      26.181  -4.657 -22.145  0.00  0.00    -0.247 OA
ATOM     16  O22 GNX d 141      27.721  -2.969 -23.260  0.00  0.00    -0.572 OA
ATOM     17  O3S GNX d 141      24.504  -9.187 -21.202  0.00  0.00    -0.296 OA
ATOM     18  O4  GNX d 141      27.457  -3.080 -20.076  0.00  0.00    -0.390 OA
ATOM     19  N   GNX d 141      26.272  -7.509 -21.523  0.00  0.00    -0.210 NA
ATOM     20  H   GNX d 141      25.683  -7.760 -18.908  0.00  0.00     0.131 H 
ATOM     21  H   GNX d 141      25.842  -3.700 -15.565  0.00  0.00     0.209 HD
ATOM     22  H   GNX d 141      26.114  -8.537 -23.951  0.00  0.00     0.231 HD
ATOM     23  H   GNX d 141      27.580  -3.351 -17.035  0.00  0.00     0.078 H 
ATOM     24  H   GNX d 141      26.032  -2.924 -17.725  0.00  0.00     0.078 H 
ATOM     25  H   GNX d 141      27.870  -5.063 -18.450  0.00  0.00     0.090 H 
ATOM     26  H   GNX d 141      27.730  -5.420 -21.056  0.00  0.00     0.092 H 
ATOM     27  H   GNX d 141      24.583  -6.826 -23.437  0.00  0.00     0.231 HD
ATOM     28  H   GNX d 141      25.553  -3.772 -19.837  0.00  0.00     0.091 H 
ATOM     29  H   GNX d 141      24.893  -6.256 -20.630  0.00  0.00     0.076 H 
ATOM     30  H   GNX d 141      24.100  -8.628 -20.520  0.00  0.00     0.231 HD
ATOM     31  H   GNX d 141      28.366  -3.420 -20.073  0.00  0.00     0.210 HD
ATOM     32  H   GNX d 141      26.818  -7.076 -22.269  0.00  0.00     0.140 HD
ATOM     33  C2  IDY d 142      29.029  -9.858 -20.325  0.00  0.00     0.134 C 
ATOM     34  C5  IDY d 142      29.199  -8.455 -17.666  0.00  0.00     0.152 C 
ATOM     35  C1  IDY d 142      30.299  -9.638 -19.500  0.00  0.00     0.160 C 
ATOM     36  O5  IDY d 142      30.280  -8.531 -18.594  0.00  0.00    -0.340 OA
ATOM     37  O61 IDY d 142      29.071  -6.862 -15.837  0.00  0.00    -0.646 OA
ATOM     38  OS3 IDY d 142      31.155  -9.773 -22.523  0.00  0.00    -0.572 OA
ATOM     39  OS1 IDY d 142      29.825  -8.067 -23.609  0.00  0.00    -0.572 OA
ATOM     40  C6  IDY d 142      29.275  -7.057 -17.111  0.00  0.00     0.206 C 
ATOM     41  C4  IDY d 142      27.843  -8.657 -18.353  0.00  0.00     0.103 C 
ATOM     42  O2  IDY d 142      28.954  -9.015 -21.498  0.00  0.00    -0.244 OA
ATOM     43  O4  IDY d 142      27.643  -7.244 -19.086  0.00  0.00    -0.348 OA
ATOM     44  O62 IDY d 142      29.581  -6.095 -17.873  0.00  0.00    -0.646 OA
ATOM     45  O1  IDY d 142      31.364 -10.818 -19.444  0.00  0.00    -0.363 OA
ATOM     46  OS2 IDY d 142      29.057 -10.319 -23.640  0.00  0.00    -0.572 OA
ATOM     47  C3  IDY d 142      27.794  -9.763 -19.418  0.00  0.00     0.094 C 
ATOM     48  S   IDY d 142      29.749  -9.307 -22.808  0.00  0.00     0.252 S 
ATOM     49  C7  IDY d 142      31.853 -11.454 -18.888  0.00  0.00     0.007 C 
ATOM     50  O3  IDY d 142      27.617 -11.042 -18.776  0.00  0.00    -0.390 OA
ATOM     51  H   IDY d 142      29.061 -10.849 -20.725  0.00  0.00     0.097 H 
ATOM     52  H   IDY d 142      29.277  -9.217 -16.918  0.00  0.00     0.104 H 
ATOM     53  H   IDY d 142      31.060  -9.146 -20.071  0.00  0.00     0.133 H 
ATOM     54  H   IDY d 142      27.103  -8.953 -17.639  0.00  0.00     0.092 H 
ATOM     55  H   IDY d 142      26.972  -9.500 -20.050  0.00  0.00     0.091 H 
ATOM     56  H   IDY d 142      32.494 -12.048 -19.505  0.00  0.00     0.066 H 
ATOM     57  H   IDY d 142      31.158 -12.090 -18.379  0.00  0.00     0.066 H 
ATOM     58  H   IDY d 142      32.441 -10.923 -18.170  0.00  0.00     0.066 H 
ATOM     59  H   IDY d 142      28.386 -11.233 -18.217  0.00  0.00     0.210 HD
ENDROOT
TORSDOF 18
ENDMDL
MODEL 3
REMARK VINA RESULT:      -6.9      3.937      6.017
REMARK  0 active torsions:
REMARK  status: ('A' for Active; 'I' for Inactive)
REMARK       I    between atoms: S1_1  and  N_36 
REMARK       I    between atoms: S1_1  and  O1S_20 
REMARK       I    between atoms: S1_1  and  O2S_7 
REMARK       I    between atoms: S1_1  and  O3S_31 
REMARK       I    between atoms: C1_2  and  O4_21 
REMARK       I    between atoms: O6_4  and  C6_9 
REMARK       I    between atoms: C2_5  and  O2_18 
REMARK       I    between atoms: C5_6  and  C6_15 
REMARK       I    between atoms: C1_8  and  O1_27 
REMARK       I    between atoms: C6_9  and  C5_16 
REMARK       I    between atoms: S12_12  and  O3_28 
REMARK       I    between atoms: C4_17  and  O4_21 
REMARK       I    between atoms: O2_18  and  S_33 
REMARK       I    between atoms: C3_19  and  O3_28 
REMARK       I    between atoms: C4_23  and  O4_34 
REMARK       I    between atoms: C2_26  and  N_36 
REMARK       I    between atoms: O1_27  and  C7_35 
REMARK       I    between atoms: C3_32  and  O3_37 
ROOT
ATOM      1  S1  GNX d 141      27.980 -10.899 -19.426  0.00  0.00     0.156 S 
ATOM      2  C1  GNX d 141      26.066  -7.983 -20.258  0.00  0.00     0.150 C 
ATOM      3  O32 GNX d 141      30.426  -9.491 -22.492  0.00  0.00    -0.572 OA
ATOM      4  O6  GNX d 141      23.412  -6.157 -22.403  0.00  0.00    -0.398 OA
ATOM      5  O2S GNX d 141      29.238 -11.121 -18.720  0.00  0.00    -0.296 OA
ATOM      6  C6  GNX d 141      24.648  -6.113 -23.080  0.00  0.00     0.043 C 
ATOM      7  S12 GNX d 141      29.524  -9.396 -23.644  0.00  0.00     0.252 S 
ATOM      8  C5  GNX d 141      25.727  -6.742 -22.207  0.00  0.00     0.089 C 
ATOM      9  C3  GNX d 141      27.686  -8.314 -22.149  0.00  0.00     0.107 C 
ATOM     10  O1S GNX d 141      27.826 -11.786 -20.576  0.00  0.00    -0.296 OA
ATOM     11  C4  GNX d 141      26.656  -7.621 -23.035  0.00  0.00     0.090 C 
ATOM     12  O5  GNX d 141      25.122  -7.517 -21.196  0.00  0.00    -0.349 OA
ATOM     13  O12 GNX d 141      29.593 -10.698 -24.390  0.00  0.00    -0.572 OA
ATOM     14  C2  GNX d 141      27.019  -8.958 -20.939  0.00  0.00     0.083 C 
ATOM     15  O3  GNX d 141      28.360  -9.301 -22.897  0.00  0.00    -0.247 OA
ATOM     16  O22 GNX d 141      30.078  -8.360 -24.517  0.00  0.00    -0.572 OA
ATOM     17  O3S GNX d 141      26.831 -10.970 -18.527  0.00  0.00    -0.296 OA
ATOM     18  O4  GNX d 141      27.319  -6.830 -23.996  0.00  0.00    -0.390 OA
ATOM     19  N   GNX d 141      28.027  -9.405 -19.998  0.00  0.00    -0.210 NA
ATOM     20  H   GNX d 141      25.557  -8.481 -19.459  0.00  0.00     0.131 H 
ATOM     21  H   GNX d 141      22.724  -5.757 -22.958  0.00  0.00     0.209 HD
ATOM     22  H   GNX d 141      29.975 -11.067 -19.348  0.00  0.00     0.231 HD
ATOM     23  H   GNX d 141      24.905  -5.096 -23.288  0.00  0.00     0.078 H 
ATOM     24  H   GNX d 141      24.571  -6.656 -23.999  0.00  0.00     0.078 H 
ATOM     25  H   GNX d 141      26.308  -5.957 -21.768  0.00  0.00     0.090 H 
ATOM     26  H   GNX d 141      28.383  -7.579 -21.801  0.00  0.00     0.092 H 
ATOM     27  H   GNX d 141      28.605 -11.712 -21.149  0.00  0.00     0.231 HD
ATOM     28  H   GNX d 141      26.069  -8.371 -23.521  0.00  0.00     0.091 H 
ATOM     29  H   GNX d 141      26.453  -9.801 -21.276  0.00  0.00     0.076 H 
ATOM     30  H   GNX d 141      26.016 -10.818 -19.031  0.00  0.00     0.231 HD
ATOM     31  H   GNX d 141      27.849  -6.153 -23.548  0.00  0.00     0.210 HD
ATOM     32  H   GNX d 141      28.931  -9.295 -20.459  0.00  0.00     0.140 HD
ATOM     33  C2  IDY d 142      28.718  -6.932 -17.176  0.00  0.00     0.134 C 
ATOM     34  C5  IDY d 142      26.571  -5.064 -18.160  0.00  0.00     0.152 C 
ATOM     35  C1  IDY d 142      28.755  -5.403 -17.117  0.00  0.00     0.160 C 
ATOM     36  O5  IDY d 142      27.952  -4.714 -18.079  0.00  0.00    -0.340 OA
ATOM     37  O61 IDY d 142      24.927  -3.864 -19.485  0.00  0.00    -0.646 OA
ATOM     38  OS3 IDY d 142      31.730  -6.407 -17.300  0.00  0.00    -0.572 OA
ATOM     39  OS1 IDY d 142      31.788  -7.776 -19.295  0.00  0.00    -0.572 OA
ATOM     40  C6  IDY d 142      26.098  -4.439 -19.446  0.00  0.00     0.206 C 
ATOM     41  C4  IDY d 142      26.371  -6.583 -18.229  0.00  0.00     0.103 C 
ATOM     42  O2  IDY d 142      29.601  -7.488 -18.178  0.00  0.00    -0.244 OA
ATOM     43  O4  IDY d 142      26.796  -6.893 -19.744  0.00  0.00    -0.348 OA
ATOM     44  O62 IDY d 142      26.855  -4.437 -20.459  0.00  0.00    -0.646 OA
ATOM     45  O1  IDY d 142      29.368  -4.723 -15.816  0.00  0.00    -0.363 OA
ATOM     46  OS2 IDY d 142      31.476  -8.829 -17.184  0.00  0.00    -0.572 OA
ATOM     47  C3  IDY d 142      27.267  -7.415 -17.297  0.00  0.00     0.094 C 
ATOM     48  S   IDY d 142      31.142  -7.622 -17.974  0.00  0.00     0.252 S 
ATOM     49  C7  IDY d 142      29.219  -4.134 -15.052  0.00  0.00     0.007 C 
ATOM     50  O3  IDY d 142      26.695  -7.438 -15.973  0.00  0.00    -0.390 OA
ATOM     51  H   IDY d 142      29.109  -7.309 -16.255  0.00  0.00     0.097 H 
ATOM     52  H   IDY d 142      26.035  -4.725 -17.297  0.00  0.00     0.104 H 
ATOM     53  H   IDY d 142      29.635  -5.011 -17.584  0.00  0.00     0.133 H 
ATOM     54  H   IDY d 142      25.377  -6.843 -17.930  0.00  0.00     0.092 H 
ATOM     55  H   IDY d 142      27.305  -8.385 -17.747  0.00  0.00     0.091 H 
ATOM     56  H   IDY d 142      30.117  -4.064 -14.475  0.00  0.00     0.066 H 
ATOM     57  H   IDY d 142      28.433  -4.533 -14.443  0.00  0.00     0.066 H 
ATOM     58  H   IDY d 142      28.941  -3.161 -15.399  0.00  0.00     0.066 H 
ATOM     59  H   IDY d 142      26.683  -6.538 -15.611  0.00  0.00     0.210 HD
ENDROOT
TORSDOF 18
ENDMDL
MODEL 4
REMARK VINA RESULT:      -6.7      1.085      1.099
REMARK  0 active torsions:
REMARK  status: ('A' for Active; 'I' for Inactive)
REMARK       I    between atoms: S1_1  and  N_36 
REMARK       I    between atoms: S1_1  and  O1S_20 
REMARK       I    between atoms: S1_1  and  O2S_7 
REMARK       I    between atoms: S1_1  and  O3S_31 
REMARK       I    between atoms: C1_2  and  O4_21 
REMARK       I    between atoms: O6_4  and  C6_9 
REMARK       I    between atoms: C2_5  and  O2_18 
REMARK       I    between atoms: C5_6  and  C6_15 
REMARK       I    between atoms: C1_8  and  O1_27 
REMARK       I    between atoms: C6_9  and  C5_16 
REMARK       I    between atoms: S12_12  and  O3_28 
REMARK       I    between atoms: C4_17  and  O4_21 
REMARK       I    between atoms: O2_18  and  S_33 
REMARK       I    between atoms: C3_19  and  O3_28 
REMARK       I    between atoms: C4_23  and  O4_34 
REMARK       I    between atoms: C2_26  and  N_36 
REMARK       I    between atoms: O1_27  and  C7_35 
REMARK       I    between atoms: C3_32  and  O3_37 
ROOT
ATOM      1  S1  GNX d 141      25.471  -8.677 -20.870  0.00  0.00     0.156 S 
ATOM      2  C1  GNX d 141      24.820  -8.162 -24.359  0.00  0.00     0.150 C 
ATOM      3  O32 GNX d 141      29.110  -6.900 -21.854  0.00  0.00    -0.572 OA
ATOM      4  O6  GNX d 141      25.082  -9.255 -28.062  0.00  0.00    -0.398 OA
ATOM      5  O2S GNX d 141      25.521  -7.797 -19.706  0.00  0.00    -0.296 OA
ATOM      6  C6  GNX d 141      26.268  -8.582 -27.704  0.00  0.00     0.043 C 
ATOM      7  S12 GNX d 141      29.636  -7.750 -22.926  0.00  0.00     0.252 S 
ATOM      8  C5  GNX d 141      26.145  -8.058 -26.278  0.00  0.00     0.089 C 
ATOM      9  C3  GNX d 141      27.290  -7.823 -24.055  0.00  0.00     0.107 C 
ATOM     10  O1S GNX d 141      26.505  -9.706 -20.832  0.00  0.00    -0.296 OA
ATOM     11  C4  GNX d 141      27.440  -8.272 -25.504  0.00  0.00     0.090 C 
ATOM     12  O5  GNX d 141      25.089  -8.725 -25.623  0.00  0.00    -0.349 OA
ATOM     13  O12 GNX d 141      30.494  -8.808 -22.293  0.00  0.00    -0.572 OA
ATOM     14  C2  GNX d 141      26.014  -8.385 -23.438  0.00  0.00     0.083 C 
ATOM     15  O3  GNX d 141      28.405  -8.260 -23.310  0.00  0.00    -0.247 OA
ATOM     16  O22 GNX d 141      30.511  -6.900 -23.734  0.00  0.00    -0.572 OA
ATOM     17  O3S GNX d 141      24.141  -9.249 -21.063  0.00  0.00    -0.296 OA
ATOM     18  O4  GNX d 141      28.479  -7.542 -26.117  0.00  0.00    -0.390 OA
ATOM     19  N   GNX d 141      25.771  -7.766 -22.150  0.00  0.00    -0.210 NA
ATOM     20  H   GNX d 141      23.954  -8.630 -23.938  0.00  0.00     0.131 H 
ATOM     21  H   GNX d 141      25.160  -9.588 -28.970  0.00  0.00     0.209 HD
ATOM     22  H   GNX d 141      26.416  -7.438 -19.611  0.00  0.00     0.231 HD
ATOM     23  H   GNX d 141      26.430  -7.762 -28.372  0.00  0.00     0.078 H 
ATOM     24  H   GNX d 141      27.095  -9.259 -27.766  0.00  0.00     0.078 H 
ATOM     25  H   GNX d 141      25.945  -7.008 -26.319  0.00  0.00     0.090 H 
ATOM     26  H   GNX d 141      27.232  -6.754 -24.035  0.00  0.00     0.092 H 
ATOM     27  H   GNX d 141      27.372  -9.290 -20.703  0.00  0.00     0.231 HD
ATOM     28  H   GNX d 141      27.672  -9.316 -25.513  0.00  0.00     0.091 H 
ATOM     29  H   GNX d 141      26.142  -9.439 -23.304  0.00  0.00     0.076 H 
ATOM     30  H   GNX d 141      24.147  -9.826 -21.843  0.00  0.00     0.231 HD
ATOM     31  H   GNX d 141      28.262  -6.597 -26.106  0.00  0.00     0.210 HD
ATOM     32  H   GNX d 141      26.599  -7.211 -21.929  0.00  0.00     0.140 HD
ATOM     33  C2  IDY d 142      23.345  -4.825 -22.280  0.00  0.00     0.134 C 
ATOM     34  C5  IDY d 142      22.857  -5.233 -25.223  0.00  0.00     0.152 C 
ATOM     35  C1  IDY d 142      23.095  -3.725 -23.315  0.00  0.00     0.160 C 
ATOM     36  O5  IDY d 142      23.423  -4.046 -24.669  0.00  0.00    -0.340 OA
ATOM     37  O61 IDY d 142      23.007  -5.861 -27.565  0.00  0.00    -0.646 OA
ATOM     38  OS3 IDY d 142      24.869  -2.482 -21.035  0.00  0.00    -0.572 OA
ATOM     39  OS1 IDY d 142      26.802  -3.934 -20.909  0.00  0.00    -0.572 OA
ATOM     40  C6  IDY d 142      23.635  -5.466 -26.491  0.00  0.00     0.206 C 
ATOM     41  C4  IDY d 142      23.033  -6.437 -24.290  0.00  0.00     0.103 C 
ATOM     42  O2  IDY d 142      24.720  -4.892 -21.836  0.00  0.00    -0.244 OA
ATOM     43  O4  IDY d 142      24.586  -6.779 -24.499  0.00  0.00    -0.348 OA
ATOM     44  O62 IDY d 142      24.879  -5.234 -26.517  0.00  0.00    -0.646 OA
ATOM     45  O1  IDY d 142      22.188  -2.491 -22.886  0.00  0.00    -0.363 OA
ATOM     46  OS2 IDY d 142      24.989  -4.298 -19.412  0.00  0.00    -0.572 OA
ATOM     47  C3  IDY d 142      22.797  -6.162 -22.796  0.00  0.00     0.094 C 
ATOM     48  S   IDY d 142      25.328  -3.899 -20.798  0.00  0.00     0.252 S 
ATOM     49  C7  IDY d 142      21.375  -1.976 -23.050  0.00  0.00     0.007 C 
ATOM     50  O3  IDY d 142      21.383  -6.200 -22.517  0.00  0.00    -0.390 OA
ATOM     51  H   IDY d 142      22.802  -4.574 -21.393  0.00  0.00     0.097 H 
ATOM     52  H   IDY d 142      21.805  -5.122 -25.382  0.00  0.00     0.104 H 
ATOM     53  H   IDY d 142      23.876  -2.992 -23.309  0.00  0.00     0.133 H 
ATOM     54  H   IDY d 142      22.322  -7.201 -24.527  0.00  0.00     0.092 H 
ATOM     55  H   IDY d 142      23.340  -6.930 -22.286  0.00  0.00     0.091 H 
ATOM     56  H   IDY d 142      21.316  -1.170 -22.349  0.00  0.00     0.066 H 
ATOM     57  H   IDY d 142      20.521  -2.611 -22.937  0.00  0.00     0.066 H 
ATOM     58  H   IDY d 142      21.396  -1.582 -24.045  0.00  0.00     0.066 H 
ATOM     59  H   IDY d 142      20.939  -5.486 -23.001  0.00  0.00     0.210 HD
ENDROOT
TORSDOF 18
ENDMDL
MODEL 5
REMARK VINA RESULT:      -6.6      3.416      5.275
REMARK  0 active torsions:
REMARK  status: ('A' for Active; 'I' for Inactive)
REMARK       I    between atoms: S1_1  and  N_36 
REMARK       I    between atoms: S1_1  and  O1S_20 
REMARK       I    between atoms: S1_1  and  O2S_7 
REMARK       I    between atoms: S1_1  and  O3S_31 
REMARK       I    between atoms: C1_2  and  O4_21 
REMARK       I    between atoms: O6_4  and  C6_9 
REMARK       I    between atoms: C2_5  and  O2_18 
REMARK       I    between atoms: C5_6  and  C6_15 
REMARK       I    between atoms: C1_8  and  O1_27 
REMARK       I    between atoms: C6_9  and  C5_16 
REMARK       I    between atoms: S12_12  and  O3_28 
REMARK       I    between atoms: C4_17  and  O4_21 
REMARK       I    between atoms: O2_18  and  S_33 
REMARK       I    between atoms: C3_19  and  O3_28 
REMARK       I    between atoms: C4_23  and  O4_34 
REMARK       I    between atoms: C2_26  and  N_36 
REMARK       I    between atoms: O1_27  and  C7_35 
REMARK       I    between atoms: C3_32  and  O3_37 
ROOT
ATOM      1  S1  GNX d 141      28.226 -10.428 -19.595  0.00  0.00     0.156 S 
ATOM      2  C1  GNX d 141      25.761  -8.027 -20.607  0.00  0.00     0.150 C 
ATOM      3  O32 GNX d 141      30.148  -9.083 -23.039  0.00  0.00    -0.572 OA
ATOM      4  O6  GNX d 141      22.672  -7.003 -22.701  0.00  0.00    -0.398 OA
ATOM      5  O2S GNX d 141      29.551 -10.330 -18.991  0.00  0.00    -0.296 OA
ATOM      6  C6  GNX d 141      23.828  -6.850 -23.495  0.00  0.00     0.043 C 
ATOM      7  S12 GNX d 141      29.162  -9.309 -24.101  0.00  0.00     0.252 S 
ATOM      8  C5  GNX d 141      25.064  -7.154 -22.657  0.00  0.00     0.089 C 
ATOM      9  C3  GNX d 141      27.273  -8.348 -22.587  0.00  0.00     0.107 C 
ATOM     10  O1S GNX d 141      28.151 -11.484 -20.600  0.00  0.00    -0.296 OA
ATOM     11  C4  GNX d 141      26.073  -7.974 -23.451  0.00  0.00     0.090 C 
ATOM     12  O5  GNX d 141      24.683  -7.867 -21.501  0.00  0.00    -0.349 OA
ATOM     13  O12 GNX d 141      29.411 -10.674 -24.676  0.00  0.00    -0.572 OA
ATOM     14  C2  GNX d 141      26.823  -8.915 -21.245  0.00  0.00     0.083 C 
ATOM     15  O3  GNX d 141      28.057  -9.306 -23.263  0.00  0.00    -0.247 OA
ATOM     16  O22 GNX d 141      29.455  -8.331 -25.150  0.00  0.00    -0.572 OA
ATOM     17  O3S GNX d 141      27.177 -10.562 -18.587  0.00  0.00    -0.296 OA
ATOM     18  O4  GNX d 141      26.511  -7.230 -24.565  0.00  0.00    -0.390 OA
ATOM     19  N   GNX d 141      27.961  -9.046 -20.356  0.00  0.00    -0.210 NA
ATOM     20  H   GNX d 141      25.411  -8.483 -19.704  0.00  0.00     0.131 H 
ATOM     21  H   GNX d 141      21.886  -6.809 -23.234  0.00  0.00     0.209 HD
ATOM     22  H   GNX d 141      30.219 -10.243 -19.689  0.00  0.00     0.231 HD
ATOM     23  H   GNX d 141      23.882  -5.844 -23.857  0.00  0.00     0.078 H 
ATOM     24  H   GNX d 141      23.784  -7.525 -24.325  0.00  0.00     0.078 H 
ATOM     25  H   GNX d 141      25.523  -6.229 -22.381  0.00  0.00     0.090 H 
ATOM     26  H   GNX d 141      27.849  -7.465 -22.405  0.00  0.00     0.092 H 
ATOM     27  H   GNX d 141      28.861 -11.363 -21.250  0.00  0.00     0.231 HD
ATOM     28  H   GNX d 141      25.597  -8.875 -23.777  0.00  0.00     0.091 H 
ATOM     29  H   GNX d 141      26.396  -9.881 -21.414  0.00  0.00     0.076 H 
ATOM     30  H   GNX d 141      26.314 -10.623 -19.025  0.00  0.00     0.231 HD
ATOM     31  H   GNX d 141      26.941  -6.415 -24.262  0.00  0.00     0.210 HD
ATOM     32  H   GNX d 141      28.794  -8.852 -20.913  0.00  0.00     0.140 HD
ATOM     33  C2  IDY d 142      28.397  -6.110 -17.958  0.00  0.00     0.134 C 
ATOM     34  C5  IDY d 142      25.882  -4.793 -18.961  0.00  0.00     0.152 C 
ATOM     35  C1  IDY d 142      28.162  -4.605 -18.100  0.00  0.00     0.160 C 
ATOM     36  O5  IDY d 142      27.180  -4.207 -19.061  0.00  0.00    -0.340 OA
ATOM     37  O61 IDY d 142      23.957  -4.091 -20.264  0.00  0.00    -0.646 OA
ATOM     38  OS3 IDY d 142      31.248  -5.108 -18.439  0.00  0.00    -0.572 OA
ATOM     39  OS1 IDY d 142      31.407  -6.721 -20.237  0.00  0.00    -0.572 OA
ATOM     40  C6  IDY d 142      25.212  -4.449 -20.265  0.00  0.00     0.206 C 
ATOM     41  C4  IDY d 142      25.956  -6.318 -18.814  0.00  0.00     0.103 C 
ATOM     42  O2  IDY d 142      29.291  -6.648 -18.960  0.00  0.00    -0.244 OA
ATOM     43  O4  IDY d 142      26.319  -6.766 -20.311  0.00  0.00    -0.348 OA
ATOM     44  O62 IDY d 142      25.881  -4.465 -21.339  0.00  0.00    -0.646 OA
ATOM     45  O1  IDY d 142      28.735  -3.651 -16.964  0.00  0.00    -0.363 OA
ATOM     46  OS2 IDY d 142      31.444  -7.497 -17.988  0.00  0.00    -0.572 OA
ATOM     47  C3  IDY d 142      27.052  -6.844 -17.874  0.00  0.00     0.094 C 
ATOM     48  S   IDY d 142      30.841  -6.489 -18.891  0.00  0.00     0.252 S 
ATOM     49  C7  IDY d 142      28.538  -2.993 -16.271  0.00  0.00     0.007 C 
ATOM     50  O3  IDY d 142      26.592  -6.772 -16.509  0.00  0.00    -0.390 OA
ATOM     51  H   IDY d 142      28.916  -6.279 -17.037  0.00  0.00     0.097 H 
ATOM     52  H   IDY d 142      25.359  -4.429 -18.102  0.00  0.00     0.104 H 
ATOM     53  H   IDY d 142      28.921  -4.142 -18.697  0.00  0.00     0.133 H 
ATOM     54  H   IDY d 142      25.049  -6.696 -18.389  0.00  0.00     0.092 H 
ATOM     55  H   IDY d 142      27.232  -7.848 -18.197  0.00  0.00     0.091 H 
ATOM     56  H   IDY d 142      29.448  -2.689 -15.798  0.00  0.00     0.066 H 
ATOM     57  H   IDY d 142      27.884  -3.426 -15.543  0.00  0.00     0.066 H 
ATOM     58  H   IDY d 142      28.064  -2.141 -16.712  0.00  0.00     0.066 H 
ATOM     59  H   IDY d 142      26.444  -5.844 -16.267  0.00  0.00     0.210 HD
ENDROOT
TORSDOF 18
ENDMDL
MODEL 6
REMARK VINA RESULT:      -6.4      3.852      6.818
REMARK  0 active torsions:
REMARK  status: ('A' for Active; 'I' for Inactive)
REMARK       I    between atoms: S1_1  and  N_36 
REMARK       I    between atoms: S1_1  and  O1S_20 
REMARK       I    between atoms: S1_1  and  O2S_7 
REMARK       I    between atoms: S1_1  and  O3S_31 
REMARK       I    between atoms: C1_2  and  O4_21 
REMARK       I    between atoms: O6_4  and  C6_9 
REMARK       I    between atoms: C2_5  and  O2_18 
REMARK       I    between atoms: C5_6  and  C6_15 
REMARK       I    between atoms: C1_8  and  O1_27 
REMARK       I    between atoms: C6_9  and  C5_16 
REMARK       I    between atoms: S12_12  and  O3_28 
REMARK       I    between atoms: C4_17  and  O4_21 
REMARK       I    between atoms: O2_18  and  S_33 
REMARK       I    between atoms: C3_19  and  O3_28 
REMARK       I    between atoms: C4_23  and  O4_34 
REMARK       I    between atoms: C2_26  and  N_36 
REMARK       I    between atoms: O1_27  and  C7_35 
REMARK       I    between atoms: C3_32  and  O3_37 
ROOT
ATOM      1  S1  GNX d 141      25.253  -8.267 -22.291  0.00  0.00     0.156 S 
ATOM      2  C1  GNX d 141      27.562  -5.616 -21.580  0.00  0.00     0.150 C 
ATOM      3  O32 GNX d 141      28.527  -9.820 -24.350  0.00  0.00    -0.572 OA
ATOM      4  O6  GNX d 141      29.342  -2.314 -22.529  0.00  0.00    -0.398 OA
ATOM      5  O2S GNX d 141      25.095  -9.634 -21.803  0.00  0.00    -0.296 OA
ATOM      6  C6  GNX d 141      30.034  -3.388 -23.126  0.00  0.00     0.043 C 
ATOM      7  S12 GNX d 141      28.882  -8.758 -25.296  0.00  0.00     0.252 S 
ATOM      8  C5  GNX d 141      29.406  -4.705 -22.684  0.00  0.00     0.089 C 
ATOM      9  C3  GNX d 141      28.599  -6.964 -23.428  0.00  0.00     0.107 C 
ATOM     10  O1S GNX d 141      24.987  -8.155 -23.723  0.00  0.00    -0.296 OA
ATOM     11  C4  GNX d 141      29.301  -5.679 -23.851  0.00  0.00     0.090 C 
ATOM     12  O5  GNX d 141      28.120  -4.459 -22.159  0.00  0.00    -0.349 OA
ATOM     13  O12 GNX d 141      28.142  -9.019 -26.577  0.00  0.00    -0.572 OA
ATOM     14  C2  GNX d 141      27.315  -6.659 -22.664  0.00  0.00     0.083 C 
ATOM     15  O3  GNX d 141      28.295  -7.731 -24.572  0.00  0.00    -0.247 OA
ATOM     16  O22 GNX d 141      30.310  -8.913 -25.574  0.00  0.00    -0.572 OA
ATOM     17  O3S GNX d 141      24.461  -7.317 -21.515  0.00  0.00    -0.296 OA
ATOM     18  O4  GNX d 141      30.593  -5.983 -24.327  0.00  0.00    -0.390 OA
ATOM     19  N   GNX d 141      26.789  -7.874 -22.075  0.00  0.00    -0.210 NA
ATOM     20  H   GNX d 141      26.634  -5.366 -21.109  0.00  0.00     0.131 H 
ATOM     21  H   GNX d 141      29.741  -1.476 -22.810  0.00  0.00     0.209 HD
ATOM     22  H   GNX d 141      25.633 -10.234 -22.342  0.00  0.00     0.231 HD
ATOM     23  H   GNX d 141      31.060  -3.364 -22.824  0.00  0.00     0.078 H 
ATOM     24  H   GNX d 141      29.974  -3.304 -24.191  0.00  0.00     0.078 H 
ATOM     25  H   GNX d 141      30.029  -5.143 -21.934  0.00  0.00     0.090 H 
ATOM     26  H   GNX d 141      29.254  -7.512 -22.784  0.00  0.00     0.092 H 
ATOM     27  H   GNX d 141      25.529  -8.799 -24.204  0.00  0.00     0.231 HD
ATOM     28  H   GNX d 141      28.726  -5.218 -24.627  0.00  0.00     0.091 H 
ATOM     29  H   GNX d 141      26.600  -6.263 -23.354  0.00  0.00     0.076 H 
ATOM     30  H   GNX d 141      24.592  -6.423 -21.867  0.00  0.00     0.231 HD
ATOM     31  H   GNX d 141      31.108  -6.400 -23.618  0.00  0.00     0.210 HD
ATOM     32  H   GNX d 141      27.345  -8.646 -22.444  0.00  0.00     0.140 HD
ATOM     33  C2  IDY d 142      27.782  -8.380 -18.426  0.00  0.00     0.134 C 
ATOM     34  C5  IDY d 142      29.208  -5.730 -18.347  0.00  0.00     0.152 C 
ATOM     35  C1  IDY d 142      29.056  -8.064 -17.639  0.00  0.00     0.160 C 
ATOM     36  O5  IDY d 142      29.853  -6.985 -18.135  0.00  0.00    -0.340 OA
ATOM     37  O61 IDY d 142      30.368  -3.669 -18.898  0.00  0.00    -0.646 OA
ATOM     38  OS3 IDY d 142      29.123 -11.129 -18.341  0.00  0.00    -0.572 OA
ATOM     39  OS1 IDY d 142      28.894 -11.206 -20.749  0.00  0.00    -0.572 OA
ATOM     40  C6  IDY d 142      30.192  -4.934 -19.164  0.00  0.00     0.206 C 
ATOM     41  C4  IDY d 142      27.902  -5.886 -19.134  0.00  0.00     0.103 C 
ATOM     42  O2  IDY d 142      28.016  -9.208 -19.588  0.00  0.00    -0.244 OA
ATOM     43  O4  IDY d 142      28.451  -6.138 -20.619  0.00  0.00    -0.348 OA
ATOM     44  O62 IDY d 142      30.868  -5.507 -20.066  0.00  0.00    -0.646 OA
ATOM     45  O1  IDY d 142      29.207  -8.688 -16.184  0.00  0.00    -0.363 OA
ATOM     46  OS2 IDY d 142      26.953 -11.474 -19.400  0.00  0.00    -0.572 OA
ATOM     47  C3  IDY d 142      27.023  -7.083 -18.735  0.00  0.00     0.094 C 
ATOM     48  S   IDY d 142      28.240 -10.749 -19.505  0.00  0.00     0.252 S 
ATOM     49  C7  IDY d 142      29.313  -8.522 -15.228  0.00  0.00     0.007 C 
ATOM     50  O3  IDY d 142      26.239  -6.739 -17.574  0.00  0.00    -0.390 OA
ATOM     51  H   IDY d 142      27.151  -8.983 -17.807  0.00  0.00     0.097 H 
ATOM     52  H   IDY d 142      28.950  -5.266 -17.418  0.00  0.00     0.104 H 
ATOM     53  H   IDY d 142      29.846  -8.746 -17.877  0.00  0.00     0.133 H 
ATOM     54  H   IDY d 142      27.268  -5.038 -18.978  0.00  0.00     0.092 H 
ATOM     55  H   IDY d 142      26.421  -7.280 -19.597  0.00  0.00     0.091 H 
ATOM     56  H   IDY d 142      29.359  -9.454 -14.706  0.00  0.00     0.066 H 
ATOM     57  H   IDY d 142      28.479  -7.954 -14.871  0.00  0.00     0.066 H 
ATOM     58  H   IDY d 142      30.215  -7.973 -15.059  0.00  0.00     0.066 H 
ATOM     59  H   IDY d 142      26.830  -6.570 -16.824  0.00  0.00     0.210 HD
ENDROOT
TORSDOF 18
ENDMDL
MODEL 7
REMARK VINA RESULT:      -6.4      2.758      6.145
REMARK  0 active torsions:
REMARK  status: ('A' for Active; 'I' for Inactive)
REMARK       I    between atoms: S1_1  and  N_36 
REMARK       I    between atoms: S1_1  and  O1S_20 
REMARK       I    between atoms: S1_1  and  O2S_7 
REMARK       I    between atoms: S1_1  and  O3S_31 
REMARK       I    between atoms: C1_2  and  O4_21 
REMARK       I    between atoms: O6_4  and  C6_9 
REMARK       I    between atoms: C2_5  and  O2_18 
REMARK       I    between atoms: C5_6  and  C6_15 
REMARK       I    between atoms: C1_8  and  O1_27 
REMARK       I    between atoms: C6_9  and  C5_16 
REMARK       I    between atoms: S12_12  and  O3_28 
REMARK       I    between atoms: C4_17  and  O4_21 
REMARK       I    between atoms: O2_18  and  S_33 
REMARK       I    between atoms: C3_19  and  O3_28 
REMARK       I    between atoms: C4_23  and  O4_34 
REMARK       I    between atoms: C2_26  and  N_36 
REMARK       I    between atoms: O1_27  and  C7_35 
REMARK       I    between atoms: C3_32  and  O3_37 
ROOT
ATOM      1  S1  GNX d 141      23.704  -5.747 -23.495  0.00  0.00     0.156 S 
ATOM      2  C1  GNX d 141      25.904  -8.359 -22.403  0.00  0.00     0.150 C 
ATOM      3  O32 GNX d 141      25.590  -3.636 -20.437  0.00  0.00    -0.572 OA
ATOM      4  O6  GNX d 141      26.780 -11.301 -20.046  0.00  0.00    -0.398 OA
ATOM      5  O2S GNX d 141      23.889  -4.518 -24.261  0.00  0.00    -0.296 OA
ATOM      6  C6  GNX d 141      27.140 -10.093 -19.414  0.00  0.00     0.043 C 
ATOM      7  S12 GNX d 141      25.363  -4.464 -19.248  0.00  0.00     0.252 S 
ATOM      8  C5  GNX d 141      26.893  -8.929 -20.366  0.00  0.00     0.089 C 
ATOM      9  C3  GNX d 141      25.951  -6.612 -20.600  0.00  0.00     0.107 C 
ATOM     10  O1S GNX d 141      22.751  -5.581 -22.402  0.00  0.00    -0.296 OA
ATOM     11  C4  GNX d 141      26.273  -7.745 -19.633  0.00  0.00     0.090 C 
ATOM     12  O5  GNX d 141      26.031  -9.344 -21.402  0.00  0.00    -0.349 OA
ATOM     13  O12 GNX d 141      24.098  -3.988 -18.593  0.00  0.00    -0.572 OA
ATOM     14  C2  GNX d 141      25.208  -7.133 -21.824  0.00  0.00     0.083 C 
ATOM     15  O3  GNX d 141      25.159  -5.646 -19.944  0.00  0.00    -0.247 OA
ATOM     16  O22 GNX d 141      26.466  -4.179 -18.330  0.00  0.00    -0.572 OA
ATOM     17  O3S GNX d 141      23.355  -6.875 -24.354  0.00  0.00    -0.296 OA
ATOM     18  O4  GNX d 141      27.169  -7.282 -18.647  0.00  0.00    -0.390 OA
ATOM     19  N   GNX d 141      25.117  -6.093 -22.829  0.00  0.00    -0.210 NA
ATOM     20  H   GNX d 141      25.324  -8.749 -23.214  0.00  0.00     0.131 H 
ATOM     21  H   GNX d 141      26.937 -12.042 -19.440  0.00  0.00     0.209 HD
ATOM     22  H   GNX d 141      24.118  -3.793 -23.659  0.00  0.00     0.231 HD
ATOM     23  H   GNX d 141      28.176 -10.123 -19.149  0.00  0.00     0.078 H 
ATOM     24  H   GNX d 141      26.550  -9.963 -18.530  0.00  0.00     0.078 H 
ATOM     25  H   GNX d 141      27.832  -8.619 -20.773  0.00  0.00     0.090 H 
ATOM     26  H   GNX d 141      26.871  -6.171 -20.925  0.00  0.00     0.092 H 
ATOM     27  H   GNX d 141      23.015  -4.824 -21.855  0.00  0.00     0.231 HD
ATOM     28  H   GNX d 141      25.362  -8.069 -19.175  0.00  0.00     0.091 H 
ATOM     29  H   GNX d 141      24.222  -7.419 -21.522  0.00  0.00     0.076 H 
ATOM     30  H   GNX d 141      23.241  -7.671 -23.811  0.00  0.00     0.231 HD
ATOM     31  H   GNX d 141      27.992  -6.990 -19.069  0.00  0.00     0.210 HD
ATOM     32  H   GNX d 141      25.457  -5.233 -22.396  0.00  0.00     0.140 HD
ATOM     33  C2  IDY d 142      27.829  -6.285 -25.506  0.00  0.00     0.134 C 
ATOM     34  C5  IDY d 142      28.952  -8.816 -24.322  0.00  0.00     0.152 C 
ATOM     35  C1  IDY d 142      29.306  -6.685 -25.465  0.00  0.00     0.160 C 
ATOM     36  O5  IDY d 142      29.685  -7.597 -24.431  0.00  0.00    -0.340 OA
ATOM     37  O61 IDY d 142      29.561 -10.658 -22.861  0.00  0.00    -0.646 OA
ATOM     38  OS3 IDY d 142      29.186  -3.543 -25.460  0.00  0.00    -0.572 OA
ATOM     39  OS1 IDY d 142      27.787  -2.991 -23.563  0.00  0.00    -0.572 OA
ATOM     40  C6  IDY d 142      29.347  -9.376 -22.981  0.00  0.00     0.206 C 
ATOM     41  C4  IDY d 142      27.438  -8.574 -24.346  0.00  0.00     0.103 C 
ATOM     42  O2  IDY d 142      27.497  -5.227 -24.576  0.00  0.00    -0.244 OA
ATOM     43  O4  IDY d 142      27.183  -7.996 -22.871  0.00  0.00    -0.348 OA
ATOM     44  O62 IDY d 142      29.512  -8.597 -21.999  0.00  0.00    -0.646 OA
ATOM     45  O1  IDY d 142      30.200  -6.361 -26.741  0.00  0.00    -0.363 OA
ATOM     46  OS2 IDY d 142      26.801  -3.107 -25.725  0.00  0.00    -0.572 OA
ATOM     47  C3  IDY d 142      26.946  -7.531 -25.363  0.00  0.00     0.094 C 
ATOM     48  S   IDY d 142      27.820  -3.725 -24.846  0.00  0.00     0.252 S 
ATOM     49  C7  IDY d 142      30.760  -6.713 -27.459  0.00  0.00     0.007 C 
ATOM     50  O3  IDY d 142      26.830  -8.145 -26.663  0.00  0.00    -0.390 OA
ATOM     51  H   IDY d 142      27.629  -5.854 -26.464  0.00  0.00     0.097 H 
ATOM     52  H   IDY d 142      29.168  -9.472 -25.140  0.00  0.00     0.104 H 
ATOM     53  H   IDY d 142      29.908  -5.928 -25.007  0.00  0.00     0.133 H 
ATOM     54  H   IDY d 142      26.920  -9.468 -24.624  0.00  0.00     0.092 H 
ATOM     55  H   IDY d 142      26.005  -7.195 -24.979  0.00  0.00     0.091 H 
ATOM     56  H   IDY d 142      31.115  -5.904 -28.062  0.00  0.00     0.066 H 
ATOM     57  H   IDY d 142      30.187  -7.385 -28.062  0.00  0.00     0.066 H 
ATOM     58  H   IDY d 142      31.594  -7.235 -27.038  0.00  0.00     0.066 H 
ATOM     59  H   IDY d 142      27.707  -8.430 -26.965  0.00  0.00     0.210 HD
ENDROOT
TORSDOF 18
ENDMDL
MODEL 8
REMARK VINA RESULT:      -6.3      3.546      5.329
REMARK  0 active torsions:
REMARK  status: ('A' for Active; 'I' for Inactive)
REMARK       I    between atoms: S1_1  and  N_36 
REMARK       I    between atoms: S1_1  and  O1S_20 
REMARK       I    between atoms: S1_1  and  O2S_7 
REMARK       I    between atoms: S1_1  and  O3S_31 
REMARK       I    between atoms: C1_2  and  O4_21 
REMARK       I    between atoms: O6_4  and  C6_9 
REMARK       I    between atoms: C2_5  and  O2_18 
REMARK       I    between atoms: C5_6  and  C6_15 
REMARK       I    between atoms: C1_8  and  O1_27 
REMARK       I    between atoms: C6_9  and  C5_16 
REMARK       I    between atoms: S12_12  and  O3_28 
REMARK       I    between atoms: C4_17  and  O4_21 
REMARK       I    between atoms: O2_18  and  S_33 
REMARK       I    between atoms: C3_19  and  O3_28 
REMARK       I    between atoms: C4_23  and  O4_34 
REMARK       I    between atoms: C2_26  and  N_36 
REMARK       I    between atoms: O1_27  and  C7_35 
REMARK       I    between atoms: C3_32  and  O3_37 
ROOT
ATOM      1  S1  GNX d 141      27.629  -7.935 -16.982  0.00  0.00     0.156 S 
ATOM      2  C1  GNX d 141      28.742  -9.002 -20.220  0.00  0.00     0.150 C 
ATOM      3  O32 GNX d 141      30.333  -4.842 -17.682  0.00  0.00    -0.572 OA
ATOM      4  O6  GNX d 141      31.250 -10.855 -22.512  0.00  0.00    -0.398 OA
ATOM      5  O2S GNX d 141      26.752  -6.867 -16.511  0.00  0.00    -0.296 OA
ATOM      6  C6  GNX d 141      31.748  -9.562 -22.249  0.00  0.00     0.043 C 
ATOM      7  S12 GNX d 141      31.601  -5.536 -17.933  0.00  0.00     0.252 S 
ATOM      8  C5  GNX d 141      30.728  -8.782 -21.428  0.00  0.00     0.089 C 
ATOM      9  C3  GNX d 141      30.385  -7.261 -19.459  0.00  0.00     0.107 C 
ATOM     10  O1S GNX d 141      28.783  -8.132 -16.109  0.00  0.00    -0.296 OA
ATOM     11  C4  GNX d 141      31.411  -7.976 -20.331  0.00  0.00     0.090 C 
ATOM     12  O5  GNX d 141      29.806  -9.679 -20.850  0.00  0.00    -0.349 OA
ATOM     13  O12 GNX d 141      32.319  -5.666 -16.620  0.00  0.00    -0.572 OA
ATOM     14  C2  GNX d 141      29.275  -8.214 -19.029  0.00  0.00     0.083 C 
ATOM     15  O3  GNX d 141      31.024  -6.737 -18.316  0.00  0.00    -0.247 OA
ATOM     16  O22 GNX d 141      32.395  -4.647 -18.782  0.00  0.00    -0.572 OA
ATOM     17  O3S GNX d 141      26.899  -9.179 -17.207  0.00  0.00    -0.296 OA
ATOM     18  O4  GNX d 141      32.276  -7.027 -20.914  0.00  0.00    -0.390 OA
ATOM     19  N   GNX d 141      28.199  -7.471 -18.403  0.00  0.00    -0.210 NA
ATOM     20  H   GNX d 141      28.018  -9.713 -19.881  0.00  0.00     0.131 H 
ATOM     21  H   GNX d 141      31.899 -11.352 -23.034  0.00  0.00     0.209 HD
ATOM     22  H   GNX d 141      27.271  -6.060 -16.373  0.00  0.00     0.231 HD
ATOM     23  H   GNX d 141      31.926  -9.053 -23.173  0.00  0.00     0.078 H 
ATOM     24  H   GNX d 141      32.665  -9.637 -21.702  0.00  0.00     0.078 H 
ATOM     25  H   GNX d 141      30.218  -8.103 -22.078  0.00  0.00     0.090 H 
ATOM     26  H   GNX d 141      29.948  -6.468 -20.030  0.00  0.00     0.092 H 
ATOM     27  H   GNX d 141      29.241  -7.286 -15.983  0.00  0.00     0.231 HD
ATOM     28  H   GNX d 141      31.970  -8.649 -19.714  0.00  0.00     0.091 H 
ATOM     29  H   GNX d 141      29.682  -8.907 -18.323  0.00  0.00     0.076 H 
ATOM     30  H   GNX d 141      27.513  -9.863 -17.519  0.00  0.00     0.231 HD
ATOM     31  H   GNX d 141      31.763  -6.421 -21.471  0.00  0.00     0.210 HD
ATOM     32  H   GNX d 141      28.531  -6.512 -18.289  0.00  0.00     0.140 HD
ATOM     33  C2  IDY d 142      25.328  -6.619 -20.766  0.00  0.00     0.134 C 
ATOM     34  C5  IDY d 142      26.616  -8.130 -23.030  0.00  0.00     0.152 C 
ATOM     35  C1  IDY d 142      25.275  -6.241 -22.248  0.00  0.00     0.160 C 
ATOM     36  O5  IDY d 142      26.345  -6.729 -23.063  0.00  0.00    -0.340 OA
ATOM     37  O61 IDY d 142      28.166  -9.262 -24.517  0.00  0.00    -0.646 OA
ATOM     38  OS3 IDY d 142      25.033  -3.578 -20.594  0.00  0.00    -0.572 OA
ATOM     39  OS1 IDY d 142      26.990  -3.567 -19.169  0.00  0.00    -0.572 OA
ATOM     40  C6  IDY d 142      27.959  -8.270 -23.695  0.00  0.00     0.206 C 
ATOM     41  C4  IDY d 142      26.700  -8.660 -21.594  0.00  0.00     0.103 C 
ATOM     42  O2  IDY d 142      26.192  -5.760 -19.987  0.00  0.00    -0.244 OA
ATOM     43  O4  IDY d 142      28.139  -8.117 -21.137  0.00  0.00    -0.348 OA
ATOM     44  O62 IDY d 142      28.857  -7.404 -23.486  0.00  0.00    -0.646 OA
ATOM     45  O1  IDY d 142      23.907  -5.670 -22.824  0.00  0.00    -0.363 OA
ATOM     46  OS2 IDY d 142      24.936  -4.392 -18.297  0.00  0.00    -0.572 OA
ATOM     47  C3  IDY d 142      25.646  -8.112 -20.618  0.00  0.00     0.094 C 
ATOM     48  S   IDY d 142      25.774  -4.332 -19.517  0.00  0.00     0.252 S 
ATOM     49  C7  IDY d 142      23.175  -5.782 -23.460  0.00  0.00     0.007 C 
ATOM     50  O3  IDY d 142      24.415  -8.847 -20.777  0.00  0.00    -0.390 OA
ATOM     51  H   IDY d 142      24.358  -6.452 -20.347  0.00  0.00     0.097 H 
ATOM     52  H   IDY d 142      25.839  -8.685 -23.514  0.00  0.00     0.104 H 
ATOM     53  H   IDY d 142      25.617  -5.240 -22.413  0.00  0.00     0.133 H 
ATOM     54  H   IDY d 142      26.542  -9.718 -21.576  0.00  0.00     0.092 H 
ATOM     55  H   IDY d 142      26.080  -8.236 -19.648  0.00  0.00     0.091 H 
ATOM     56  H   IDY d 142      22.479  -4.978 -23.349  0.00  0.00     0.066 H 
ATOM     57  H   IDY d 142      22.679  -6.712 -23.273  0.00  0.00     0.066 H 
ATOM     58  H   IDY d 142      23.565  -5.781 -24.456  0.00  0.00     0.066 H 
ATOM     59  H   IDY d 142      24.065  -8.701 -21.670  0.00  0.00     0.210 HD
ENDROOT
TORSDOF 18
ENDMDL
MODEL 9
REMARK VINA RESULT:      -6.2      3.238      7.464
REMARK  0 active torsions:
REMARK  status: ('A' for Active; 'I' for Inactive)
REMARK       I    between atoms: S1_1  and  N_36 
REMARK       I    between atoms: S1_1  and  O1S_20 
REMARK       I    between atoms: S1_1  and  O2S_7 
REMARK       I    between atoms: S1_1  and  O3S_31 
REMARK       I    between atoms: C1_2  and  O4_21 
REMARK       I    between atoms: O6_4  and  C6_9 
REMARK       I    between atoms: C2_5  and  O2_18 
REMARK       I    between atoms: C5_6  and  C6_15 
REMARK       I    between atoms: C1_8  and  O1_27 
REMARK       I    between atoms: C6_9  and  C5_16 
REMARK       I    between atoms: S12_12  and  O3_28 
REMARK       I    between atoms: C4_17  and  O4_21 
REMARK       I    between atoms: O2_18  and  S_33 
REMARK       I    between atoms: C3_19  and  O3_28 
REMARK       I    between atoms: C4_23  and  O4_34 
REMARK       I    between atoms: C2_26  and  N_36 
REMARK       I    between atoms: O1_27  and  C7_35 
REMARK       I    between atoms: C3_32  and  O3_37 
ROOT
ATOM      1  S1  GNX d 141      25.515  -8.392 -23.728  0.00  0.00     0.156 S 
ATOM      2  C1  GNX d 141      25.578  -6.668 -20.584  0.00  0.00     0.150 C 
ATOM      3  O32 GNX d 141      28.130  -5.338 -24.826  0.00  0.00    -0.572 OA
ATOM      4  O6  GNX d 141      24.329  -3.876 -18.213  0.00  0.00    -0.398 OA
ATOM      5  O2S GNX d 141      26.458  -9.256 -24.432  0.00  0.00    -0.296 OA
ATOM      6  C6  GNX d 141      25.321  -3.339 -19.060  0.00  0.00     0.043 C 
ATOM      7  S12 GNX d 141      27.377  -4.113 -24.541  0.00  0.00     0.252 S 
ATOM      8  C5  GNX d 141      25.895  -4.447 -19.935  0.00  0.00     0.089 C 
ATOM      9  C3  GNX d 141      26.592  -5.095 -22.260  0.00  0.00     0.107 C 
ATOM     10  O1S GNX d 141      24.808  -7.490 -24.633  0.00  0.00    -0.296 OA
ATOM     11  C4  GNX d 141      26.095  -3.964 -21.366  0.00  0.00     0.090 C 
ATOM     12  O5  GNX d 141      25.018  -5.552 -19.930  0.00  0.00    -0.349 OA
ATOM     13  O12 GNX d 141      26.639  -3.727 -25.791  0.00  0.00    -0.572 OA
ATOM     14  C2  GNX d 141      25.754  -6.353 -22.065  0.00  0.00     0.083 C 
ATOM     15  O3  GNX d 141      26.528  -4.690 -23.609  0.00  0.00    -0.247 OA
ATOM     16  O22 GNX d 141      28.370  -3.071 -24.278  0.00  0.00    -0.572 OA
ATOM     17  O3S GNX d 141      24.593  -9.158 -22.894  0.00  0.00    -0.296 OA
ATOM     18  O4  GNX d 141      27.031  -2.909 -21.379  0.00  0.00    -0.390 OA
ATOM     19  N   GNX d 141      26.377  -7.474 -22.741  0.00  0.00    -0.210 NA
ATOM     20  H   GNX d 141      24.927  -7.510 -20.473  0.00  0.00     0.131 H 
ATOM     21  H   GNX d 141      23.963  -3.171 -17.656  0.00  0.00     0.209 HD
ATOM     22  H   GNX d 141      27.052  -8.713 -24.973  0.00  0.00     0.231 HD
ATOM     23  H   GNX d 141      26.103  -2.912 -18.468  0.00  0.00     0.078 H 
ATOM     24  H   GNX d 141      24.888  -2.582 -19.681  0.00  0.00     0.078 H 
ATOM     25  H   GNX d 141      26.846  -4.734 -19.539  0.00  0.00     0.090 H 
ATOM     26  H   GNX d 141      27.604  -5.319 -21.993  0.00  0.00     0.092 H 
ATOM     27  H   GNX d 141      25.451  -7.000 -25.169  0.00  0.00     0.231 HD
ATOM     28  H   GNX d 141      25.155  -3.623 -21.744  0.00  0.00     0.091 H 
ATOM     29  H   GNX d 141      24.786  -6.181 -22.488  0.00  0.00     0.076 H 
ATOM     30  H   GNX d 141      23.984  -8.551 -22.445  0.00  0.00     0.231 HD
ATOM     31  H   GNX d 141      27.881  -3.226 -21.036  0.00  0.00     0.210 HD
ATOM     32  H   GNX d 141      27.149  -7.095 -23.290  0.00  0.00     0.140 HD
ATOM     33  C2  IDY d 142      28.538  -9.645 -20.466  0.00  0.00     0.134 C 
ATOM     34  C5  IDY d 142      27.798  -8.012 -18.047  0.00  0.00     0.152 C 
ATOM     35  C1  IDY d 142      29.451  -9.324 -19.281  0.00  0.00     0.160 C 
ATOM     36  O5  IDY d 142      29.132  -8.144 -18.539  0.00  0.00    -0.340 OA
ATOM     37  O61 IDY d 142      27.065  -6.269 -16.523  0.00  0.00    -0.646 OA
ATOM     38  OS3 IDY d 142      31.289  -9.703 -21.803  0.00  0.00    -0.572 OA
ATOM     39  OS1 IDY d 142      30.425  -8.129 -23.427  0.00  0.00    -0.572 OA
ATOM     40  C6  IDY d 142      27.692  -6.570 -17.627  0.00  0.00     0.206 C 
ATOM     41  C4  IDY d 142      26.758  -8.304 -19.135  0.00  0.00     0.103 C 
ATOM     42  O2  IDY d 142      28.877  -8.909 -21.665  0.00  0.00    -0.244 OA
ATOM     43  O4  IDY d 142      26.833  -6.966 -20.016  0.00  0.00    -0.348 OA
ATOM     44  O62 IDY d 142      28.248  -5.671 -18.322  0.00  0.00    -0.646 OA
ATOM     45  O1  IDY d 142      30.423 -10.470 -18.758  0.00  0.00    -0.363 OA
ATOM     46  OS2 IDY d 142      29.697 -10.392 -23.517  0.00  0.00    -0.572 OA
ATOM     47  C3  IDY d 142      27.068  -9.501 -20.049  0.00  0.00     0.094 C 
ATOM     48  S   IDY d 142      30.069  -9.296 -22.593  0.00  0.00     0.252 S 
ATOM     49  C7  IDY d 142      30.686 -11.045 -18.014  0.00  0.00     0.007 C 
ATOM     50  O3  IDY d 142      26.671 -10.723 -19.394  0.00  0.00    -0.390 OA
ATOM     51  H   IDY d 142      28.697 -10.666 -20.741  0.00  0.00     0.097 H 
ATOM     52  H   IDY d 142      27.610  -8.704 -17.252  0.00  0.00     0.104 H 
ATOM     53  H   IDY d 142      30.365  -8.867 -19.598  0.00  0.00     0.133 H 
ATOM     54  H   IDY d 142      25.816  -8.555 -18.694  0.00  0.00     0.092 H 
ATOM     55  H   IDY d 142      26.515  -9.313 -20.945  0.00  0.00     0.091 H 
ATOM     56  H   IDY d 142      31.495 -11.674 -18.319  0.00  0.00     0.066 H 
ATOM     57  H   IDY d 142      29.854 -11.650 -17.718  0.00  0.00     0.066 H 
ATOM     58  H   IDY d 142      30.997 -10.439 -17.188  0.00  0.00     0.066 H 
ATOM     59  H   IDY d 142      27.201 -10.846 -18.591  0.00  0.00     0.210 HD
ENDROOT
TORSDOF 18
ENDMDL
MODEL 10
REMARK VINA RESULT:      -6.2      3.287      6.494
REMARK  0 active torsions:
REMARK  status: ('A' for Active; 'I' for Inactive)
REMARK       I    between atoms: S1_1  and  N_36 
REMARK       I    between atoms: S1_1  and  O1S_20 
REMARK       I    between atoms: S1_1  and  O2S_7 
REMARK       I    between atoms: S1_1  and  O3S_31 
REMARK       I    between atoms: C1_2  and  O4_21 
REMARK       I    between atoms: O6_4  and  C6_9 
REMARK       I    between atoms: C2_5  and  O2_18 
REMARK       I    between atoms: C5_6  and  C6_15 
REMARK       I    between atoms: C1_8  and  O1_27 
REMARK       I    between atoms: C6_9  and  C5_16 
REMARK       I    between atoms: S12_12  and  O3_28 
REMARK       I    between atoms: C4_17  and  O4_21 
REMARK       I    between atoms: O2_18  and  S_33 
REMARK       I    between atoms: C3_19  and  O3_28 
REMARK       I    between atoms: C4_23  and  O4_34 
REMARK       I    between atoms: C2_26  and  N_36 
REMARK       I    between atoms: O1_27  and  C7_35 
REMARK       I    between atoms: C3_32  and  O3_37 
ROOT
ATOM      1  S1  GNX d 141      27.240  -5.133 -24.504  0.00  0.00     0.156 S 
ATOM      2  C1  GNX d 141      29.858  -7.581 -24.372  0.00  0.00     0.150 C 
ATOM      3  O32 GNX d 141      24.972  -8.430 -25.668  0.00  0.00    -0.572 OA
ATOM      4  O6  GNX d 141      32.625  -9.694 -26.062  0.00  0.00    -0.398 OA
ATOM      5  O2S GNX d 141      26.093  -4.826 -23.655  0.00  0.00    -0.296 OA
ATOM      6  C6  GNX d 141      31.386 -10.344 -26.242  0.00  0.00     0.043 C 
ATOM      7  S12 GNX d 141      25.681  -8.946 -26.843  0.00  0.00     0.252 S 
ATOM      8  C5  GNX d 141      30.298  -9.577 -25.500  0.00  0.00     0.089 C 
ATOM      9  C3  GNX d 141      27.965  -8.655 -25.625  0.00  0.00     0.107 C 
ATOM     10  O1S GNX d 141      26.931  -4.996 -25.925  0.00  0.00    -0.296 OA
ATOM     11  C4  GNX d 141      29.025  -9.491 -26.333  0.00  0.00     0.090 C 
ATOM     12  O5  GNX d 141      30.757  -8.277 -25.205  0.00  0.00    -0.349 OA
ATOM     13  O12 GNX d 141      25.086  -8.295 -28.059  0.00  0.00    -0.572 OA
ATOM     14  C2  GNX d 141      28.552  -7.342 -25.120  0.00  0.00     0.083 C 
ATOM     15  O3  GNX d 141      26.907  -8.385 -26.518  0.00  0.00    -0.247 OA
ATOM     16  O22 GNX d 141      25.374 -10.375 -26.915  0.00  0.00    -0.572 OA
ATOM     17  O3S GNX d 141      28.420  -4.359 -24.127  0.00  0.00    -0.296 OA
ATOM     18  O4  GNX d 141      28.525 -10.789 -26.563  0.00  0.00    -0.390 OA
ATOM     19  N   GNX d 141      27.599  -6.673 -24.257  0.00  0.00    -0.210 NA
ATOM     20  H   GNX d 141      30.286  -6.641 -24.092  0.00  0.00     0.131 H 
ATOM     21  H   GNX d 141      33.318 -10.181 -26.534  0.00  0.00     0.209 HD
ATOM     22  H   GNX d 141      25.332  -5.357 -23.935  0.00  0.00     0.231 HD
ATOM     23  H   GNX d 141      31.446 -11.340 -25.858  0.00  0.00     0.078 H 
ATOM     24  H   GNX d 141      31.150 -10.378 -27.286  0.00  0.00     0.078 H 
ATOM     25  H   GNX d 141      30.073 -10.100 -24.594  0.00  0.00     0.090 H 
ATOM     26  H   GNX d 141      27.602  -9.209 -24.784  0.00  0.00     0.092 H 
ATOM     27  H   GNX d 141      26.144  -5.522 -26.137  0.00  0.00     0.231 HD
ATOM     28  H   GNX d 141      29.261  -9.020 -27.265  0.00  0.00     0.091 H 
ATOM     29  H   GNX d 141      28.759  -6.720 -25.965  0.00  0.00     0.076 H 
ATOM     30  H   GNX d 141      29.158  -4.590 -24.711  0.00  0.00     0.231 HD
ATOM     31  H   GNX d 141      28.313 -11.209 -25.714  0.00  0.00     0.210 HD
ATOM     32  H   GNX d 141      26.724  -7.194 -24.323  0.00  0.00     0.140 HD
ATOM     33  C2  IDY d 142      28.162  -7.318 -20.539  0.00  0.00     0.134 C 
ATOM     34  C5  IDY d 142      30.635  -8.942 -21.097  0.00  0.00     0.152 C 
ATOM     35  C1  IDY d 142      28.632  -8.545 -19.754  0.00  0.00     0.160 C 
ATOM     36  O5  IDY d 142      29.469  -9.464 -20.460  0.00  0.00    -0.340 OA
ATOM     37  O61 IDY d 142      32.371 -10.305 -22.108  0.00  0.00    -0.646 OA
ATOM     38  OS3 IDY d 142      25.499  -8.422 -19.512  0.00  0.00    -0.572 OA
ATOM     39  OS1 IDY d 142      24.714  -8.386 -21.802  0.00  0.00    -0.572 OA
ATOM     40  C6  IDY d 142      31.096 -10.050 -22.007  0.00  0.00     0.206 C 
ATOM     41  C4  IDY d 142      30.318  -7.696 -21.933  0.00  0.00     0.103 C 
ATOM     42  O2  IDY d 142      27.012  -7.580 -21.376  0.00  0.00    -0.244 OA
ATOM     43  O4  IDY d 142      29.602  -8.344 -23.214  0.00  0.00    -0.348 OA
ATOM     44  O62 IDY d 142      30.243 -10.750 -22.626  0.00  0.00    -0.646 OA
ATOM     45  O1  IDY d 142      28.467  -8.525 -18.172  0.00  0.00    -0.363 OA
ATOM     46  OS2 IDY d 142      24.966  -6.326 -20.639  0.00  0.00    -0.572 OA
ATOM     47  C3  IDY d 142      29.344  -6.694 -21.292  0.00  0.00     0.094 C 
ATOM     48  S   IDY d 142      25.557  -7.672 -20.820  0.00  0.00     0.252 S 
ATOM     49  C7  IDY d 142      28.907  -8.564 -17.301  0.00  0.00     0.007 C 
ATOM     50  O3  IDY d 142      30.061  -5.848 -20.370  0.00  0.00    -0.390 OA
ATOM     51  H   IDY d 142      27.806  -6.592 -19.838  0.00  0.00     0.097 H 
ATOM     52  H   IDY d 142      31.369  -8.647 -20.377  0.00  0.00     0.104 H 
ATOM     53  H   IDY d 142      27.870  -9.294 -19.698  0.00  0.00     0.133 H 
ATOM     54  H   IDY d 142      31.206  -7.122 -22.099  0.00  0.00     0.092 H 
ATOM     55  H   IDY d 142      28.928  -6.151 -22.114  0.00  0.00     0.091 H 
ATOM     56  H   IDY d 142      28.173  -8.493 -16.527  0.00  0.00     0.066 H 
ATOM     57  H   IDY d 142      29.599  -7.752 -17.214  0.00  0.00     0.066 H 
ATOM     58  H   IDY d 142      29.433  -9.491 -17.210  0.00  0.00     0.066 H 
ATOM     59  H   IDY d 142      30.416  -6.387 -19.646  0.00  0.00     0.210 HD
ENDROOT
TORSDOF 18
ENDMDL
MODEL 11
REMARK VINA RESULT:      -6.2      2.694      5.363
REMARK  0 active torsions:
REMARK  status: ('A' for Active; 'I' for Inactive)
REMARK       I    between atoms: S1_1  and  N_36 
REMARK       I    between atoms: S1_1  and  O1S_20 
REMARK       I    between atoms: S1_1  and  O2S_7 
REMARK       I    between atoms: S1_1  and  O3S_31 
REMARK       I    between atoms: C1_2  and  O4_21 
REMARK       I    between atoms: O6_4  and  C6_9 
REMARK       I    between atoms: C2_5  and  O2_18 
REMARK       I    between atoms: C5_6  and  C6_15 
REMARK       I    between atoms: C1_8  and  O1_27 
REMARK       I    between atoms: C6_9  and  C5_16 
REMARK       I    between atoms: S12_12  and  O3_28 
REMARK       I    between atoms: C4_17  and  O4_21 
REMARK       I    between atoms: O2_18  and  S_33 
REMARK       I    between atoms: C3_19  and  O3_28 
REMARK       I    between atoms: C4_23  and  O4_34 
REMARK       I    between atoms: C2_26  and  N_36 
REMARK       I    between atoms: O1_27  and  C7_35 
REMARK       I    between atoms: C3_32  and  O3_37 
ROOT
ATOM      1  S1  GNX d 141      29.689  -4.917 -24.595  0.00  0.00     0.156 S 
ATOM      2  C1  GNX d 141      28.037  -6.924 -22.124  0.00  0.00     0.150 C 
ATOM      3  O32 GNX d 141      30.315  -8.627 -26.388  0.00  0.00    -0.572 OA
ATOM      4  O6  GNX d 141      28.097  -9.157 -18.964  0.00  0.00    -0.398 OA
ATOM      5  O2S GNX d 141      29.346  -4.484 -25.946  0.00  0.00    -0.296 OA
ATOM      6  C6  GNX d 141      28.400  -9.955 -20.087  0.00  0.00     0.043 C 
ATOM      7  S12 GNX d 141      31.009  -9.402 -25.355  0.00  0.00     0.252 S 
ATOM      8  C5  GNX d 141      28.285  -9.114 -21.353  0.00  0.00     0.089 C 
ATOM      9  C3  GNX d 141      29.357  -8.519 -23.545  0.00  0.00     0.107 C 
ATOM     10  O1S GNX d 141      31.103  -5.254 -24.463  0.00  0.00    -0.296 OA
ATOM     11  C4  GNX d 141      29.426  -9.418 -22.316  0.00  0.00     0.090 C 
ATOM     12  O5  GNX d 141      28.310  -7.746 -21.011  0.00  0.00    -0.349 OA
ATOM     13  O12 GNX d 141      32.486  -9.221 -25.561  0.00  0.00    -0.572 OA
ATOM     14  C2  GNX d 141      29.160  -7.062 -23.145  0.00  0.00     0.083 C 
ATOM     15  O3  GNX d 141      30.549  -8.646 -24.287  0.00  0.00    -0.247 OA
ATOM     16  O22 GNX d 141      30.699 -10.808 -25.617  0.00  0.00    -0.572 OA
ATOM     17  O3S GNX d 141      29.265  -3.948 -23.588  0.00  0.00    -0.296 OA
ATOM     18  O4  GNX d 141      29.355 -10.769 -22.716  0.00  0.00    -0.390 OA
ATOM     19  N   GNX d 141      28.866  -6.261 -24.318  0.00  0.00    -0.210 NA
ATOM     20  H   GNX d 141      27.967  -5.905 -21.805  0.00  0.00     0.131 H 
ATOM     21  H   GNX d 141      28.170  -9.692 -18.158  0.00  0.00     0.209 HD
ATOM     22  H   GNX d 141      29.643  -5.150 -26.584  0.00  0.00     0.231 HD
ATOM     23  H   GNX d 141      27.714 -10.773 -20.139  0.00  0.00     0.078 H 
ATOM     24  H   GNX d 141      29.398 -10.332 -19.998  0.00  0.00     0.078 H 
ATOM     25  H   GNX d 141      27.362  -9.353 -21.836  0.00  0.00     0.090 H 
ATOM     26  H   GNX d 141      28.521  -8.823 -24.141  0.00  0.00     0.092 H 
ATOM     27  H   GNX d 141      31.348  -5.898 -25.146  0.00  0.00     0.231 HD
ATOM     28  H   GNX d 141      30.353  -9.235 -21.814  0.00  0.00     0.091 H 
ATOM     29  H   GNX d 141      30.065  -6.711 -22.697  0.00  0.00     0.076 H 
ATOM     30  H   GNX d 141      29.509  -4.270 -22.706  0.00  0.00     0.231 HD
ATOM     31  H   GNX d 141      28.513 -10.927 -23.171  0.00  0.00     0.210 HD
ATOM     32  H   GNX d 141      29.005  -6.865 -25.129  0.00  0.00     0.140 HD
ATOM     33  C2  IDY d 142      25.141  -5.673 -24.896  0.00  0.00     0.134 C 
ATOM     34  C5  IDY d 142      24.420  -7.128 -22.360  0.00  0.00     0.152 C 
ATOM     35  C1  IDY d 142      23.902  -6.545 -24.677  0.00  0.00     0.160 C 
ATOM     36  O5  IDY d 142      24.006  -7.546 -23.660  0.00  0.00    -0.340 OA
ATOM     37  O61 IDY d 142      24.401  -8.549 -20.391  0.00  0.00    -0.646 OA
ATOM     38  OS3 IDY d 142      24.610  -6.677 -27.738  0.00  0.00    -0.572 OA
ATOM     39  OS1 IDY d 142      26.911  -7.426 -27.798  0.00  0.00    -0.572 OA
ATOM     40  C6  IDY d 142      24.753  -8.408 -21.640  0.00  0.00     0.206 C 
ATOM     41  C4  IDY d 142      25.667  -6.237 -22.418  0.00  0.00     0.103 C 
ATOM     42  O2  IDY d 142      26.137  -6.297 -25.739  0.00  0.00    -0.244 OA
ATOM     43  O4  IDY d 142      26.817  -7.317 -22.711  0.00  0.00    -0.348 OA
ATOM     44  O62 IDY d 142      25.327  -9.348 -22.262  0.00  0.00    -0.646 OA
ATOM     45  O1  IDY d 142      22.527  -6.058 -25.310  0.00  0.00    -0.363 OA
ATOM     46  OS2 IDY d 142      26.457  -5.094 -27.919  0.00  0.00    -0.572 OA
ATOM     47  C3  IDY d 142      25.688  -5.193 -23.546  0.00  0.00     0.094 C 
ATOM     48  S   IDY d 142      26.017  -6.362 -27.293  0.00  0.00     0.252 S 
ATOM     49  C7  IDY d 142      21.604  -5.783 -25.152  0.00  0.00     0.007 C 
ATOM     50  O3  IDY d 142      24.927  -4.036 -23.144  0.00  0.00    -0.390 OA
ATOM     51  H   IDY d 142      24.843  -4.808 -25.451  0.00  0.00     0.097 H 
ATOM     52  H   IDY d 142      23.657  -6.552 -21.878  0.00  0.00     0.104 H 
ATOM     53  H   IDY d 142      23.825  -7.316 -25.416  0.00  0.00     0.133 H 
ATOM     54  H   IDY d 142      25.752  -5.654 -21.525  0.00  0.00     0.092 H 
ATOM     55  H   IDY d 142      26.724  -4.974 -23.698  0.00  0.00     0.091 H 
ATOM     56  H   IDY d 142      21.135  -5.553 -26.086  0.00  0.00     0.066 H 
ATOM     57  H   IDY d 142      21.592  -4.917 -24.523  0.00  0.00     0.066 H 
ATOM     58  H   IDY d 142      21.072  -6.578 -24.672  0.00  0.00     0.066 H 
ATOM     59  H   IDY d 142      23.998  -4.287 -23.020  0.00  0.00     0.210 HD
ENDROOT
TORSDOF 18
ENDMDL
MODEL 12
REMARK VINA RESULT:      -6.1      2.913      6.720
REMARK  0 active torsions:
REMARK  status: ('A' for Active; 'I' for Inactive)
REMARK       I    between atoms: S1_1  and  N_36 
REMARK       I    between atoms: S1_1  and  O1S_20 
REMARK       I    between atoms: S1_1  and  O2S_7 
REMARK       I    between atoms: S1_1  and  O3S_31 
REMARK       I    between atoms: C1_2  and  O4_21 
REMARK       I    between atoms: O6_4  and  C6_9 
REMARK       I    between atoms: C2_5  and  O2_18 
REMARK       I    between atoms: C5_6  and  C6_15 
REMARK       I    between atoms: C1_8  and  O1_27 
REMARK       I    between atoms: C6_9  and  C5_16 
REMARK       I    between atoms: S12_12  and  O3_28 
REMARK       I    between atoms: C4_17  and  O4_21 
REMARK       I    between atoms: O2_18  and  S_33 
REMARK       I    between atoms: C3_19  and  O3_28 
REMARK       I    between atoms: C4_23  and  O4_34 
REMARK       I    between atoms: C2_26  and  N_36 
REMARK       I    between atoms: O1_27  and  C7_35 
REMARK       I    between atoms: C3_32  and  O3_37 
ROOT
ATOM      1  S1  GNX d 141      26.846  -5.059 -23.230  0.00  0.00     0.156 S 
ATOM      2  C1  GNX d 141      29.580  -6.913 -24.625  0.00  0.00     0.150 C 
ATOM      3  O32 GNX d 141      24.597  -7.745 -25.486  0.00  0.00    -0.572 OA
ATOM      4  O6  GNX d 141      32.104  -7.623 -27.471  0.00  0.00    -0.398 OA
ATOM      5  O2S GNX d 141      25.860  -5.331 -22.188  0.00  0.00    -0.296 OA
ATOM      6  C6  GNX d 141      30.893  -8.285 -27.765  0.00  0.00     0.043 C 
ATOM      7  S12 GNX d 141      25.104  -7.568 -26.850  0.00  0.00     0.252 S 
ATOM      8  C5  GNX d 141      29.919  -8.097 -26.608  0.00  0.00     0.089 C 
ATOM      9  C3  GNX d 141      27.553  -7.550 -25.964  0.00  0.00     0.107 C 
ATOM     10  O1S GNX d 141      26.271  -4.335 -24.361  0.00  0.00    -0.296 OA
ATOM     11  C4  GNX d 141      28.511  -7.818 -27.120  0.00  0.00     0.090 C 
ATOM     12  O5  GNX d 141      30.348  -7.023 -25.802  0.00  0.00    -0.349 OA
ATOM     13  O12 GNX d 141      24.257  -6.526 -27.522  0.00  0.00    -0.572 OA
ATOM     14  C2  GNX d 141      28.147  -6.542 -24.986  0.00  0.00     0.083 C 
ATOM     15  O3  GNX d 141      26.334  -7.054 -26.470  0.00  0.00    -0.247 OA
ATOM     16  O22 GNX d 141      24.873  -8.836 -27.544  0.00  0.00    -0.572 OA
ATOM     17  O3S GNX d 141      28.028  -4.386 -22.698  0.00  0.00    -0.296 OA
ATOM     18  O4  GNX d 141      28.053  -8.926 -27.862  0.00  0.00    -0.390 OA
ATOM     19  N   GNX d 141      27.333  -6.477 -23.788  0.00  0.00    -0.210 NA
ATOM     20  H   GNX d 141      29.997  -6.153 -23.997  0.00  0.00     0.131 H 
ATOM     21  H   GNX d 141      32.724  -7.743 -28.207  0.00  0.00     0.209 HD
ATOM     22  H   GNX d 141      25.092  -5.777 -22.578  0.00  0.00     0.231 HD
ATOM     23  H   GNX d 141      31.081  -9.328 -27.907  0.00  0.00     0.078 H 
ATOM     24  H   GNX d 141      30.470  -7.874 -28.658  0.00  0.00     0.078 H 
ATOM     25  H   GNX d 141      29.897  -8.999 -26.034  0.00  0.00     0.090 H 
ATOM     26  H   GNX d 141      27.386  -8.470 -25.442  0.00  0.00     0.092 H 
ATOM     27  H   GNX d 141      25.491  -4.810 -24.686  0.00  0.00     0.231 HD
ATOM     28  H   GNX d 141      28.542  -6.949 -27.742  0.00  0.00     0.091 H 
ATOM     29  H   GNX d 141      28.157  -5.582 -25.458  0.00  0.00     0.076 H 
ATOM     30  H   GNX d 141      28.658  -4.222 -23.417  0.00  0.00     0.231 HD
ATOM     31  H   GNX d 141      28.027  -9.710 -27.292  0.00  0.00     0.210 HD
ATOM     32  H   GNX d 141      26.493  -7.026 -23.972  0.00  0.00     0.140 HD
ATOM     33  C2  IDY d 142      28.612  -8.654 -20.928  0.00  0.00     0.134 C 
ATOM     34  C5  IDY d 142      31.029  -9.490 -22.518  0.00  0.00     0.152 C 
ATOM     35  C1  IDY d 142      29.290 -10.026 -20.886  0.00  0.00     0.160 C 
ATOM     36  O5  IDY d 142      30.033 -10.399 -22.049  0.00  0.00    -0.340 OA
ATOM     37  O61 IDY d 142      32.624  -9.991 -24.279  0.00  0.00    -0.646 OA
ATOM     38  OS3 IDY d 142      26.254 -10.459 -20.189  0.00  0.00    -0.572 OA
ATOM     39  OS1 IDY d 142      25.058  -9.497 -22.060  0.00  0.00    -0.572 OA
ATOM     40  C6  IDY d 142      31.377  -9.989 -23.895  0.00  0.00     0.206 C 
ATOM     41  C4  IDY d 142      30.491  -8.057 -22.616  0.00  0.00     0.103 C 
ATOM     42  O2  IDY d 142      27.344  -8.664 -21.624  0.00  0.00    -0.244 OA
ATOM     43  O4  IDY d 142      29.589  -8.145 -23.940  0.00  0.00    -0.348 OA
ATOM     44  O62 IDY d 142      30.466 -10.441 -24.648  0.00  0.00    -0.646 OA
ATOM     45  O1  IDY d 142      29.420 -10.749 -19.475  0.00  0.00    -0.363 OA
ATOM     46  OS2 IDY d 142      25.401  -8.176 -20.112  0.00  0.00    -0.572 OA
ATOM     47  C3  IDY d 142      29.596  -7.600 -21.453  0.00  0.00     0.094 C 
ATOM     48  S   IDY d 142      26.025  -9.197 -20.984  0.00  0.00     0.252 S 
ATOM     49  C7  IDY d 142      30.016 -11.118 -18.795  0.00  0.00     0.007 C 
ATOM     50  O3  IDY d 142      30.421  -7.175 -20.349  0.00  0.00    -0.390 OA
ATOM     51  H   IDY d 142      28.351  -8.383 -19.927  0.00  0.00     0.097 H 
ATOM     52  H   IDY d 142      31.865  -9.455 -21.851  0.00  0.00     0.104 H 
ATOM     53  H   IDY d 142      28.596 -10.816 -21.086  0.00  0.00     0.133 H 
ATOM     54  H   IDY d 142      31.297  -7.354 -22.612  0.00  0.00     0.092 H 
ATOM     55  H   IDY d 142      29.004  -6.806 -21.857  0.00  0.00     0.091 H 
ATOM     56  H   IDY d 142      29.435 -11.508 -17.986  0.00  0.00     0.066 H 
ATOM     57  H   IDY d 142      30.663 -10.347 -18.432  0.00  0.00     0.066 H 
ATOM     58  H   IDY d 142      30.603 -11.903 -19.224  0.00  0.00     0.066 H 
ATOM     59  H   IDY d 142      30.935  -7.929 -20.020  0.00  0.00     0.210 HD
ENDROOT
TORSDOF 18
ENDMDL
MODEL 13
REMARK VINA RESULT:      -6.1      2.888      4.285
REMARK  0 active torsions:
REMARK  status: ('A' for Active; 'I' for Inactive)
REMARK       I    between atoms: S1_1  and  N_36 
REMARK       I    between atoms: S1_1  and  O1S_20 
REMARK       I    between atoms: S1_1  and  O2S_7 
REMARK       I    between atoms: S1_1  and  O3S_31 
REMARK       I    between atoms: C1_2  and  O4_21 
REMARK       I    between atoms: O6_4  and  C6_9 
REMARK       I    between atoms: C2_5  and  O2_18 
REMARK       I    between atoms: C5_6  and  C6_15 
REMARK       I    between atoms: C1_8  and  O1_27 
REMARK       I    between atoms: C6_9  and  C5_16 
REMARK       I    between atoms: S12_12  and  O3_28 
REMARK       I    between atoms: C4_17  and  O4_21 
REMARK       I    between atoms: O2_18  and  S_33 
REMARK       I    between atoms: C3_19  and  O3_28 
REMARK       I    between atoms: C4_23  and  O4_34 
REMARK       I    between atoms: C2_26  and  N_36 
REMARK       I    between atoms: O1_27  and  C7_35 
REMARK       I    between atoms: C3_32  and  O3_37 
ROOT
ATOM      1  S1  GNX d 141      27.841  -8.602 -18.037  0.00  0.00     0.156 S 
ATOM      2  C1  GNX d 141      28.353  -9.190 -21.537  0.00  0.00     0.150 C 
ATOM      3  O32 GNX d 141      30.531  -5.495 -18.730  0.00  0.00    -0.572 OA
ATOM      4  O6  GNX d 141      30.360 -10.727 -24.467  0.00  0.00    -0.398 OA
ATOM      5  O2S GNX d 141      27.103  -7.600 -17.272  0.00  0.00    -0.296 OA
ATOM      6  C6  GNX d 141      30.953  -9.499 -24.108  0.00  0.00     0.043 C 
ATOM      7  S12 GNX d 141      31.706  -6.169 -19.291  0.00  0.00     0.252 S 
ATOM      8  C5  GNX d 141      30.119  -8.831 -23.021  0.00  0.00     0.089 C 
ATOM      9  C3  GNX d 141      30.177  -7.618 -20.822  0.00  0.00     0.107 C 
ATOM     10  O1S GNX d 141      29.112  -8.952 -17.410  0.00  0.00    -0.296 OA
ATOM     11  C4  GNX d 141      31.011  -8.215 -21.950  0.00  0.00     0.090 C 
ATOM     12  O5  GNX d 141      29.266  -9.786 -22.431  0.00  0.00    -0.349 OA
ATOM     13  O12 GNX d 141      32.625  -6.510 -18.153  0.00  0.00    -0.572 OA
ATOM     14  C2  GNX d 141      29.111  -8.602 -20.353  0.00  0.00     0.083 C 
ATOM     15  O3  GNX d 141      31.019  -7.286 -19.741  0.00  0.00    -0.247 OA
ATOM     16  O22 GNX d 141      32.389  -5.179 -20.125  0.00  0.00    -0.572 OA
ATOM     17  O3S GNX d 141      27.027  -9.783 -18.312  0.00  0.00    -0.296 OA
ATOM     18  O4  GNX d 141      31.810  -7.206 -22.528  0.00  0.00    -0.390 OA
ATOM     19  N   GNX d 141      28.189  -7.940 -19.451  0.00  0.00    -0.210 NA
ATOM     20  H   GNX d 141      27.663  -9.929 -21.187  0.00  0.00     0.131 H 
ATOM     21  H   GNX d 141      30.890 -11.152 -25.159  0.00  0.00     0.209 HD
ATOM     22  H   GNX d 141      27.674  -6.833 -17.109  0.00  0.00     0.231 HD
ATOM     23  H   GNX d 141      30.998  -8.860 -24.965  0.00  0.00     0.078 H 
ATOM     24  H   GNX d 141      31.943  -9.675 -23.742  0.00  0.00     0.078 H 
ATOM     25  H   GNX d 141      29.541  -8.051 -23.469  0.00  0.00     0.090 H 
ATOM     26  H   GNX d 141      29.689  -6.740 -21.189  0.00  0.00     0.092 H 
ATOM     27  H   GNX d 141      29.623  -8.145 -17.243  0.00  0.00     0.231 HD
ATOM     28  H   GNX d 141      31.632  -8.984 -21.542  0.00  0.00     0.091 H 
ATOM     29  H   GNX d 141      29.597  -9.402 -19.835  0.00  0.00     0.076 H 
ATOM     30  H   GNX d 141      27.549 -10.423 -18.820  0.00  0.00     0.231 HD
ATOM     31  H   GNX d 141      31.240  -6.513 -22.895  0.00  0.00     0.210 HD
ATOM     32  H   GNX d 141      28.578  -7.017 -19.257  0.00  0.00     0.140 HD
ATOM     33  C2  IDY d 142      25.008  -6.682 -21.141  0.00  0.00     0.134 C 
ATOM     34  C5  IDY d 142      25.833  -7.860 -23.786  0.00  0.00     0.152 C 
ATOM     35  C1  IDY d 142      24.728  -6.083 -22.522  0.00  0.00     0.160 C 
ATOM     36  O5  IDY d 142      25.625  -6.465 -23.568  0.00  0.00    -0.340 OA
ATOM     37  O61 IDY d 142      27.063  -8.786 -25.665  0.00  0.00    -0.646 OA
ATOM     38  OS3 IDY d 142      24.885  -3.697 -20.480  0.00  0.00    -0.572 OA
ATOM     39  OS1 IDY d 142      27.049  -3.941 -19.424  0.00  0.00    -0.572 OA
ATOM     40  C6  IDY d 142      27.040  -7.926 -24.684  0.00  0.00     0.206 C 
ATOM     41  C4  IDY d 142      26.130  -8.603 -22.478  0.00  0.00     0.103 C 
ATOM     42  O2  IDY d 142      26.027  -5.968 -20.404  0.00  0.00    -0.244 OA
ATOM     43  O4  IDY d 142      27.647  -8.165 -22.199  0.00  0.00    -0.348 OA
ATOM     44  O62 IDY d 142      27.999  -7.119 -24.508  0.00  0.00    -0.646 OA
ATOM     45  O1  IDY d 142      23.311  -5.404 -22.766  0.00  0.00    -0.363 OA
ATOM     46  OS2 IDY d 142      25.132  -4.846 -18.344  0.00  0.00    -0.572 OA
ATOM     47  C3  IDY d 142      25.278  -8.187 -21.268  0.00  0.00     0.094 C 
ATOM     48  S   IDY d 142      25.758  -4.620 -19.667  0.00  0.00     0.252 S 
ATOM     49  C7  IDY d 142      22.480  -5.404 -23.278  0.00  0.00     0.007 C 
ATOM     50  O3  IDY d 142      24.005  -8.864 -21.320  0.00  0.00    -0.390 OA
ATOM     51  H   IDY d 142      24.129  -6.560 -20.543  0.00  0.00     0.097 H 
ATOM     52  H   IDY d 142      24.962  -8.319 -24.206  0.00  0.00     0.104 H 
ATOM     53  H   IDY d 142      25.084  -5.076 -22.595  0.00  0.00     0.133 H 
ATOM     54  H   IDY d 142      25.928  -9.648 -22.588  0.00  0.00     0.092 H 
ATOM     55  H   IDY d 142      25.859  -8.465 -20.414  0.00  0.00     0.091 H 
ATOM     56  H   IDY d 142      21.849  -4.611 -22.934  0.00  0.00     0.066 H 
ATOM     57  H   IDY d 142      21.980  -6.341 -23.146  0.00  0.00     0.066 H 
ATOM     58  H   IDY d 142      22.699  -5.260 -24.315  0.00  0.00     0.066 H 
ATOM     59  H   IDY d 142      23.519  -8.577 -22.109  0.00  0.00     0.210 HD
ENDROOT
TORSDOF 18
ENDMDL
MODEL 14
REMARK VINA RESULT:      -6.0      3.860      6.635
REMARK  0 active torsions:
REMARK  status: ('A' for Active; 'I' for Inactive)
REMARK       I    between atoms: S1_1  and  N_36 
REMARK       I    between atoms: S1_1  and  O1S_20 
REMARK       I    between atoms: S1_1  and  O2S_7 
REMARK       I    between atoms: S1_1  and  O3S_31 
REMARK       I    between atoms: C1_2  and  O4_21 
REMARK       I    between atoms: O6_4  and  C6_9 
REMARK       I    between atoms: C2_5  and  O2_18 
REMARK       I    between atoms: C5_6  and  C6_15 
REMARK       I    between atoms: C1_8  and  O1_27 
REMARK       I    between atoms: C6_9  and  C5_16 
REMARK       I    between atoms: S12_12  and  O3_28 
REMARK       I    between atoms: C4_17  and  O4_21 
REMARK       I    between atoms: O2_18  and  S_33 
REMARK       I    between atoms: C3_19  and  O3_28 
REMARK       I    between atoms: C4_23  and  O4_34 
REMARK       I    between atoms: C2_26  and  N_36 
REMARK       I    between atoms: O1_27  and  C7_35 
REMARK       I    between atoms: C3_32  and  O3_37 
ROOT
ATOM      1  S1  GNX d 141      25.566  -9.146 -21.502  0.00  0.00     0.156 S 
ATOM      2  C1  GNX d 141      26.940  -5.839 -21.321  0.00  0.00     0.150 C 
ATOM      3  O32 GNX d 141      28.953  -9.828 -23.832  0.00  0.00    -0.572 OA
ATOM      4  O6  GNX d 141      27.445  -2.284 -22.767  0.00  0.00    -0.398 OA
ATOM      5  O2S GNX d 141      25.909 -10.424 -20.885  0.00  0.00    -0.296 OA
ATOM      6  C6  GNX d 141      28.389  -3.151 -23.357  0.00  0.00     0.043 C 
ATOM      7  S12 GNX d 141      28.848  -8.831 -24.902  0.00  0.00     0.252 S 
ATOM      8  C5  GNX d 141      28.270  -4.534 -22.728  0.00  0.00     0.089 C 
ATOM      9  C3  GNX d 141      28.177  -7.005 -23.170  0.00  0.00     0.107 C 
ATOM     10  O1S GNX d 141      25.140  -9.297 -22.891  0.00  0.00    -0.296 OA
ATOM     11  C4  GNX d 141      28.377  -5.625 -23.786  0.00  0.00     0.090 C 
ATOM     12  O5  GNX d 141      27.032  -4.643 -22.063  0.00  0.00    -0.349 OA
ATOM     13  O12 GNX d 141      28.115  -9.465 -26.049  0.00  0.00    -0.572 OA
ATOM     14  C2  GNX d 141      26.944  -7.029 -22.273  0.00  0.00     0.083 C 
ATOM     15  O3  GNX d 141      28.031  -7.961 -24.196  0.00  0.00    -0.247 OA
ATOM     16  O22 GNX d 141      30.216  -8.562 -25.349  0.00  0.00    -0.572 OA
ATOM     17  O3S GNX d 141      24.586  -8.406 -20.711  0.00  0.00    -0.296 OA
ATOM     18  O4  GNX d 141      29.646  -5.563 -24.399  0.00  0.00    -0.390 OA
ATOM     19  N   GNX d 141      26.902  -8.267 -21.521  0.00  0.00    -0.210 NA
ATOM     20  H   GNX d 141      26.031  -5.838 -20.756  0.00  0.00     0.131 H 
ATOM     21  H   GNX d 141      27.520  -1.404 -23.166  0.00  0.00     0.209 HD
ATOM     22  H   GNX d 141      26.560 -10.884 -21.437  0.00  0.00     0.231 HD
ATOM     23  H   GNX d 141      29.375  -2.769 -23.194  0.00  0.00     0.078 H 
ATOM     24  H   GNX d 141      28.202  -3.219 -24.408  0.00  0.00     0.078 H 
ATOM     25  H   GNX d 141      29.072  -4.660 -22.032  0.00  0.00     0.090 H 
ATOM     26  H   GNX d 141      29.034  -7.237 -22.572  0.00  0.00     0.092 H 
ATOM     27  H   GNX d 141      25.814  -9.792 -23.383  0.00  0.00     0.231 HD
ATOM     28  H   GNX d 141      27.611  -5.466 -24.516  0.00  0.00     0.091 H 
ATOM     29  H   GNX d 141      26.076  -6.965 -22.894  0.00  0.00     0.076 H 
ATOM     30  H   GNX d 141      24.383  -7.566 -21.151  0.00  0.00     0.231 HD
ATOM     31  H   GNX d 141      30.334  -5.709 -23.731  0.00  0.00     0.210 HD
ATOM     32  H   GNX d 141      27.642  -8.864 -21.893  0.00  0.00     0.140 HD
ATOM     33  C2  IDY d 142      28.352  -7.990 -18.002  0.00  0.00     0.134 C 
ATOM     34  C5  IDY d 142      28.837  -5.036 -18.332  0.00  0.00     0.152 C 
ATOM     35  C1  IDY d 142      29.523  -7.197 -17.418  0.00  0.00     0.160 C 
ATOM     36  O5  IDY d 142      29.873  -5.990 -18.102  0.00  0.00    -0.340 OA
ATOM     37  O61 IDY d 142      29.202  -2.798 -19.200  0.00  0.00    -0.646 OA
ATOM     38  OS3 IDY d 142      30.518 -10.146 -17.864  0.00  0.00    -0.572 OA
ATOM     39  OS1 IDY d 142      30.096 -10.582 -20.207  0.00  0.00    -0.572 OA
ATOM     40  C6  IDY d 142      29.423  -4.077 -19.334  0.00  0.00     0.206 C 
ATOM     41  C4  IDY d 142      27.583  -5.689 -18.926  0.00  0.00     0.103 C 
ATOM     42  O2  IDY d 142      28.731  -8.836 -19.112  0.00  0.00    -0.244 OA
ATOM     43  O4  IDY d 142      28.039  -5.934 -20.444  0.00  0.00    -0.348 OA
ATOM     44  O62 IDY d 142      30.159  -4.513 -20.265  0.00  0.00    -0.646 OA
ATOM     45  O1  IDY d 142      30.009  -7.561 -15.948  0.00  0.00    -0.363 OA
ATOM     46  OS2 IDY d 142      28.489 -11.281 -18.598  0.00  0.00    -0.572 OA
ATOM     47  C3  IDY d 142      27.186  -7.044 -18.318  0.00  0.00     0.094 C 
ATOM     48  S   IDY d 142      29.453 -10.207 -18.930  0.00  0.00     0.252 S 
ATOM     49  C7  IDY d 142      30.146  -7.255 -15.031  0.00  0.00     0.007 C 
ATOM     50  O3  IDY d 142      26.448  -6.826 -17.098  0.00  0.00    -0.390 OA
ATOM     51  H   IDY d 142      28.016  -8.681 -17.258  0.00  0.00     0.097 H 
ATOM     52  H   IDY d 142      28.532  -4.568 -17.419  0.00  0.00     0.104 H 
ATOM     53  H   IDY d 142      30.466  -7.619 -17.699  0.00  0.00     0.133 H 
ATOM     54  H   IDY d 142      26.725  -5.071 -18.760  0.00  0.00     0.092 H 
ATOM     55  H   IDY d 142      26.601  -7.524 -19.074  0.00  0.00     0.091 H 
ATOM     56  H   IDY d 142      30.545  -8.055 -14.444  0.00  0.00     0.066 H 
ATOM     57  H   IDY d 142      29.211  -6.939 -14.617  0.00  0.00     0.066 H 
ATOM     58  H   IDY d 142      30.832  -6.434 -15.027  0.00  0.00     0.066 H 
ATOM     59  H   IDY d 142      27.022  -6.391 -16.447  0.00  0.00     0.210 HD
ENDROOT
TORSDOF 18
ENDMDL
MODEL 15
REMARK VINA RESULT:      -6.0      3.645      6.619
REMARK  0 active torsions:
REMARK  status: ('A' for Active; 'I' for Inactive)
REMARK       I    between atoms: S1_1  and  N_36 
REMARK       I    between atoms: S1_1  and  O1S_20 
REMARK       I    between atoms: S1_1  and  O2S_7 
REMARK       I    between atoms: S1_1  and  O3S_31 
REMARK       I    between atoms: C1_2  and  O4_21 
REMARK       I    between atoms: O6_4  and  C6_9 
REMARK       I    between atoms: C2_5  and  O2_18 
REMARK       I    between atoms: C5_6  and  C6_15 
REMARK       I    between atoms: C1_8  and  O1_27 
REMARK       I    between atoms: C6_9  and  C5_16 
REMARK       I    between atoms: S12_12  and  O3_28 
REMARK       I    between atoms: C4_17  and  O4_21 
REMARK       I    between atoms: O2_18  and  S_33 
REMARK       I    between atoms: C3_19  and  O3_28 
REMARK       I    between atoms: C4_23  and  O4_34 
REMARK       I    between atoms: C2_26  and  N_36 
REMARK       I    between atoms: O1_27  and  C7_35 
REMARK       I    between atoms: C3_32  and  O3_37 
ROOT
ATOM      1  S1  GNX d 141      28.964 -10.511 -20.109  0.00  0.00     0.156 S 
ATOM      2  C1  GNX d 141      30.170  -7.238 -20.941  0.00  0.00     0.150 C 
ATOM      3  O32 GNX d 141      26.738  -8.375 -17.307  0.00  0.00    -0.572 OA
ATOM      4  O6  GNX d 141      32.563  -4.250 -20.370  0.00  0.00    -0.398 OA
ATOM      5  O2S GNX d 141      27.712 -11.223 -20.347  0.00  0.00    -0.296 OA
ATOM      6  C6  GNX d 141      31.475  -4.135 -19.479  0.00  0.00     0.043 C 
ATOM      7  S12 GNX d 141      27.751  -7.647 -16.536  0.00  0.00     0.252 S 
ATOM      8  C5  GNX d 141      30.473  -5.249 -19.756  0.00  0.00     0.089 C 
ATOM      9  C3  GNX d 141      28.998  -7.006 -18.732  0.00  0.00     0.107 C 
ATOM     10  O1S GNX d 141      29.515 -10.785 -18.785  0.00  0.00    -0.296 OA
ATOM     11  C4  GNX d 141      29.939  -5.838 -18.456  0.00  0.00     0.090 C 
ATOM     12  O5  GNX d 141      31.095  -6.264 -20.512  0.00  0.00    -0.349 OA
ATOM     13  O12 GNX d 141      28.132  -8.500 -15.361  0.00  0.00    -0.572 OA
ATOM     14  C2  GNX d 141      29.614  -7.979 -19.730  0.00  0.00     0.083 C 
ATOM     15  O3  GNX d 141      28.723  -7.682 -17.525  0.00  0.00    -0.247 OA
ATOM     16  O22 GNX d 141      27.090  -6.450 -16.014  0.00  0.00    -0.572 OA
ATOM     17  O3S GNX d 141      29.941 -10.760 -21.166  0.00  0.00    -0.296 OA
ATOM     18  O4  GNX d 141      29.250  -4.840 -17.736  0.00  0.00    -0.390 OA
ATOM     19  N   GNX d 141      28.623  -8.948 -20.154  0.00  0.00    -0.210 NA
ATOM     20  H   GNX d 141      30.660  -7.933 -21.590  0.00  0.00     0.131 H 
ATOM     21  H   GNX d 141      33.201  -3.541 -20.194  0.00  0.00     0.209 HD
ATOM     22  H   GNX d 141      27.091 -11.034 -19.627  0.00  0.00     0.231 HD
ATOM     23  H   GNX d 141      31.001  -3.186 -19.616  0.00  0.00     0.078 H 
ATOM     24  H   GNX d 141      31.829  -4.215 -18.472  0.00  0.00     0.078 H 
ATOM     25  H   GNX d 141      29.651  -4.837 -20.302  0.00  0.00     0.090 H 
ATOM     26  H   GNX d 141      28.092  -6.620 -19.150  0.00  0.00     0.092 H 
ATOM     27  H   GNX d 141      28.839 -10.609 -18.111  0.00  0.00     0.231 HD
ATOM     28  H   GNX d 141      30.766  -6.198 -17.881  0.00  0.00     0.091 H 
ATOM     29  H   GNX d 141      30.422  -8.488 -19.249  0.00  0.00     0.076 H 
ATOM     30  H   GNX d 141      30.757 -10.271 -20.973  0.00  0.00     0.231 HD
ATOM     31  H   GNX d 141      28.502  -4.519 -18.262  0.00  0.00     0.210 HD
ATOM     32  H   GNX d 141      27.803  -8.809 -19.562  0.00  0.00     0.140 HD
ATOM     33  C2  IDY d 142      26.897  -8.065 -23.440  0.00  0.00     0.134 C 
ATOM     34  C5  IDY d 142      28.618  -5.619 -23.796  0.00  0.00     0.152 C 
ATOM     35  C1  IDY d 142      26.460  -6.737 -24.062  0.00  0.00     0.160 C 
ATOM     36  O5  IDY d 142      27.197  -5.579 -23.662  0.00  0.00    -0.340 OA
ATOM     37  O61 IDY d 142      30.081  -3.709 -23.472  0.00  0.00    -0.646 OA
ATOM     38  OS3 IDY d 142      23.907  -8.060 -22.790  0.00  0.00    -0.572 OA
ATOM     39  OS1 IDY d 142      24.509  -8.441 -20.477  0.00  0.00    -0.572 OA
ATOM     40  C6  IDY d 142      29.106  -4.437 -23.001  0.00  0.00     0.206 C 
ATOM     41  C4  IDY d 142      29.209  -6.906 -23.208  0.00  0.00     0.103 C 
ATOM     42  O2  IDY d 142      26.351  -8.285 -22.119  0.00  0.00    -0.244 OA
ATOM     43  O4  IDY d 142      29.114  -6.611 -21.634  0.00  0.00    -0.348 OA
ATOM     44  O62 IDY d 142      28.538  -4.134 -21.912  0.00  0.00    -0.646 OA
ATOM     45  O1  IDY d 142      25.502  -6.789 -25.331  0.00  0.00    -0.363 OA
ATOM     46  OS2 IDY d 142      24.754 -10.220 -22.037  0.00  0.00    -0.572 OA
ATOM     47  C3  IDY d 142      28.425  -8.195 -23.504  0.00  0.00     0.094 C 
ATOM     48  S   IDY d 142      24.883  -8.754 -21.872  0.00  0.00     0.252 S 
ATOM     49  C7  IDY d 142      25.377  -6.565 -26.273  0.00  0.00     0.007 C 
ATOM     50  O3  IDY d 142      28.774  -8.680 -24.817  0.00  0.00    -0.390 OA
ATOM     51  H   IDY d 142      26.480  -8.858 -24.023  0.00  0.00     0.097 H 
ATOM     52  H   IDY d 142      28.910  -5.593 -24.825  0.00  0.00     0.104 H 
ATOM     53  H   IDY d 142      25.591  -6.341 -23.579  0.00  0.00     0.133 H 
ATOM     54  H   IDY d 142      30.178  -7.095 -23.619  0.00  0.00     0.092 H 
ATOM     55  H   IDY d 142      28.706  -8.873 -22.726  0.00  0.00     0.091 H 
ATOM     56  H   IDY d 142      24.413  -6.901 -26.594  0.00  0.00     0.066 H 
ATOM     57  H   IDY d 142      26.135  -7.044 -26.857  0.00  0.00     0.066 H 
ATOM     58  H   IDY d 142      25.445  -5.505 -26.400  0.00  0.00     0.066 H 
ATOM     59  H   IDY d 142      28.498  -8.031 -25.484  0.00  0.00     0.210 HD
ENDROOT
TORSDOF 18
ENDMDL
MODEL 16
REMARK VINA RESULT:      -6.0      3.101      6.428
REMARK  0 active torsions:
REMARK  status: ('A' for Active; 'I' for Inactive)
REMARK       I    between atoms: S1_1  and  N_36 
REMARK       I    between atoms: S1_1  and  O1S_20 
REMARK       I    between atoms: S1_1  and  O2S_7 
REMARK       I    between atoms: S1_1  and  O3S_31 
REMARK       I    between atoms: C1_2  and  O4_21 
REMARK       I    between atoms: O6_4  and  C6_9 
REMARK       I    between atoms: C2_5  and  O2_18 
REMARK       I    between atoms: C5_6  and  C6_15 
REMARK       I    between atoms: C1_8  and  O1_27 
REMARK       I    between atoms: C6_9  and  C5_16 
REMARK       I    between atoms: S12_12  and  O3_28 
REMARK       I    between atoms: C4_17  and  O4_21 
REMARK       I    between atoms: O2_18  and  S_33 
REMARK       I    between atoms: C3_19  and  O3_28 
REMARK       I    between atoms: C4_23  and  O4_34 
REMARK       I    between atoms: C2_26  and  N_36 
REMARK       I    between atoms: O1_27  and  C7_35 
REMARK       I    between atoms: C3_32  and  O3_37 
ROOT
ATOM      1  S1  GNX d 141      31.221  -6.297 -22.987  0.00  0.00     0.156 S 
ATOM      2  C1  GNX d 141      27.893  -6.697 -21.711  0.00  0.00     0.150 C 
ATOM      3  O32 GNX d 141      31.769 -10.006 -21.168  0.00  0.00    -0.572 OA
ATOM      4  O6  GNX d 141      25.285  -6.404 -18.867  0.00  0.00    -0.398 OA
ATOM      5  O2S GNX d 141      31.962  -6.892 -24.095  0.00  0.00    -0.296 OA
ATOM      6  C6  GNX d 141      25.995  -7.612 -18.707  0.00  0.00     0.043 C 
ATOM      7  S12 GNX d 141      31.386  -9.772 -19.772  0.00  0.00     0.252 S 
ATOM      8  C5  GNX d 141      26.960  -7.793 -19.873  0.00  0.00     0.089 C 
ATOM      9  C3  GNX d 141      29.296  -8.424 -20.546  0.00  0.00     0.107 C 
ATOM     10  O1S GNX d 141      32.053  -6.105 -21.802  0.00  0.00    -0.296 OA
ATOM     11  C4  GNX d 141      28.306  -8.321 -19.391  0.00  0.00     0.090 C 
ATOM     12  O5  GNX d 141      27.145  -6.556 -20.525  0.00  0.00    -0.349 OA
ATOM     13  O12 GNX d 141      32.625  -9.386 -19.016  0.00  0.00    -0.572 OA
ATOM     14  C2  GNX d 141      29.311  -7.141 -21.369  0.00  0.00     0.083 C 
ATOM     15  O3  GNX d 141      30.588  -8.670 -20.035  0.00  0.00    -0.247 OA
ATOM     16  O22 GNX d 141      30.935 -11.062 -19.247  0.00  0.00    -0.572 OA
ATOM     17  O3S GNX d 141      30.547  -5.064 -23.383  0.00  0.00    -0.296 OA
ATOM     18  O4  GNX d 141      28.130  -9.592 -18.808  0.00  0.00    -0.390 OA
ATOM     19  N   GNX d 141      30.076  -7.340 -22.584  0.00  0.00    -0.210 NA
ATOM     20  H   GNX d 141      27.927  -5.759 -22.224  0.00  0.00     0.131 H 
ATOM     21  H   GNX d 141      24.671  -6.289 -18.125  0.00  0.00     0.209 HD
ATOM     22  H   GNX d 141      32.395  -7.706 -23.794  0.00  0.00     0.231 HD
ATOM     23  H   GNX d 141      25.307  -8.431 -18.684  0.00  0.00     0.078 H 
ATOM     24  H   GNX d 141      26.545  -7.584 -17.789  0.00  0.00     0.078 H 
ATOM     25  H   GNX d 141      26.541  -8.505 -20.552  0.00  0.00     0.090 H 
ATOM     26  H   GNX d 141      28.994  -9.230 -21.181  0.00  0.00     0.092 H 
ATOM     27  H   GNX d 141      32.483  -6.943 -21.570  0.00  0.00     0.231 HD
ATOM     28  H   GNX d 141      28.699  -7.638 -18.668  0.00  0.00     0.091 H 
ATOM     29  H   GNX d 141      29.771  -6.372 -20.785  0.00  0.00     0.076 H 
ATOM     30  H   GNX d 141      30.067  -4.699 -22.623  0.00  0.00     0.231 HD
ATOM     31  H   GNX d 141      27.774 -10.205 -19.469  0.00  0.00     0.210 HD
ATOM     32  H   GNX d 141      30.524  -8.253 -22.503  0.00  0.00     0.140 HD
ATOM     33  C2  IDY d 142      27.948  -8.210 -25.629  0.00  0.00     0.134 C 
ATOM     34  C5  IDY d 142      25.400  -7.920 -24.051  0.00  0.00     0.152 C 
ATOM     35  C1  IDY d 142      26.676  -9.042 -25.807  0.00  0.00     0.160 C 
ATOM     36  O5  IDY d 142      25.818  -9.137 -24.667  0.00  0.00    -0.340 OA
ATOM     37  O61 IDY d 142      23.726  -7.775 -22.297  0.00  0.00    -0.646 OA
ATOM     38  OS3 IDY d 142      29.104 -10.842 -26.679  0.00  0.00    -0.572 OA
ATOM     39  OS1 IDY d 142      30.576 -10.849 -24.757  0.00  0.00    -0.572 OA
ATOM     40  C6  IDY d 142      24.817  -8.347 -22.730  0.00  0.00     0.206 C 
ATOM     41  C4  IDY d 142      26.580  -6.972 -23.803  0.00  0.00     0.103 C 
ATOM     42  O2  IDY d 142      29.024  -8.938 -24.993  0.00  0.00    -0.244 OA
ATOM     43  O4  IDY d 142      27.285  -7.664 -22.539  0.00  0.00    -0.348 OA
ATOM     44  O62 IDY d 142      25.360  -9.283 -22.076  0.00  0.00    -0.646 OA
ATOM     45  O1  IDY d 142      26.236  -9.421 -27.288  0.00  0.00    -0.363 OA
ATOM     46  OS2 IDY d 142      30.986  -9.301 -26.516  0.00  0.00    -0.572 OA
ATOM     47  C3  IDY d 142      27.612  -6.881 -24.939  0.00  0.00     0.094 C 
ATOM     48  S   IDY d 142      29.914  -9.974 -25.748  0.00  0.00     0.252 S 
ATOM     49  C7  IDY d 142      25.552  -9.354 -27.981  0.00  0.00     0.007 C 
ATOM     50  O3  IDY d 142      27.137  -5.966 -25.948  0.00  0.00    -0.390 OA
ATOM     51  H   IDY d 142      28.334  -7.982 -26.600  0.00  0.00     0.097 H 
ATOM     52  H   IDY d 142      24.710  -7.389 -24.672  0.00  0.00     0.104 H 
ATOM     53  H   IDY d 142      26.877 -10.091 -25.733  0.00  0.00     0.133 H 
ATOM     54  H   IDY d 142      26.234  -5.966 -23.688  0.00  0.00     0.092 H 
ATOM     55  H   IDY d 142      28.511  -6.546 -24.468  0.00  0.00     0.091 H 
ATOM     56  H   IDY d 142      25.879  -9.877 -28.856  0.00  0.00     0.066 H 
ATOM     57  H   IDY d 142      25.386  -8.325 -28.222  0.00  0.00     0.066 H 
ATOM     58  H   IDY d 142      24.641  -9.789 -27.626  0.00  0.00     0.066 H 
ATOM     59  H   IDY d 142      26.323  -6.315 -26.343  0.00  0.00     0.210 HD
ENDROOT
TORSDOF 18
ENDMDL
MODEL 17
REMARK VINA RESULT:      -5.9      3.412      6.032
REMARK  0 active torsions:
REMARK  status: ('A' for Active; 'I' for Inactive)
REMARK       I    between atoms: S1_1  and  N_36 
REMARK       I    between atoms: S1_1  and  O1S_20 
REMARK       I    between atoms: S1_1  and  O2S_7 
REMARK       I    between atoms: S1_1  and  O3S_31 
REMARK       I    between atoms: C1_2  and  O4_21 
REMARK       I    between atoms: O6_4  and  C6_9 
REMARK       I    between atoms: C2_5  and  O2_18 
REMARK       I    between atoms: C5_6  and  C6_15 
REMARK       I    between atoms: C1_8  and  O1_27 
REMARK       I    between atoms: C6_9  and  C5_16 
REMARK       I    between atoms: S12_12  and  O3_28 
REMARK       I    between atoms: C4_17  and  O4_21 
REMARK       I    between atoms: O2_18  and  S_33 
REMARK       I    between atoms: C3_19  and  O3_28 
REMARK       I    between atoms: C4_23  and  O4_34 
REMARK       I    between atoms: C2_26  and  N_36 
REMARK       I    between atoms: O1_27  and  C7_35 
REMARK       I    between atoms: C3_32  and  O3_37 
ROOT
ATOM      1  S1  GNX d 141      31.708  -9.371 -22.552  0.00  0.00     0.156 S 
ATOM      2  C1  GNX d 141      28.169  -9.036 -23.025  0.00  0.00     0.150 C 
ATOM      3  O32 GNX d 141      31.630  -5.262 -23.238  0.00  0.00    -0.572 OA
ATOM      4  O6  GNX d 141      25.049  -8.830 -25.305  0.00  0.00    -0.398 OA
ATOM      5  O2S GNX d 141      32.625  -9.028 -21.469  0.00  0.00    -0.296 OA
ATOM      6  C6  GNX d 141      25.632  -7.549 -25.220  0.00  0.00     0.043 C 
ATOM      7  S12 GNX d 141      30.980  -5.137 -24.546  0.00  0.00     0.252 S 
ATOM      8  C5  GNX d 141      26.806  -7.589 -24.249  0.00  0.00     0.089 C 
ATOM      9  C3  GNX d 141      29.186  -6.894 -23.851  0.00  0.00     0.107 C 
ATOM     10  O1S GNX d 141      32.285  -9.118 -23.869  0.00  0.00    -0.296 OA
ATOM     11  C4  GNX d 141      27.985  -6.787 -24.784  0.00  0.00     0.090 C 
ATOM     12  O5  GNX d 141      27.200  -8.927 -24.043  0.00  0.00    -0.349 OA
ATOM     13  O12 GNX d 141      32.055  -5.141 -25.595  0.00  0.00    -0.572 OA
ATOM     14  C2  GNX d 141      29.453  -8.345 -23.468  0.00  0.00     0.083 C 
ATOM     15  O3  GNX d 141      30.325  -6.358 -24.488  0.00  0.00    -0.247 OA
ATOM     16  O22 GNX d 141      30.349  -3.817 -24.569  0.00  0.00    -0.572 OA
ATOM     17  O3S GNX d 141      31.211 -10.739 -22.430  0.00  0.00    -0.296 OA
ATOM     18  O4  GNX d 141      27.612  -5.433 -24.916  0.00  0.00    -0.390 OA
ATOM     19  N   GNX d 141      30.441  -8.405 -22.409  0.00  0.00    -0.210 NA
ATOM     20  H   GNX d 141      28.368 -10.070 -22.833  0.00  0.00     0.131 H 
ATOM     21  H   GNX d 141      24.302  -8.805 -25.924  0.00  0.00     0.209 HD
ATOM     22  H   GNX d 141      32.933  -8.115 -21.584  0.00  0.00     0.231 HD
ATOM     23  H   GNX d 141      24.904  -6.848 -24.871  0.00  0.00     0.078 H 
ATOM     24  H   GNX d 141      25.980  -7.250 -26.188  0.00  0.00     0.078 H 
ATOM     25  H   GNX d 141      26.494  -7.154 -23.323  0.00  0.00     0.090 H 
ATOM     26  H   GNX d 141      28.973  -6.342 -22.958  0.00  0.00     0.092 H 
ATOM     27  H   GNX d 141      32.603  -8.203 -23.912  0.00  0.00     0.231 HD
ATOM     28  H   GNX d 141      28.261  -7.184 -25.738  0.00  0.00     0.091 H 
ATOM     29  H   GNX d 141      29.829  -8.856 -24.330  0.00  0.00     0.076 H 
ATOM     30  H   GNX d 141      30.607 -10.930 -23.165  0.00  0.00     0.231 HD
ATOM     31  H   GNX d 141      27.364  -5.080 -24.048  0.00  0.00     0.210 HD
ATOM     32  H   GNX d 141      30.804  -7.459 -22.291  0.00  0.00     0.140 HD
ATOM     33  C2  IDY d 142      28.944  -8.696 -18.911  0.00  0.00     0.134 C 
ATOM     34  C5  IDY d 142      26.147  -8.837 -20.017  0.00  0.00     0.152 C 
ATOM     35  C1  IDY d 142      27.688  -8.109 -18.264  0.00  0.00     0.160 C 
ATOM     36  O5  IDY d 142      26.606  -7.802 -19.149  0.00  0.00    -0.340 OA
ATOM     37  O61 IDY d 142      24.157  -8.684 -21.400  0.00  0.00    -0.646 OA
ATOM     38  OS3 IDY d 142      30.125  -6.347 -17.345  0.00  0.00    -0.572 OA
ATOM     39  OS1 IDY d 142      31.160  -5.619 -19.408  0.00  0.00    -0.572 OA
ATOM     40  C6  IDY d 142      25.275  -8.129 -21.019  0.00  0.00     0.206 C 
ATOM     41  C4  IDY d 142      27.307  -9.525 -20.747  0.00  0.00     0.103 C 
ATOM     42  O2  IDY d 142      29.816  -7.692 -19.482  0.00  0.00    -0.244 OA
ATOM     43  O4  IDY d 142      27.687  -8.425 -21.850  0.00  0.00    -0.348 OA
ATOM     44  O62 IDY d 142      25.610  -6.987 -21.448  0.00  0.00    -0.646 OA
ATOM     45  O1  IDY d 142      27.542  -8.221 -16.684  0.00  0.00    -0.363 OA
ATOM     46  OS2 IDY d 142      32.026  -7.538 -18.301  0.00  0.00    -0.572 OA
ATOM     47  C3  IDY d 142      28.556  -9.807 -19.896  0.00  0.00     0.094 C 
ATOM     48  S   IDY d 142      30.776  -6.812 -18.624  0.00  0.00     0.252 S 
ATOM     49  C7  IDY d 142      27.024  -8.563 -15.931  0.00  0.00     0.007 C 
ATOM     50  O3  IDY d 142      28.360 -11.020 -19.141  0.00  0.00    -0.390 OA
ATOM     51  H   IDY d 142      29.538  -9.140 -18.140  0.00  0.00     0.097 H 
ATOM     52  H   IDY d 142      25.636  -9.602 -19.469  0.00  0.00     0.104 H 
ATOM     53  H   IDY d 142      27.802  -7.066 -18.054  0.00  0.00     0.133 H 
ATOM     54  H   IDY d 142      27.009 -10.492 -21.094  0.00  0.00     0.092 H 
ATOM     55  H   IDY d 142      29.357  -9.883 -20.601  0.00  0.00     0.091 H 
ATOM     56  H   IDY d 142      27.492  -8.273 -15.014  0.00  0.00     0.066 H 
ATOM     57  H   IDY d 142      26.977  -9.631 -15.986  0.00  0.00     0.066 H 
ATOM     58  H   IDY d 142      26.033  -8.161 -15.969  0.00  0.00     0.066 H 
ATOM     59  H   IDY d 142      27.626 -10.899 -18.519  0.00  0.00     0.210 HD
ENDROOT
TORSDOF 18
ENDMDL
MODEL 18
REMARK VINA RESULT:      -5.9      2.733      4.635
REMARK  0 active torsions:
REMARK  status: ('A' for Active; 'I' for Inactive)
REMARK       I    between atoms: S1_1  and  N_36 
REMARK       I    between atoms: S1_1  and  O1S_20 
REMARK       I    between atoms: S1_1  and  O2S_7 
REMARK       I    between atoms: S1_1  and  O3S_31 
REMARK       I    between atoms: C1_2  and  O4_21 
REMARK       I    between atoms: O6_4  and  C6_9 
REMARK       I    between atoms: C2_5  and  O2_18 
REMARK       I    between atoms: C5_6  and  C6_15 
REMARK       I    between atoms: C1_8  and  O1_27 
REMARK       I    between atoms: C6_9  and  C5_16 
REMARK       I    between atoms: S12_12  and  O3_28 
REMARK       I    between atoms: C4_17  and  O4_21 
REMARK       I    between atoms: O2_18  and  S_33 
REMARK       I    between atoms: C3_19  and  O3_28 
REMARK       I    between atoms: C4_23  and  O4_34 
REMARK       I    between atoms: C2_26  and  N_36 
REMARK       I    between atoms: O1_27  and  C7_35 
REMARK       I    between atoms: C3_32  and  O3_37 
ROOT
ATOM      1  S1  GNX d 141      26.023  -8.860 -26.022  0.00  0.00     0.156 S 
ATOM      2  C1  GNX d 141      27.840  -5.791 -25.641  0.00  0.00     0.150 C 
ATOM      3  O32 GNX d 141      29.289 -10.407 -23.947  0.00  0.00    -0.572 OA
ATOM      4  O6  GNX d 141      30.562  -3.289 -26.783  0.00  0.00    -0.398 OA
ATOM      5  O2S GNX d 141      25.236  -9.693 -25.117  0.00  0.00    -0.296 OA
ATOM      6  C6  GNX d 141      31.170  -4.292 -25.999  0.00  0.00     0.043 C 
ATOM      7  S12 GNX d 141      30.440 -10.021 -24.769  0.00  0.00     0.252 S 
ATOM      8  C5  GNX d 141      30.099  -5.233 -25.459  0.00  0.00     0.089 C 
ATOM      9  C3  GNX d 141      29.454  -7.630 -25.075  0.00  0.00     0.107 C 
ATOM     10  O1S GNX d 141      26.821  -9.652 -26.953  0.00  0.00    -0.296 OA
ATOM     11  C4  GNX d 141      30.556  -6.684 -25.539  0.00  0.00     0.090 C 
ATOM     12  O5  GNX d 141      28.913  -5.071 -26.204  0.00  0.00    -0.349 OA
ATOM     13  O12 GNX d 141      30.712 -11.141 -25.732  0.00  0.00    -0.572 OA
ATOM     14  C2  GNX d 141      28.125  -7.285 -25.737  0.00  0.00     0.083 C 
ATOM     15  O3  GNX d 141      29.809  -8.957 -25.394  0.00  0.00    -0.247 OA
ATOM     16  O22 GNX d 141      31.585  -9.936 -23.861  0.00  0.00    -0.572 OA
ATOM     17  O3S GNX d 141      25.193  -7.877 -26.715  0.00  0.00    -0.296 OA
ATOM     18  O4  GNX d 141      31.699  -6.862 -24.732  0.00  0.00    -0.390 OA
ATOM     19  N   GNX d 141      27.052  -8.037 -25.115  0.00  0.00    -0.210 NA
ATOM     20  H   GNX d 141      26.940  -5.565 -26.175  0.00  0.00     0.131 H 
ATOM     21  H   GNX d 141      31.243  -2.691 -27.127  0.00  0.00     0.209 HD
ATOM     22  H   GNX d 141      25.819 -10.331 -24.677  0.00  0.00     0.231 HD
ATOM     23  H   GNX d 141      31.692  -3.840 -25.182  0.00  0.00     0.078 H 
ATOM     24  H   GNX d 141      31.861  -4.846 -26.601  0.00  0.00     0.078 H 
ATOM     25  H   GNX d 141      29.922  -4.991 -24.432  0.00  0.00     0.090 H 
ATOM     26  H   GNX d 141      29.342  -7.526 -24.016  0.00  0.00     0.092 H 
ATOM     27  H   GNX d 141      27.356 -10.291 -26.458  0.00  0.00     0.231 HD
ATOM     28  H   GNX d 141      30.790  -6.911 -26.558  0.00  0.00     0.091 H 
ATOM     29  H   GNX d 141      28.186  -7.550 -26.772  0.00  0.00     0.076 H 
ATOM     30  H   GNX d 141      25.749  -7.344 -27.305  0.00  0.00     0.231 HD
ATOM     31  H   GNX d 141      31.480  -6.655 -23.811  0.00  0.00     0.210 HD
ATOM     32  H   GNX d 141      27.490  -8.708 -24.483  0.00  0.00     0.140 HD
ATOM     33  C2  IDY d 142      25.180  -6.109 -22.406  0.00  0.00     0.134 C 
ATOM     34  C5  IDY d 142      26.803  -3.625 -22.919  0.00  0.00     0.152 C 
ATOM     35  C1  IDY d 142      25.627  -5.090 -21.355  0.00  0.00     0.160 C 
ATOM     36  O5  IDY d 142      26.791  -4.323 -21.674  0.00  0.00    -0.340 OA
ATOM     37  O61 IDY d 142      28.509  -2.028 -23.579  0.00  0.00    -0.646 OA
ATOM     38  OS3 IDY d 142      25.359  -7.870 -19.911  0.00  0.00    -0.572 OA
ATOM     39  OS1 IDY d 142      26.787  -9.356 -21.180  0.00  0.00    -0.572 OA
ATOM     40  C6  IDY d 142      28.240  -3.214 -23.107  0.00  0.00     0.206 C 
ATOM     41  C4  IDY d 142      26.375  -4.527 -24.082  0.00  0.00     0.103 C 
ATOM     42  O2  IDY d 142      25.909  -7.356 -22.340  0.00  0.00    -0.244 OA
ATOM     43  O4  IDY d 142      27.687  -5.428 -24.288  0.00  0.00    -0.348 OA
ATOM     44  O62 IDY d 142      29.168  -4.002 -22.766  0.00  0.00    -0.646 OA
ATOM     45  O1  IDY d 142      24.601  -4.715 -20.199  0.00  0.00    -0.363 OA
ATOM     46  OS2 IDY d 142      24.461  -9.295 -21.674  0.00  0.00    -0.572 OA
ATOM     47  C3  IDY d 142      25.189  -5.463 -23.798  0.00  0.00     0.094 C 
ATOM     48  S   IDY d 142      25.616  -8.459 -21.276  0.00  0.00     0.252 S 
ATOM     49  C7  IDY d 142      24.080  -4.015 -19.762  0.00  0.00     0.007 C 
ATOM     50  O3  IDY d 142      23.953  -4.735 -23.957  0.00  0.00    -0.390 OA
ATOM     51  H   IDY d 142      24.172  -6.391 -22.187  0.00  0.00     0.097 H 
ATOM     52  H   IDY d 142      26.121  -2.801 -22.906  0.00  0.00     0.104 H 
ATOM     53  H   IDY d 142      26.164  -5.557 -20.556  0.00  0.00     0.133 H 
ATOM     54  H   IDY d 142      26.044  -3.937 -24.911  0.00  0.00     0.092 H 
ATOM     55  H   IDY d 142      25.292  -6.260 -24.503  0.00  0.00     0.091 H 
ATOM     56  H   IDY d 142      23.526  -4.437 -18.950  0.00  0.00     0.066 H 
ATOM     57  H   IDY d 142      23.403  -3.580 -20.469  0.00  0.00     0.066 H 
ATOM     58  H   IDY d 142      24.738  -3.259 -19.389  0.00  0.00     0.066 H 
ATOM     59  H   IDY d 142      23.909  -4.026 -23.296  0.00  0.00     0.210 HD
ENDROOT
TORSDOF 18
ENDMDL
MODEL 19
REMARK VINA RESULT:      -5.9      2.797      4.437
REMARK  0 active torsions:
REMARK  status: ('A' for Active; 'I' for Inactive)
REMARK       I    between atoms: S1_1  and  N_36 
REMARK       I    between atoms: S1_1  and  O1S_20 
REMARK       I    between atoms: S1_1  and  O2S_7 
REMARK       I    between atoms: S1_1  and  O3S_31 
REMARK       I    between atoms: C1_2  and  O4_21 
REMARK       I    between atoms: O6_4  and  C6_9 
REMARK       I    between atoms: C2_5  and  O2_18 
REMARK       I    between atoms: C5_6  and  C6_15 
REMARK       I    between atoms: C1_8  and  O1_27 
REMARK       I    between atoms: C6_9  and  C5_16 
REMARK       I    between atoms: S12_12  and  O3_28 
REMARK       I    between atoms: C4_17  and  O4_21 
REMARK       I    between atoms: O2_18  and  S_33 
REMARK       I    between atoms: C3_19  and  O3_28 
REMARK       I    between atoms: C4_23  and  O4_34 
REMARK       I    between atoms: C2_26  and  N_36 
REMARK       I    between atoms: O1_27  and  C7_35 
REMARK       I    between atoms: C3_32  and  O3_37 
ROOT
ATOM      1  S1  GNX d 141      24.919  -8.447 -22.357  0.00  0.00     0.156 S 
ATOM      2  C1  GNX d 141      28.186  -7.949 -23.751  0.00  0.00     0.150 C 
ATOM      3  O32 GNX d 141      27.124  -9.429 -18.960  0.00  0.00    -0.572 OA
ATOM      4  O6  GNX d 141      31.399  -9.287 -25.442  0.00  0.00    -0.398 OA
ATOM      5  O2S GNX d 141      24.088  -7.693 -21.423  0.00  0.00    -0.296 OA
ATOM      6  C6  GNX d 141      31.510  -9.475 -24.049  0.00  0.00     0.043 C 
ATOM      7  S12 GNX d 141      28.002 -10.512 -19.413  0.00  0.00     0.252 S 
ATOM      8  C5  GNX d 141      30.296  -8.866 -23.356  0.00  0.00     0.089 C 
ATOM      9  C3  GNX d 141      28.531  -9.202 -21.602  0.00  0.00     0.107 C 
ATOM     10  O1S GNX d 141      24.819  -9.889 -22.150  0.00  0.00    -0.296 OA
ATOM     11  C4  GNX d 141      29.793  -9.772 -22.240  0.00  0.00     0.090 C 
ATOM     12  O5  GNX d 141      29.268  -8.665 -24.301  0.00  0.00    -0.349 OA
ATOM     13  O12 GNX d 141      27.299 -11.813 -19.150  0.00  0.00    -0.572 OA
ATOM     14  C2  GNX d 141      27.521  -8.787 -22.665  0.00  0.00     0.083 C 
ATOM     15  O3  GNX d 141      27.953 -10.172 -20.757  0.00  0.00    -0.247 OA
ATOM     16  O22 GNX d 141      29.186 -10.470 -18.553  0.00  0.00    -0.572 OA
ATOM     17  O3S GNX d 141      24.651  -8.078 -23.744  0.00  0.00    -0.296 OA
ATOM     18  O4  GNX d 141      30.795  -9.909 -21.258  0.00  0.00    -0.390 OA
ATOM     19  N   GNX d 141      26.437  -8.041 -22.056  0.00  0.00    -0.210 NA
ATOM     20  H   GNX d 141      27.474  -7.733 -24.521  0.00  0.00     0.131 H 
ATOM     21  H   GNX d 141      32.172  -9.674 -25.883  0.00  0.00     0.209 HD
ATOM     22  H   GNX d 141      24.293  -7.966 -20.516  0.00  0.00     0.231 HD
ATOM     23  H   GNX d 141      32.399  -8.998 -23.693  0.00  0.00     0.078 H 
ATOM     24  H   GNX d 141      31.556 -10.522 -23.833  0.00  0.00     0.078 H 
ATOM     25  H   GNX d 141      30.585  -7.930 -22.927  0.00  0.00     0.090 H 
ATOM     26  H   GNX d 141      28.799  -8.335 -21.034  0.00  0.00     0.092 H 
ATOM     27  H   GNX d 141      25.002 -10.096 -21.220  0.00  0.00     0.231 HD
ATOM     28  H   GNX d 141      29.558 -10.728 -22.659  0.00  0.00     0.091 H 
ATOM     29  H   GNX d 141      27.127  -9.673 -23.119  0.00  0.00     0.076 H 
ATOM     30  H   GNX d 141      25.221  -8.597 -24.333  0.00  0.00     0.231 HD
ATOM     31  H   GNX d 141      31.002  -9.039 -20.883  0.00  0.00     0.210 HD
ATOM     32  H   GNX d 141      26.565  -8.108 -21.045  0.00  0.00     0.140 HD
ATOM     33  C2  IDY d 142      26.859  -4.255 -22.258  0.00  0.00     0.134 C 
ATOM     34  C5  IDY d 142      29.391  -4.527 -23.864  0.00  0.00     0.152 C 
ATOM     35  C1  IDY d 142      28.081  -3.337 -22.179  0.00  0.00     0.160 C 
ATOM     36  O5  IDY d 142      29.328  -3.910 -22.579  0.00  0.00    -0.340 OA
ATOM     37  O61 IDY d 142      31.437  -5.313 -24.910  0.00  0.00    -0.646 OA
ATOM     38  OS3 IDY d 142      26.681  -3.280 -19.364  0.00  0.00    -0.572 OA
ATOM     39  OS1 IDY d 142      26.573  -5.602 -18.691  0.00  0.00    -0.572 OA
ATOM     40  C6  IDY d 142      30.680  -5.305 -23.847  0.00  0.00     0.206 C 
ATOM     41  C4  IDY d 142      28.219  -5.488 -24.093  0.00  0.00     0.103 C 
ATOM     42  O2  IDY d 142      26.722  -5.127 -21.112  0.00  0.00    -0.244 OA
ATOM     43  O4  IDY d 142      28.654  -6.743 -23.193  0.00  0.00    -0.348 OA
ATOM     44  O62 IDY d 142      31.038  -5.905 -22.792  0.00  0.00    -0.646 OA
ATOM     45  O1  IDY d 142      27.829  -1.775 -22.015  0.00  0.00    -0.363 OA
ATOM     46  OS2 IDY d 142      24.679  -4.620 -19.744  0.00  0.00    -0.572 OA
ATOM     47  C3  IDY d 142      26.848  -4.996 -23.602  0.00  0.00     0.094 C 
ATOM     48  S   IDY d 142      26.160  -4.645 -19.739  0.00  0.00     0.252 S 
ATOM     49  C7  IDY d 142      27.951  -0.882 -22.390  0.00  0.00     0.007 C 
ATOM     50  O3  IDY d 142      26.270  -4.117 -24.589  0.00  0.00    -0.390 OA
ATOM     51  H   IDY d 142      25.982  -3.643 -22.219  0.00  0.00     0.097 H 
ATOM     52  H   IDY d 142      29.343  -3.797 -24.646  0.00  0.00     0.104 H 
ATOM     53  H   IDY d 142      28.449  -3.256 -21.177  0.00  0.00     0.133 H 
ATOM     54  H   IDY d 142      28.072  -5.657 -25.139  0.00  0.00     0.092 H 
ATOM     55  H   IDY d 142      26.273  -5.886 -23.454  0.00  0.00     0.091 H 
ATOM     56  H   IDY d 142      27.509  -0.158 -21.738  0.00  0.00     0.066 H 
ATOM     57  H   IDY d 142      27.483  -0.831 -23.351  0.00  0.00     0.066 H 
ATOM     58  H   IDY d 142      28.997  -0.677 -22.492  0.00  0.00     0.066 H 
ATOM     59  H   IDY d 142      26.827  -3.328 -24.685  0.00  0.00     0.210 HD
ENDROOT
TORSDOF 18
ENDMDL
MODEL 20
REMARK VINA RESULT:      -5.9      3.673      7.311
REMARK  0 active torsions:
REMARK  status: ('A' for Active; 'I' for Inactive)
REMARK       I    between atoms: S1_1  and  N_36 
REMARK       I    between atoms: S1_1  and  O1S_20 
REMARK       I    between atoms: S1_1  and  O2S_7 
REMARK       I    between atoms: S1_1  and  O3S_31 
REMARK       I    between atoms: C1_2  and  O4_21 
REMARK       I    between atoms: O6_4  and  C6_9 
REMARK       I    between atoms: C2_5  and  O2_18 
REMARK       I    between atoms: C5_6  and  C6_15 
REMARK       I    between atoms: C1_8  and  O1_27 
REMARK       I    between atoms: C6_9  and  C5_16 
REMARK       I    between atoms: S12_12  and  O3_28 
REMARK       I    between atoms: C4_17  and  O4_21 
REMARK       I    between atoms: O2_18  and  S_33 
REMARK       I    between atoms: C3_19  and  O3_28 
REMARK       I    between atoms: C4_23  and  O4_34 
REMARK       I    between atoms: C2_26  and  N_36 
REMARK       I    between atoms: O1_27  and  C7_35 
REMARK       I    between atoms: C3_32  and  O3_37 
ROOT
ATOM      1  S1  GNX d 141      28.266  -4.255 -20.519  0.00  0.00     0.156 S 
ATOM      2  C1  GNX d 141      29.467  -7.070 -22.388  0.00  0.00     0.150 C 
ATOM      3  O32 GNX d 141      24.651  -6.306 -20.808  0.00  0.00    -0.572 OA
ATOM      4  O6  GNX d 141      30.055  -8.929 -25.731  0.00  0.00    -0.398 OA
ATOM      5  O2S GNX d 141      27.874  -4.052 -19.127  0.00  0.00    -0.296 OA
ATOM      6  C6  GNX d 141      28.737  -9.183 -25.298  0.00  0.00     0.043 C 
ATOM      7  S12 GNX d 141      24.461  -6.481 -22.252  0.00  0.00     0.252 S 
ATOM      8  C5  GNX d 141      28.518  -8.539 -23.934  0.00  0.00     0.089 C 
ATOM      9  C3  GNX d 141      26.960  -7.164 -22.523  0.00  0.00     0.107 C 
ATOM     10  O1S GNX d 141      27.404  -3.530 -21.449  0.00  0.00    -0.296 OA
ATOM     11  C4  GNX d 141      27.148  -7.877 -23.857  0.00  0.00     0.090 C 
ATOM     12  O5  GNX d 141      29.521  -7.576 -23.703  0.00  0.00    -0.349 OA
ATOM     13  O12 GNX d 141      23.666  -5.310 -22.754  0.00  0.00    -0.572 OA
ATOM     14  C2  GNX d 141      28.169  -6.294 -22.194  0.00  0.00     0.083 C 
ATOM     15  O3  GNX d 141      25.803  -6.359 -22.579  0.00  0.00    -0.247 OA
ATOM     16  O22 GNX d 141      23.635  -7.677 -22.418  0.00  0.00    -0.572 OA
ATOM     17  O3S GNX d 141      29.678  -3.950 -20.736  0.00  0.00    -0.296 OA
ATOM     18  O4  GNX d 141      26.144  -8.855 -24.012  0.00  0.00    -0.390 OA
ATOM     19  N   GNX d 141      28.077  -5.812 -20.830  0.00  0.00    -0.210 NA
ATOM     20  H   GNX d 141      30.299  -6.418 -22.223  0.00  0.00     0.131 H 
ATOM     21  H   GNX d 141      30.196  -9.339 -26.598  0.00  0.00     0.209 HD
ATOM     22  H   GNX d 141      26.933  -4.263 -19.023  0.00  0.00     0.231 HD
ATOM     23  H   GNX d 141      28.584 -10.239 -25.222  0.00  0.00     0.078 H 
ATOM     24  H   GNX d 141      28.045  -8.772 -26.003  0.00  0.00     0.078 H 
ATOM     25  H   GNX d 141      28.565  -9.303 -23.187  0.00  0.00     0.090 H 
ATOM     26  H   GNX d 141      26.856  -7.902 -21.755  0.00  0.00     0.092 H 
ATOM     27  H   GNX d 141      26.478  -3.757 -21.275  0.00  0.00     0.231 HD
ATOM     28  H   GNX d 141      27.077  -7.153 -24.641  0.00  0.00     0.091 H 
ATOM     29  H   GNX d 141      28.174  -5.459 -22.863  0.00  0.00     0.076 H 
ATOM     30  H   GNX d 141      29.900  -4.096 -21.669  0.00  0.00     0.231 HD
ATOM     31  H   GNX d 141      26.214  -9.507 -23.298  0.00  0.00     0.210 HD
ATOM     32  H   GNX d 141      27.150  -6.071 -20.488  0.00  0.00     0.140 HD
ATOM     33  C2  IDY d 142      30.028  -7.912 -18.312  0.00  0.00     0.134 C 
ATOM     34  C5  IDY d 142      31.104  -9.694 -20.487  0.00  0.00     0.152 C 
ATOM     35  C1  IDY d 142      30.300  -9.413 -18.196  0.00  0.00     0.160 C 
ATOM     36  O5  IDY d 142      30.278 -10.155 -19.419  0.00  0.00    -0.340 OA
ATOM     37  O61 IDY d 142      31.483 -10.913 -22.553  0.00  0.00    -0.646 OA
ATOM     38  OS3 IDY d 142      27.973  -8.726 -16.196  0.00  0.00    -0.572 OA
ATOM     39  OS1 IDY d 142      26.285  -7.666 -17.568  0.00  0.00    -0.572 OA
ATOM     40  C6  IDY d 142      30.616 -10.449 -21.695  0.00  0.00     0.206 C 
ATOM     41  C4  IDY d 142      30.938  -8.188 -20.727  0.00  0.00     0.103 C 
ATOM     42  O2  IDY d 142      28.619  -7.588 -18.377  0.00  0.00    -0.244 OA
ATOM     43  O4  IDY d 142      29.517  -8.139 -21.470  0.00  0.00    -0.348 OA
ATOM     44  O62 IDY d 142      29.378 -10.666 -21.843  0.00  0.00    -0.646 OA
ATOM     45  O1  IDY d 142      30.922  -9.955 -16.836  0.00  0.00    -0.363 OA
ATOM     46  OS2 IDY d 142      27.824  -6.298 -16.376  0.00  0.00    -0.572 OA
ATOM     47  C3  IDY d 142      30.851  -7.318 -19.463  0.00  0.00     0.094 C 
ATOM     48  S   IDY d 142      27.691  -7.570 -17.124  0.00  0.00     0.252 S 
ATOM     49  C7  IDY d 142      31.666 -10.412 -16.400  0.00  0.00     0.007 C 
ATOM     50  O3  IDY d 142      32.180  -7.054 -18.968  0.00  0.00    -0.390 OA
ATOM     51  H   IDY d 142      30.354  -7.445 -17.406  0.00  0.00     0.097 H 
ATOM     52  H   IDY d 142      32.140  -9.855 -20.272  0.00  0.00     0.104 H 
ATOM     53  H   IDY d 142      29.433  -9.948 -17.867  0.00  0.00     0.133 H 
ATOM     54  H   IDY d 142      31.784  -7.797 -21.251  0.00  0.00     0.092 H 
ATOM     55  H   IDY d 142      30.342  -6.431 -19.775  0.00  0.00     0.091 H 
ATOM     56  H   IDY d 142      31.476 -10.482 -15.350  0.00  0.00     0.066 H 
ATOM     57  H   IDY d 142      32.568  -9.859 -16.564  0.00  0.00     0.066 H 
ATOM     58  H   IDY d 142      31.771 -11.394 -16.810  0.00  0.00     0.066 H 
ATOM     59  H   IDY d 142      32.596  -7.888 -18.699  0.00  0.00     0.210 HD
ENDROOT
TORSDOF 18
ENDMDL
MODEL 21
REMARK VINA RESULT:      -5.9      3.943      6.977
REMARK  0 active torsions:
REMARK  status: ('A' for Active; 'I' for Inactive)
REMARK       I    between atoms: S1_1  and  N_36 
REMARK       I    between atoms: S1_1  and  O1S_20 
REMARK       I    between atoms: S1_1  and  O2S_7 
REMARK       I    between atoms: S1_1  and  O3S_31 
REMARK       I    between atoms: C1_2  and  O4_21 
REMARK       I    between atoms: O6_4  and  C6_9 
REMARK       I    between atoms: C2_5  and  O2_18 
REMARK       I    between atoms: C5_6  and  C6_15 
REMARK       I    between atoms: C1_8  and  O1_27 
REMARK       I    between atoms: C6_9  and  C5_16 
REMARK       I    between atoms: S12_12  and  O3_28 
REMARK       I    between atoms: C4_17  and  O4_21 
REMARK       I    between atoms: O2_18  and  S_33 
REMARK       I    between atoms: C3_19  and  O3_28 
REMARK       I    between atoms: C4_23  and  O4_34 
REMARK       I    between atoms: C2_26  and  N_36 
REMARK       I    between atoms: O1_27  and  C7_35 
REMARK       I    between atoms: C3_32  and  O3_37 
ROOT
ATOM      1  S1  GNX d 141      30.085  -7.916 -22.406  0.00  0.00     0.156 S 
ATOM      2  C1  GNX d 141      29.436  -5.643 -19.709  0.00  0.00     0.150 C 
ATOM      3  O32 GNX d 141      29.037 -10.750 -19.536  0.00  0.00    -0.572 OA
ATOM      4  O6  GNX d 141      30.538  -3.753 -16.517  0.00  0.00    -0.398 OA
ATOM      5  O2S GNX d 141      29.238  -8.710 -23.291  0.00  0.00    -0.296 OA
ATOM      6  C6  GNX d 141      30.109  -5.046 -16.151  0.00  0.00     0.043 C 
ATOM      7  S12 GNX d 141      29.966 -10.491 -18.432  0.00  0.00     0.252 S 
ATOM      8  C5  GNX d 141      29.579  -5.772 -17.382  0.00  0.00     0.089 C 
ATOM      9  C3  GNX d 141      29.580  -7.926 -18.674  0.00  0.00     0.107 C 
ATOM     10  O1S GNX d 141      31.294  -8.630 -22.008  0.00  0.00    -0.296 OA
ATOM     11  C4  GNX d 141      30.042  -7.223 -17.402  0.00  0.00     0.090 C 
ATOM     12  O5  GNX d 141      30.033  -5.117 -18.546  0.00  0.00    -0.349 OA
ATOM     13  O12 GNX d 141      31.173 -11.362 -18.635  0.00  0.00    -0.572 OA
ATOM     14  C2  GNX d 141      29.889  -7.084 -19.906  0.00  0.00     0.083 C 
ATOM     15  O3  GNX d 141      30.227  -9.174 -18.781  0.00  0.00    -0.247 OA
ATOM     16  O22 GNX d 141      29.296 -10.946 -17.213  0.00  0.00    -0.572 OA
ATOM     17  O3S GNX d 141      30.389  -6.606 -22.976  0.00  0.00    -0.296 OA
ATOM     18  O4  GNX d 141      29.522  -7.897 -16.277  0.00  0.00    -0.390 OA
ATOM     19  N   GNX d 141      29.242  -7.654 -21.071  0.00  0.00    -0.210 NA
ATOM     20  H   GNX d 141      29.730  -5.058 -20.556  0.00  0.00     0.131 H 
ATOM     21  H   GNX d 141      30.876  -3.291 -15.733  0.00  0.00     0.209 HD
ATOM     22  H   GNX d 141      29.058  -9.570 -22.880  0.00  0.00     0.231 HD
ATOM     23  H   GNX d 141      29.332  -4.971 -15.420  0.00  0.00     0.078 H 
ATOM     24  H   GNX d 141      30.932  -5.593 -15.741  0.00  0.00     0.078 H 
ATOM     25  H   GNX d 141      28.510  -5.759 -17.350  0.00  0.00     0.090 H 
ATOM     26  H   GNX d 141      28.520  -8.067 -18.618  0.00  0.00     0.092 H 
ATOM     27  H   GNX d 141      31.053  -9.493 -21.635  0.00  0.00     0.231 HD
ATOM     28  H   GNX d 141      31.111  -7.239 -17.376  0.00  0.00     0.091 H 
ATOM     29  H   GNX d 141      30.949  -7.085 -20.056  0.00  0.00     0.076 H 
ATOM     30  H   GNX d 141      30.952  -6.109 -22.361  0.00  0.00     0.231 HD
ATOM     31  H   GNX d 141      28.553  -7.879 -16.308  0.00  0.00     0.210 HD
ATOM     32  H   GNX d 141      28.858  -8.555 -20.784  0.00  0.00     0.140 HD
ATOM     33  C2  IDY d 142      25.888  -6.046 -21.919  0.00  0.00     0.134 C 
ATOM     34  C5  IDY d 142      26.179  -4.039 -19.694  0.00  0.00     0.152 C 
ATOM     35  C1  IDY d 142      24.755  -5.483 -21.058  0.00  0.00     0.160 C 
ATOM     36  O5  IDY d 142      25.126  -4.999 -19.764  0.00  0.00    -0.340 OA
ATOM     37  O61 IDY d 142      26.811  -2.841 -17.678  0.00  0.00    -0.646 OA
ATOM     38  OS3 IDY d 142      23.889  -8.362 -21.980  0.00  0.00    -0.572 OA
ATOM     39  OS1 IDY d 142      25.686  -9.803 -21.239  0.00  0.00    -0.572 OA
ATOM     40  C6  IDY d 142      26.551  -3.992 -18.235  0.00  0.00     0.206 C 
ATOM     41  C4  IDY d 142      27.400  -4.470 -20.516  0.00  0.00     0.103 C 
ATOM     42  O2  IDY d 142      26.221  -7.417 -21.602  0.00  0.00    -0.244 OA
ATOM     43  O4  IDY d 142      28.033  -5.605 -19.576  0.00  0.00    -0.348 OA
ATOM     44  O62 IDY d 142      26.562  -5.059 -17.555  0.00  0.00    -0.646 OA
ATOM     45  O1  IDY d 142      23.372  -5.152 -21.770  0.00  0.00    -0.363 OA
ATOM     46  OS2 IDY d 142      25.703  -9.002 -23.478  0.00  0.00    -0.572 OA
ATOM     47  C3  IDY d 142      27.092  -5.096 -21.886  0.00  0.00     0.094 C 
ATOM     48  S   IDY d 142      25.370  -8.633 -22.084  0.00  0.00     0.252 S 
ATOM     49  C7  IDY d 142      22.709  -4.472 -21.996  0.00  0.00     0.007 C 
ATOM     50  O3  IDY d 142      26.858  -4.049 -22.851  0.00  0.00    -0.390 OA
ATOM     51  H   IDY d 142      25.542  -6.095 -22.930  0.00  0.00     0.097 H 
ATOM     52  H   IDY d 142      25.867  -3.093 -20.086  0.00  0.00     0.104 H 
ATOM     53  H   IDY d 142      24.186  -6.262 -20.594  0.00  0.00     0.133 H 
ATOM     54  H   IDY d 142      28.010  -3.624 -20.751  0.00  0.00     0.092 H 
ATOM     55  H   IDY d 142      27.953  -5.687 -22.118  0.00  0.00     0.091 H 
ATOM     56  H   IDY d 142      21.911  -4.922 -22.548  0.00  0.00     0.066 H 
ATOM     57  H   IDY d 142      23.168  -3.709 -22.590  0.00  0.00     0.066 H 
ATOM     58  H   IDY d 142      22.321  -4.039 -21.098  0.00  0.00     0.066 H 
ATOM     59  H   IDY d 142      26.070  -3.545 -22.597  0.00  0.00     0.210 HD
ENDROOT
TORSDOF 18
ENDMDL
MODEL 22
REMARK VINA RESULT:      -5.9      3.194      6.468
REMARK  0 active torsions:
REMARK  status: ('A' for Active; 'I' for Inactive)
REMARK       I    between atoms: S1_1  and  N_36 
REMARK       I    between atoms: S1_1  and  O1S_20 
REMARK       I    between atoms: S1_1  and  O2S_7 
REMARK       I    between atoms: S1_1  and  O3S_31 
REMARK       I    between atoms: C1_2  and  O4_21 
REMARK       I    between atoms: O6_4  and  C6_9 
REMARK       I    between atoms: C2_5  and  O2_18 
REMARK       I    between atoms: C5_6  and  C6_15 
REMARK       I    between atoms: C1_8  and  O1_27 
REMARK       I    between atoms: C6_9  and  C5_16 
REMARK       I    between atoms: S12_12  and  O3_28 
REMARK       I    between atoms: C4_17  and  O4_21 
REMARK       I    between atoms: O2_18  and  S_33 
REMARK       I    between atoms: C3_19  and  O3_28 
REMARK       I    between atoms: C4_23  and  O4_34 
REMARK       I    between atoms: C2_26  and  N_36 
REMARK       I    between atoms: O1_27  and  C7_35 
REMARK       I    between atoms: C3_32  and  O3_37 
ROOT
ATOM      1  S1  GNX d 141      24.659  -4.746 -21.187  0.00  0.00     0.156 S 
ATOM      2  C1  GNX d 141      26.315  -7.905 -20.814  0.00  0.00     0.150 C 
ATOM      3  O32 GNX d 141      27.340  -3.615 -18.204  0.00  0.00    -0.572 OA
ATOM      4  O6  GNX d 141      26.772 -11.315 -19.042  0.00  0.00    -0.398 OA
ATOM      5  O2S GNX d 141      25.027  -3.473 -21.799  0.00  0.00    -0.296 OA
ATOM      6  C6  GNX d 141      27.474 -10.331 -18.316  0.00  0.00     0.043 C 
ATOM      7  S12 GNX d 141      27.075  -4.563 -17.117  0.00  0.00     0.252 S 
ATOM      8  C5  GNX d 141      27.388  -8.999 -19.052  0.00  0.00     0.089 C 
ATOM      9  C3  GNX d 141      26.984  -6.531 -18.821  0.00  0.00     0.107 C 
ATOM     10  O1S GNX d 141      23.911  -4.569 -19.946  0.00  0.00    -0.296 OA
ATOM     11  C4  GNX d 141      27.152  -7.851 -18.078  0.00  0.00     0.090 C 
ATOM     12  O5  GNX d 141      26.333  -9.047 -19.988  0.00  0.00    -0.349 OA
ATOM     13  O12 GNX d 141      26.043  -3.949 -16.214  0.00  0.00    -0.572 OA
ATOM     14  C2  GNX d 141      25.996  -6.674 -19.974  0.00  0.00     0.083 C 
ATOM     15  O3  GNX d 141      26.522  -5.544 -17.926  0.00  0.00    -0.247 OA
ATOM     16  O22 GNX d 141      28.318  -4.672 -16.352  0.00  0.00    -0.572 OA
ATOM     17  O3S GNX d 141      23.957  -5.618 -22.125  0.00  0.00    -0.296 OA
ATOM     18  O4  GNX d 141      28.244  -7.756 -17.191  0.00  0.00    -0.390 OA
ATOM     19  N   GNX d 141      26.025  -5.485 -20.803  0.00  0.00    -0.210 NA
ATOM     20  H   GNX d 141      25.567  -8.025 -21.570  0.00  0.00     0.131 H 
ATOM     21  H   GNX d 141      26.827 -12.163 -18.574  0.00  0.00     0.209 HD
ATOM     22  H   GNX d 141      25.489  -2.923 -21.148  0.00  0.00     0.231 HD
ATOM     23  H   GNX d 141      28.500 -10.620 -18.223  0.00  0.00     0.078 H 
ATOM     24  H   GNX d 141      27.043 -10.229 -17.342  0.00  0.00     0.078 H 
ATOM     25  H   GNX d 141      28.316  -8.829 -19.556  0.00  0.00     0.090 H 
ATOM     26  H   GNX d 141      27.933  -6.244 -19.223  0.00  0.00     0.092 H 
ATOM     27  H   GNX d 141      24.407  -3.986 -19.350  0.00  0.00     0.231 HD
ATOM     28  H   GNX d 141      26.253  -8.049 -17.532  0.00  0.00     0.091 H 
ATOM     29  H   GNX d 141      25.015  -6.794 -19.563  0.00  0.00     0.076 H 
ATOM     30  H   GNX d 141      23.730  -6.452 -21.684  0.00  0.00     0.231 HD
ATOM     31  H   GNX d 141      29.054  -7.576 -17.693  0.00  0.00     0.210 HD
ATOM     32  H   GNX d 141      26.604  -4.800 -20.315  0.00  0.00     0.140 HD
ATOM     33  C2  IDY d 142      28.272  -5.792 -23.871  0.00  0.00     0.134 C 
ATOM     34  C5  IDY d 142      28.917  -8.663 -23.229  0.00  0.00     0.152 C 
ATOM     35  C1  IDY d 142      29.611  -6.492 -24.116  0.00  0.00     0.160 C 
ATOM     36  O5  IDY d 142      29.893  -7.623 -23.286  0.00  0.00    -0.340 OA
ATOM     37  O61 IDY d 142      29.260 -10.807 -22.144  0.00  0.00    -0.646 OA
ATOM     38  OS3 IDY d 142      30.219  -3.440 -23.667  0.00  0.00    -0.572 OA
ATOM     39  OS1 IDY d 142      29.227  -2.932 -21.518  0.00  0.00    -0.572 OA
ATOM     40  C6  IDY d 142      29.334  -9.508 -22.055  0.00  0.00     0.206 C 
ATOM     41  C4  IDY d 142      27.509  -8.109 -22.984  0.00  0.00     0.103 C 
ATOM     42  O2  IDY d 142      28.309  -4.858 -22.767  0.00  0.00    -0.244 OA
ATOM     43  O4  IDY d 142      27.576  -7.744 -21.423  0.00  0.00    -0.348 OA
ATOM     44  O62 IDY d 142      29.793  -8.954 -21.014  0.00  0.00    -0.646 OA
ATOM     45  O1  IDY d 142      30.393  -6.156 -25.459  0.00  0.00    -0.363 OA
ATOM     46  OS2 IDY d 142      27.985  -2.478 -23.495  0.00  0.00    -0.572 OA
ATOM     47  C3  IDY d 142      27.150  -6.832 -23.761  0.00  0.00     0.094 C 
ATOM     48  S   IDY d 142      28.933  -3.433 -22.878  0.00  0.00     0.252 S 
ATOM     49  C7  IDY d 142      30.765  -6.492 -26.297  0.00  0.00     0.007 C 
ATOM     50  O3  IDY d 142      26.738  -7.183 -25.099  0.00  0.00    -0.390 OA
ATOM     51  H   IDY d 142      28.061  -5.176 -24.719  0.00  0.00     0.097 H 
ATOM     52  H   IDY d 142      28.875  -9.203 -24.152  0.00  0.00     0.104 H 
ATOM     53  H   IDY d 142      30.422  -5.965 -23.659  0.00  0.00     0.133 H 
ATOM     54  H   IDY d 142      26.769  -8.817 -23.296  0.00  0.00     0.092 H 
ATOM     55  H   IDY d 142      26.366  -6.376 -23.194  0.00  0.00     0.091 H 
ATOM     56  H   IDY d 142      31.219  -5.686 -26.834  0.00  0.00     0.066 H 
ATOM     57  H   IDY d 142      29.982  -6.919 -26.889  0.00  0.00     0.066 H 
ATOM     58  H   IDY d 142      31.500  -7.239 -26.086  0.00  0.00     0.066 H 
ATOM     59  H   IDY d 142      27.482  -7.591 -25.569  0.00  0.00     0.210 HD
ENDROOT
TORSDOF 18
ENDMDL
MODEL 23
REMARK VINA RESULT:      -5.9      3.755      7.378
REMARK  0 active torsions:
REMARK  status: ('A' for Active; 'I' for Inactive)
REMARK       I    between atoms: S1_1  and  N_36 
REMARK       I    between atoms: S1_1  and  O1S_20 
REMARK       I    between atoms: S1_1  and  O2S_7 
REMARK       I    between atoms: S1_1  and  O3S_31 
REMARK       I    between atoms: C1_2  and  O4_21 
REMARK       I    between atoms: O6_4  and  C6_9 
REMARK       I    between atoms: C2_5  and  O2_18 
REMARK       I    between atoms: C5_6  and  C6_15 
REMARK       I    between atoms: C1_8  and  O1_27 
REMARK       I    between atoms: C6_9  and  C5_16 
REMARK       I    between atoms: S12_12  and  O3_28 
REMARK       I    between atoms: C4_17  and  O4_21 
REMARK       I    between atoms: O2_18  and  S_33 
REMARK       I    between atoms: C3_19  and  O3_28 
REMARK       I    between atoms: C4_23  and  O4_34 
REMARK       I    between atoms: C2_26  and  N_36 
REMARK       I    between atoms: O1_27  and  C7_35 
REMARK       I    between atoms: C3_32  and  O3_37 
ROOT
ATOM      1  S1  GNX d 141      25.240  -8.117 -22.632  0.00  0.00     0.156 S 
ATOM      2  C1  GNX d 141      27.949  -9.450 -20.698  0.00  0.00     0.150 C 
ATOM      3  O32 GNX d 141      26.211  -4.630 -20.567  0.00  0.00    -0.572 OA
ATOM      4  O6  GNX d 141      29.363 -11.006 -17.449  0.00  0.00    -0.398 OA
ATOM      5  O2S GNX d 141      25.157  -7.235 -23.792  0.00  0.00    -0.296 OA
ATOM      6  C6  GNX d 141      29.329  -9.604 -17.301  0.00  0.00     0.043 C 
ATOM      7  S12 GNX d 141      26.107  -5.017 -19.156  0.00  0.00     0.252 S 
ATOM      8  C5  GNX d 141      28.867  -8.967 -18.606  0.00  0.00     0.089 C 
ATOM      9  C3  GNX d 141      27.366  -7.244 -19.649  0.00  0.00     0.107 C 
ATOM     10  O1S GNX d 141      24.183  -7.854 -21.659  0.00  0.00    -0.296 OA
ATOM     11  C4  GNX d 141      27.891  -7.827 -18.342  0.00  0.00     0.090 C 
ATOM     12  O5  GNX d 141      28.245  -9.943 -19.411  0.00  0.00    -0.349 OA
ATOM     13  O12 GNX d 141      24.707  -4.719 -18.701  0.00  0.00    -0.572 OA
ATOM     14  C2  GNX d 141      26.902  -8.347 -20.592  0.00  0.00     0.083 C 
ATOM     15  O3  GNX d 141      26.290  -6.374 -19.376  0.00  0.00    -0.247 OA
ATOM     16  O22 GNX d 141      27.007  -4.131 -18.418  0.00  0.00    -0.572 OA
ATOM     17  O3S GNX d 141      25.283  -9.524 -23.020  0.00  0.00    -0.296 OA
ATOM     18  O4  GNX d 141      28.538  -6.816 -17.602  0.00  0.00    -0.390 OA
ATOM     19  N   GNX d 141      26.628  -7.795 -21.904  0.00  0.00    -0.210 NA
ATOM     20  H   GNX d 141      27.570 -10.245 -21.306  0.00  0.00     0.131 H 
ATOM     21  H   GNX d 141      29.658 -11.412 -16.619  0.00  0.00     0.209 HD
ATOM     22  H   GNX d 141      25.130  -6.312 -23.495  0.00  0.00     0.231 HD
ATOM     23  H   GNX d 141      30.308  -9.247 -17.057  0.00  0.00     0.078 H 
ATOM     24  H   GNX d 141      28.649  -9.345 -16.516  0.00  0.00     0.078 H 
ATOM     25  H   GNX d 141      29.722  -8.569 -19.110  0.00  0.00     0.090 H 
ATOM     26  H   GNX d 141      28.161  -6.705 -20.123  0.00  0.00     0.092 H 
ATOM     27  H   GNX d 141      24.184  -6.912 -21.426  0.00  0.00     0.231 HD
ATOM     28  H   GNX d 141      27.062  -8.213 -17.786  0.00  0.00     0.091 H 
ATOM     29  H   GNX d 141      26.005  -8.774 -20.195  0.00  0.00     0.076 H 
ATOM     30  H   GNX d 141      25.337 -10.077 -22.225  0.00  0.00     0.231 HD
ATOM     31  H   GNX d 141      29.288  -6.472 -18.111  0.00  0.00     0.210 HD
ATOM     32  H   GNX d 141      26.685  -6.780 -21.815  0.00  0.00     0.140 HD
ATOM     33  C2  IDY d 142      29.522  -8.141 -24.365  0.00  0.00     0.134 C 
ATOM     34  C5  IDY d 142      31.168  -9.673 -22.362  0.00  0.00     0.152 C 
ATOM     35  C1  IDY d 142      31.042  -8.069 -24.203  0.00  0.00     0.160 C 
ATOM     36  O5  IDY d 142      31.557  -8.415 -22.914  0.00  0.00    -0.340 OA
ATOM     37  O61 IDY d 142      32.113 -10.635 -20.343  0.00  0.00    -0.646 OA
ATOM     38  OS3 IDY d 142      30.088  -5.293 -25.331  0.00  0.00    -0.572 OA
ATOM     39  OS1 IDY d 142      28.428  -4.530 -23.743  0.00  0.00    -0.572 OA
ATOM     40  C6  IDY d 142      31.576  -9.592 -20.915  0.00  0.00     0.206 C 
ATOM     41  C4  IDY d 142      29.653  -9.890 -22.452  0.00  0.00     0.103 C 
ATOM     42  O2  IDY d 142      28.838  -6.964 -23.877  0.00  0.00    -0.244 OA
ATOM     43  O4  IDY d 142      29.122  -8.929 -21.282  0.00  0.00    -0.348 OA
ATOM     44  O62 IDY d 142      31.438  -8.505 -20.283  0.00  0.00    -0.646 OA
ATOM     45  O1  IDY d 142      31.929  -7.975 -25.520  0.00  0.00    -0.363 OA
ATOM     46  OS2 IDY d 142      27.707  -5.667 -25.705  0.00  0.00    -0.572 OA
ATOM     47  C3  IDY d 142      28.994  -9.453 -23.771  0.00  0.00     0.094 C 
ATOM     48  S   IDY d 142      28.771  -5.626 -24.675  0.00  0.00     0.252 S 
ATOM     49  C7  IDY d 142      32.624  -8.382 -26.070  0.00  0.00     0.007 C 
ATOM     50  O3  IDY d 142      29.164 -10.489 -24.760  0.00  0.00    -0.390 OA
ATOM     51  H   IDY d 142      29.301  -8.148 -25.412  0.00  0.00     0.097 H 
ATOM     52  H   IDY d 142      31.624 -10.484 -22.891  0.00  0.00     0.104 H 
ATOM     53  H   IDY d 142      31.377  -7.062 -24.057  0.00  0.00     0.133 H 
ATOM     54  H   IDY d 142      29.420 -10.932 -22.381  0.00  0.00     0.092 H 
ATOM     55  H   IDY d 142      27.968  -9.283 -23.522  0.00  0.00     0.091 H 
ATOM     56  H   IDY d 142      32.803  -7.772 -26.930  0.00  0.00     0.066 H 
ATOM     57  H   IDY d 142      32.308  -9.356 -26.383  0.00  0.00     0.066 H 
ATOM     58  H   IDY d 142      33.526  -8.468 -25.500  0.00  0.00     0.066 H 
ATOM     59  H   IDY d 142      30.108 -10.603 -24.950  0.00  0.00     0.210 HD
ENDROOT
TORSDOF 18
ENDMDL
MODEL 24
REMARK VINA RESULT:      -5.9      2.737      4.157
REMARK  0 active torsions:
REMARK  status: ('A' for Active; 'I' for Inactive)
REMARK       I    between atoms: S1_1  and  N_36 
REMARK       I    between atoms: S1_1  and  O1S_20 
REMARK       I    between atoms: S1_1  and  O2S_7 
REMARK       I    between atoms: S1_1  and  O3S_31 
REMARK       I    between atoms: C1_2  and  O4_21 
REMARK       I    between atoms: O6_4  and  C6_9 
REMARK       I    between atoms: C2_5  and  O2_18 
REMARK       I    between atoms: C5_6  and  C6_15 
REMARK       I    between atoms: C1_8  and  O1_27 
REMARK       I    between atoms: C6_9  and  C5_16 
REMARK       I    between atoms: S12_12  and  O3_28 
REMARK       I    between atoms: C4_17  and  O4_21 
REMARK       I    between atoms: O2_18  and  S_33 
REMARK       I    between atoms: C3_19  and  O3_28 
REMARK       I    between atoms: C4_23  and  O4_34 
REMARK       I    between atoms: C2_26  and  N_36 
REMARK       I    between atoms: O1_27  and  C7_35 
REMARK       I    between atoms: C3_32  and  O3_37 
ROOT
ATOM      1  S1  GNX d 141      27.099  -9.840 -19.710  0.00  0.00     0.156 S 
ATOM      2  C1  GNX d 141      28.741  -9.709 -22.895  0.00  0.00     0.150 C 
ATOM      3  O32 GNX d 141      30.361  -7.519 -18.554  0.00  0.00    -0.572 OA
ATOM      4  O6  GNX d 141      31.373 -11.008 -25.418  0.00  0.00    -0.398 OA
ATOM      5  O2S GNX d 141      26.323  -8.882 -18.927  0.00  0.00    -0.296 OA
ATOM      6  C6  GNX d 141      32.001 -10.109 -24.531  0.00  0.00     0.043 C 
ATOM      7  S12 GNX d 141      31.521  -8.338 -18.919  0.00  0.00     0.252 S 
ATOM      8  C5  GNX d 141      30.961  -9.512 -23.591  0.00  0.00     0.089 C 
ATOM      9  C3  GNX d 141      30.425  -8.912 -21.212  0.00  0.00     0.107 C 
ATOM     10  O1S GNX d 141      27.970 -10.662 -18.875  0.00  0.00    -0.296 OA
ATOM     11  C4  GNX d 141      31.494  -9.433 -22.166  0.00  0.00     0.090 C 
ATOM     12  O5  GNX d 141      29.796 -10.307 -23.615  0.00  0.00    -0.349 OA
ATOM     13  O12 GNX d 141      31.884  -9.175 -17.727  0.00  0.00    -0.572 OA
ATOM     14  C2  GNX d 141      29.105  -9.646 -21.417  0.00  0.00     0.083 C 
ATOM     15  O3  GNX d 141      30.859  -9.086 -19.881  0.00  0.00    -0.247 OA
ATOM     16  O22 GNX d 141      32.625  -7.407 -19.155  0.00  0.00    -0.572 OA
ATOM     17  O3S GNX d 141      26.246 -10.654 -20.573  0.00  0.00    -0.296 OA
ATOM     18  O4  GNX d 141      32.614  -8.576 -22.131  0.00  0.00    -0.390 OA
ATOM     19  N   GNX d 141      28.050  -8.987 -20.672  0.00  0.00    -0.210 NA
ATOM     20  H   GNX d 141      27.851 -10.292 -23.019  0.00  0.00     0.131 H 
ATOM     21  H   GNX d 141      32.034 -11.388 -26.017  0.00  0.00     0.209 HD
ATOM     22  H   GNX d 141      26.921  -8.362 -18.368  0.00  0.00     0.231 HD
ATOM     23  H   GNX d 141      32.469  -9.325 -25.089  0.00  0.00     0.078 H 
ATOM     24  H   GNX d 141      32.741 -10.631 -23.960  0.00  0.00     0.078 H 
ATOM     25  H   GNX d 141      30.734  -8.521 -23.922  0.00  0.00     0.090 H 
ATOM     26  H   GNX d 141      30.269  -7.872 -21.412  0.00  0.00     0.092 H 
ATOM     27  H   GNX d 141      28.519 -10.089 -18.318  0.00  0.00     0.231 HD
ATOM     28  H   GNX d 141      31.776 -10.417 -21.854  0.00  0.00     0.091 H 
ATOM     29  H   GNX d 141      29.218 -10.647 -21.056  0.00  0.00     0.076 H 
ATOM     30  H   GNX d 141      26.795 -11.276 -21.075  0.00  0.00     0.231 HD
ATOM     31  H   GNX d 141      32.350  -7.687 -22.414  0.00  0.00     0.210 HD
ATOM     32  H   GNX d 141      28.499  -8.278 -20.091  0.00  0.00     0.140 HD
ATOM     33  C2  IDY d 142      25.984  -6.545 -22.751  0.00  0.00     0.134 C 
ATOM     34  C5  IDY d 142      27.495  -7.251 -25.258  0.00  0.00     0.152 C 
ATOM     35  C1  IDY d 142      26.339  -5.587 -23.890  0.00  0.00     0.160 C 
ATOM     36  O5  IDY d 142      27.473  -5.943 -24.685  0.00  0.00    -0.340 OA
ATOM     37  O61 IDY d 142      29.141  -8.012 -26.873  0.00  0.00    -0.646 OA
ATOM     38  OS3 IDY d 142      26.159  -3.882 -21.254  0.00  0.00    -0.572 OA
ATOM     39  OS1 IDY d 142      27.708  -4.951 -19.732  0.00  0.00    -0.572 OA
ATOM     40  C6  IDY d 142      28.915  -7.434 -25.725  0.00  0.00     0.206 C 
ATOM     41  C4  IDY d 142      27.157  -8.331 -24.224  0.00  0.00     0.103 C 
ATOM     42  O2  IDY d 142      26.772  -6.332 -21.557  0.00  0.00    -0.244 OA
ATOM     43  O4  IDY d 142      28.520  -8.405 -23.381  0.00  0.00    -0.348 OA
ATOM     44  O62 IDY d 142      29.869  -6.986 -25.027  0.00  0.00    -0.646 OA
ATOM     45  O1  IDY d 142      25.253  -4.507 -24.321  0.00  0.00    -0.363 OA
ATOM     46  OS2 IDY d 142      25.401  -5.522 -19.617  0.00  0.00    -0.572 OA
ATOM     47  C3  IDY d 142      26.010  -7.993 -23.257  0.00  0.00     0.094 C 
ATOM     48  S   IDY d 142      26.497  -5.173 -20.550  0.00  0.00     0.252 S 
ATOM     49  C7  IDY d 142      24.680  -4.159 -25.030  0.00  0.00     0.007 C 
ATOM     50  O3  IDY d 142      24.746  -8.263 -23.898  0.00  0.00    -0.390 OA
ATOM     51  H   IDY d 142      24.984  -6.330 -22.437  0.00  0.00     0.097 H 
ATOM     52  H   IDY d 142      26.771  -7.342 -26.041  0.00  0.00     0.104 H 
ATOM     53  H   IDY d 142      26.869  -4.728 -23.534  0.00  0.00     0.133 H 
ATOM     54  H   IDY d 142      26.827  -9.225 -24.711  0.00  0.00     0.092 H 
ATOM     55  H   IDY d 142      26.181  -8.612 -22.402  0.00  0.00     0.091 H 
ATOM     56  H   IDY d 142      24.119  -3.327 -24.660  0.00  0.00     0.066 H 
ATOM     57  H   IDY d 142      24.009  -4.927 -25.356  0.00  0.00     0.066 H 
ATOM     58  H   IDY d 142      25.285  -3.842 -25.854  0.00  0.00     0.066 H 
ATOM     59  H   IDY d 142      24.641  -7.677 -24.664  0.00  0.00     0.210 HD
ENDROOT
TORSDOF 18
ENDMDL
MODEL 25
REMARK VINA RESULT:      -5.8      2.677      7.002
REMARK  0 active torsions:
REMARK  status: ('A' for Active; 'I' for Inactive)
REMARK       I    between atoms: S1_1  and  N_36 
REMARK       I    between atoms: S1_1  and  O1S_20 
REMARK       I    between atoms: S1_1  and  O2S_7 
REMARK       I    between atoms: S1_1  and  O3S_31 
REMARK       I    between atoms: C1_2  and  O4_21 
REMARK       I    between atoms: O6_4  and  C6_9 
REMARK       I    between atoms: C2_5  and  O2_18 
REMARK       I    between atoms: C5_6  and  C6_15 
REMARK       I    between atoms: C1_8  and  O1_27 
REMARK       I    between atoms: C6_9  and  C5_16 
REMARK       I    between atoms: S12_12  and  O3_28 
REMARK       I    between atoms: C4_17  and  O4_21 
REMARK       I    between atoms: O2_18  and  S_33 
REMARK       I    between atoms: C3_19  and  O3_28 
REMARK       I    between atoms: C4_23  and  O4_34 
REMARK       I    between atoms: C2_26  and  N_36 
REMARK       I    between atoms: O1_27  and  C7_35 
REMARK       I    between atoms: C3_32  and  O3_37 
ROOT
ATOM      1  S1  GNX d 141      24.146  -6.178 -25.435  0.00  0.00     0.156 S 
ATOM      2  C1  GNX d 141      24.675  -4.847 -22.148  0.00  0.00     0.150 C 
ATOM      3  O32 GNX d 141      27.726  -4.192 -26.214  0.00  0.00    -0.572 OA
ATOM      4  O6  GNX d 141      24.395  -1.989 -19.552  0.00  0.00    -0.398 OA
ATOM      5  O2S GNX d 141      24.750  -7.265 -26.200  0.00  0.00    -0.296 OA
ATOM      6  C6  GNX d 141      25.552  -1.780 -20.332  0.00  0.00     0.043 C 
ATOM      7  S12 GNX d 141      27.447  -2.804 -25.830  0.00  0.00     0.252 S 
ATOM      8  C5  GNX d 141      25.732  -2.947 -21.296  0.00  0.00     0.089 C 
ATOM      9  C3  GNX d 141      26.259  -3.616 -23.659  0.00  0.00     0.107 C 
ATOM     10  O1S GNX d 141      23.850  -5.014 -26.265  0.00  0.00    -0.296 OA
ATOM     11  C4  GNX d 141      26.158  -2.457 -22.674  0.00  0.00     0.090 C 
ATOM     12  O5  GNX d 141      24.520  -3.660 -21.403  0.00  0.00    -0.349 OA
ATOM     13  O12 GNX d 141      26.954  -2.081 -27.051  0.00  0.00    -0.572 OA
ATOM     14  C2  GNX d 141      25.019  -4.500 -23.591  0.00  0.00     0.083 C 
ATOM     15  O3  GNX d 141      26.406  -3.110 -24.967  0.00  0.00    -0.247 OA
ATOM     16  O22 GNX d 141      28.733  -2.213 -25.459  0.00  0.00    -0.572 OA
ATOM     17  O3S GNX d 141      22.974  -6.625 -24.687  0.00  0.00    -0.296 OA
ATOM     18  O4  GNX d 141      27.408  -1.811 -22.578  0.00  0.00    -0.390 OA
ATOM     19  N   GNX d 141      25.232  -5.713 -24.356  0.00  0.00    -0.210 NA
ATOM     20  H   GNX d 141      23.762  -5.404 -22.123  0.00  0.00     0.131 H 
ATOM     21  H   GNX d 141      24.280  -1.247 -18.939  0.00  0.00     0.209 HD
ATOM     22  H   GNX d 141      25.522  -6.931 -26.681  0.00  0.00     0.231 HD
ATOM     23  H   GNX d 141      26.406  -1.710 -19.693  0.00  0.00     0.078 H 
ATOM     24  H   GNX d 141      25.447  -0.871 -20.888  0.00  0.00     0.078 H 
ATOM     25  H   GNX d 141      26.499  -3.587 -20.913  0.00  0.00     0.090 H 
ATOM     26  H   GNX d 141      27.112  -4.209 -23.398  0.00  0.00     0.092 H 
ATOM     27  H   GNX d 141      24.649  -4.747 -26.745  0.00  0.00     0.231 HD
ATOM     28  H   GNX d 141      25.419  -1.771 -23.033  0.00  0.00     0.091 H 
ATOM     29  H   GNX d 141      24.197  -3.958 -24.011  0.00  0.00     0.076 H 
ATOM     30  H   GNX d 141      22.601  -5.878 -24.193  0.00  0.00     0.231 HD
ATOM     31  H   GNX d 141      28.072  -2.439 -22.252  0.00  0.00     0.210 HD
ATOM     32  H   GNX d 141      26.113  -5.594 -24.858  0.00  0.00     0.140 HD
ATOM     33  C2  IDY d 142      26.369  -8.688 -22.256  0.00  0.00     0.134 C 
ATOM     34  C5  IDY d 142      26.150  -7.096 -19.709  0.00  0.00     0.152 C 
ATOM     35  C1  IDY d 142      27.280  -8.812 -21.033  0.00  0.00     0.160 C 
ATOM     36  O5  IDY d 142      27.369  -7.658 -20.192  0.00  0.00    -0.340 OA
ATOM     37  O61 IDY d 142      26.017  -5.332 -18.045  0.00  0.00    -0.646 OA
ATOM     38  OS3 IDY d 142      28.977  -9.625 -23.552  0.00  0.00    -0.572 OA
ATOM     39  OS1 IDY d 142      28.807  -7.723 -25.039  0.00  0.00    -0.572 OA
ATOM     40  C6  IDY d 142      26.545  -5.750 -19.163  0.00  0.00     0.206 C 
ATOM     41  C4  IDY d 142      25.125  -6.907 -20.834  0.00  0.00     0.103 C 
ATOM     42  O2  IDY d 142      27.003  -8.031 -23.378  0.00  0.00    -0.244 OA
ATOM     43  O4  IDY d 142      25.713  -5.620 -21.590  0.00  0.00    -0.348 OA
ATOM     44  O62 IDY d 142      27.417  -5.058 -19.766  0.00  0.00    -0.646 OA
ATOM     45  O1  IDY d 142      27.754 -10.268 -20.601  0.00  0.00    -0.363 OA
ATOM     46  OS2 IDY d 142      27.324  -9.558 -25.344  0.00  0.00    -0.572 OA
ATOM     47  C3  IDY d 142      25.030  -8.059 -21.849  0.00  0.00     0.094 C 
ATOM     48  S   IDY d 142      28.020  -8.746 -24.319  0.00  0.00     0.252 S 
ATOM     49  C7  IDY d 142      27.761 -10.956 -19.909  0.00  0.00     0.007 C 
ATOM     50  O3  IDY d 142      24.193  -9.104 -21.313  0.00  0.00    -0.390 OA
ATOM     51  H   IDY d 142      26.166  -9.673 -22.619  0.00  0.00     0.097 H 
ATOM     52  H   IDY d 142      25.690  -7.734 -18.983  0.00  0.00     0.104 H 
ATOM     53  H   IDY d 142      28.311  -8.690 -21.294  0.00  0.00     0.133 H 
ATOM     54  H   IDY d 142      24.136  -6.837 -20.432  0.00  0.00     0.092 H 
ATOM     55  H   IDY d 142      24.622  -7.614 -22.732  0.00  0.00     0.091 H 
ATOM     56  H   IDY d 142      28.305 -11.808 -20.257  0.00  0.00     0.066 H 
ATOM     57  H   IDY d 142      26.755 -11.243 -19.681  0.00  0.00     0.066 H 
ATOM     58  H   IDY d 142      28.229 -10.570 -19.027  0.00  0.00     0.066 H 
ATOM     59  H   IDY d 142      24.607  -9.473 -20.516  0.00  0.00     0.210 HD
ENDROOT
TORSDOF 18
ENDMDL
MODEL 26
REMARK VINA RESULT:      -5.8      2.620      7.070
REMARK  0 active torsions:
REMARK  status: ('A' for Active; 'I' for Inactive)
REMARK       I    between atoms: S1_1  and  N_36 
REMARK       I    between atoms: S1_1  and  O1S_20 
REMARK       I    between atoms: S1_1  and  O2S_7 
REMARK       I    between atoms: S1_1  and  O3S_31 
REMARK       I    between atoms: C1_2  and  O4_21 
REMARK       I    between atoms: O6_4  and  C6_9 
REMARK       I    between atoms: C2_5  and  O2_18 
REMARK       I    between atoms: C5_6  and  C6_15 
REMARK       I    between atoms: C1_8  and  O1_27 
REMARK       I    between atoms: C6_9  and  C5_16 
REMARK       I    between atoms: S12_12  and  O3_28 
REMARK       I    between atoms: C4_17  and  O4_21 
REMARK       I    between atoms: O2_18  and  S_33 
REMARK       I    between atoms: C3_19  and  O3_28 
REMARK       I    between atoms: C4_23  and  O4_34 
REMARK       I    between atoms: C2_26  and  N_36 
REMARK       I    between atoms: O1_27  and  C7_35 
REMARK       I    between atoms: C3_32  and  O3_37 
ROOT
ATOM      1  S1  GNX d 141      25.318  -9.018 -21.620  0.00  0.00     0.156 S 
ATOM      2  C1  GNX d 141      28.257  -6.970 -21.453  0.00  0.00     0.150 C 
ATOM      3  O32 GNX d 141      23.685  -5.573 -23.303  0.00  0.00    -0.572 OA
ATOM      4  O6  GNX d 141      30.447  -4.304 -19.699  0.00  0.00    -0.398 OA
ATOM      5  O2S GNX d 141      24.618  -9.704 -22.702  0.00  0.00    -0.296 OA
ATOM      6  C6  GNX d 141      29.463  -3.647 -20.466  0.00  0.00     0.043 C 
ATOM      7  S12 GNX d 141      23.917  -4.542 -22.286  0.00  0.00     0.252 S 
ATOM      8  C5  GNX d 141      28.651  -4.678 -21.242  0.00  0.00     0.089 C 
ATOM      9  C3  GNX d 141      26.347  -5.408 -21.926  0.00  0.00     0.107 C 
ATOM     10  O1S GNX d 141      24.398  -8.429 -20.651  0.00  0.00    -0.296 OA
ATOM     11  C4  GNX d 141      27.167  -4.334 -21.220  0.00  0.00     0.090 C 
ATOM     12  O5  GNX d 141      28.848  -5.954 -20.674  0.00  0.00    -0.349 OA
ATOM     13  O12 GNX d 141      22.709  -4.498 -21.394  0.00  0.00    -0.572 OA
ATOM     14  C2  GNX d 141      26.742  -6.800 -21.446  0.00  0.00     0.083 C 
ATOM     15  O3  GNX d 141      24.977  -5.194 -21.673  0.00  0.00    -0.247 OA
ATOM     16  O22 GNX d 141      23.983  -3.266 -23.000  0.00  0.00    -0.572 OA
ATOM     17  O3S GNX d 141      26.305  -9.880 -20.977  0.00  0.00    -0.296 OA
ATOM     18  O4  GNX d 141      26.963  -3.092 -21.857  0.00  0.00    -0.390 OA
ATOM     19  N   GNX d 141      26.125  -7.808 -22.286  0.00  0.00    -0.210 NA
ATOM     20  H   GNX d 141      28.510  -7.925 -21.043  0.00  0.00     0.131 H 
ATOM     21  H   GNX d 141      30.964  -3.648 -19.205  0.00  0.00     0.209 HD
ATOM     22  H   GNX d 141      23.973  -9.102 -23.103  0.00  0.00     0.231 HD
ATOM     23  H   GNX d 141      29.934  -2.975 -21.152  0.00  0.00     0.078 H 
ATOM     24  H   GNX d 141      28.813  -3.097 -19.817  0.00  0.00     0.078 H 
ATOM     25  H   GNX d 141      28.983  -4.676 -22.258  0.00  0.00     0.090 H 
ATOM     26  H   GNX d 141      26.540  -5.346 -22.977  0.00  0.00     0.092 H 
ATOM     27  H   GNX d 141      23.759  -7.864 -21.113  0.00  0.00     0.231 HD
ATOM     28  H   GNX d 141      26.847  -4.279 -20.201  0.00  0.00     0.091 H 
ATOM     29  H   GNX d 141      26.396  -6.919 -20.440  0.00  0.00     0.076 H 
ATOM     30  H   GNX d 141      26.748  -9.391 -20.266  0.00  0.00     0.231 HD
ATOM     31  H   GNX d 141      27.256  -3.150 -22.780  0.00  0.00     0.210 HD
ATOM     32  H   GNX d 141      25.472  -7.320 -22.900  0.00  0.00     0.140 HD
ATOM     33  C2  IDY d 142      28.392  -9.102 -25.068  0.00  0.00     0.134 C 
ATOM     34  C5  IDY d 142      30.697  -7.423 -24.102  0.00  0.00     0.152 C 
ATOM     35  C1  IDY d 142      29.450  -8.431 -25.947  0.00  0.00     0.160 C 
ATOM     36  O5  IDY d 142      30.098  -7.284 -25.390  0.00  0.00    -0.340 OA
ATOM     37  O61 IDY d 142      32.103  -5.743 -23.055  0.00  0.00    -0.646 OA
ATOM     38  OS3 IDY d 142      26.816  -8.648 -27.652  0.00  0.00    -0.572 OA
ATOM     39  OS1 IDY d 142      25.133  -7.536 -26.314  0.00  0.00    -0.572 OA
ATOM     40  C6  IDY d 142      30.980  -6.011 -23.663  0.00  0.00     0.206 C 
ATOM     41  C4  IDY d 142      29.745  -8.086 -23.100  0.00  0.00     0.103 C 
ATOM     42  O2  IDY d 142      27.100  -8.454 -25.131  0.00  0.00    -0.244 OA
ATOM     43  O4  IDY d 142      28.733  -6.884 -22.777  0.00  0.00    -0.348 OA
ATOM     44  O62 IDY d 142      30.151  -5.093 -23.928  0.00  0.00    -0.646 OA
ATOM     45  O1  IDY d 142      29.990  -9.236 -27.208  0.00  0.00    -0.363 OA
ATOM     46  OS2 IDY d 142      25.335  -9.902 -26.175  0.00  0.00    -0.572 OA
ATOM     47  C3  IDY d 142      28.928  -9.271 -23.641  0.00  0.00     0.094 C 
ATOM     48  S   IDY d 142      26.108  -8.647 -26.319  0.00  0.00     0.252 S 
ATOM     49  C7  IDY d 142      30.759  -9.637 -27.656  0.00  0.00     0.007 C 
ATOM     50  O3  IDY d 142      29.734 -10.466 -23.608  0.00  0.00    -0.390 OA
ATOM     51  H   IDY d 142      28.206 -10.080 -25.461  0.00  0.00     0.097 H 
ATOM     52  H   IDY d 142      31.570  -8.041 -24.146  0.00  0.00     0.104 H 
ATOM     53  H   IDY d 142      29.005  -7.806 -26.694  0.00  0.00     0.133 H 
ATOM     54  H   IDY d 142      30.294  -8.504 -22.282  0.00  0.00     0.092 H 
ATOM     55  H   IDY d 142      28.074  -9.331 -23.000  0.00  0.00     0.091 H 
ATOM     56  H   IDY d 142      30.444 -10.082 -28.576  0.00  0.00     0.066 H 
ATOM     57  H   IDY d 142      31.189 -10.386 -27.025  0.00  0.00     0.066 H 
ATOM     58  H   IDY d 142      31.488  -8.880 -27.858  0.00  0.00     0.066 H 
ATOM     59  H   IDY d 142      30.493 -10.361 -24.204  0.00  0.00     0.210 HD
ENDROOT
TORSDOF 18
ENDMDL
MODEL 27
REMARK VINA RESULT:      -5.8      3.221      7.720
REMARK  0 active torsions:
REMARK  status: ('A' for Active; 'I' for Inactive)
REMARK       I    between atoms: S1_1  and  N_36 
REMARK       I    between atoms: S1_1  and  O1S_20 
REMARK       I    between atoms: S1_1  and  O2S_7 
REMARK       I    between atoms: S1_1  and  O3S_31 
REMARK       I    between atoms: C1_2  and  O4_21 
REMARK       I    between atoms: O6_4  and  C6_9 
REMARK       I    between atoms: C2_5  and  O2_18 
REMARK       I    between atoms: C5_6  and  C6_15 
REMARK       I    between atoms: C1_8  and  O1_27 
REMARK       I    between atoms: C6_9  and  C5_16 
REMARK       I    between atoms: S12_12  and  O3_28 
REMARK       I    between atoms: C4_17  and  O4_21 
REMARK       I    between atoms: O2_18  and  S_33 
REMARK       I    between atoms: C3_19  and  O3_28 
REMARK       I    between atoms: C4_23  and  O4_34 
REMARK       I    between atoms: C2_26  and  N_36 
REMARK       I    between atoms: O1_27  and  C7_35 
REMARK       I    between atoms: C3_32  and  O3_37 
ROOT
ATOM      1  S1  GNX d 141      24.608  -8.325 -22.548  0.00  0.00     0.156 S 
ATOM      2  C1  GNX d 141      26.637  -7.617 -19.677  0.00  0.00     0.150 C 
ATOM      3  O32 GNX d 141      25.165  -4.257 -23.257  0.00  0.00    -0.572 OA
ATOM      4  O6  GNX d 141      27.057  -6.386 -16.032  0.00  0.00    -0.398 OA
ATOM      5  O2S GNX d 141      24.881  -8.464 -23.975  0.00  0.00    -0.296 OA
ATOM      6  C6  GNX d 141      27.053  -5.267 -16.889  0.00  0.00     0.043 C 
ATOM      7  S12 GNX d 141      24.670  -3.617 -22.034  0.00  0.00     0.252 S 
ATOM      8  C5  GNX d 141      26.987  -5.737 -18.338  0.00  0.00     0.089 C 
ATOM      9  C3  GNX d 141      25.904  -5.389 -20.577  0.00  0.00     0.107 C 
ATOM     10  O1S GNX d 141      23.344  -7.641 -22.289  0.00  0.00    -0.296 OA
ATOM     11  C4  GNX d 141      26.033  -4.870 -19.150  0.00  0.00     0.090 C 
ATOM     12  O5  GNX d 141      26.554  -7.078 -18.377  0.00  0.00    -0.349 OA
ATOM     13  O12 GNX d 141      23.216  -3.301 -22.237  0.00  0.00    -0.572 OA
ATOM     14  C2  GNX d 141      25.654  -6.893 -20.591  0.00  0.00     0.083 C 
ATOM     15  O3  GNX d 141      24.838  -4.729 -21.223  0.00  0.00    -0.247 OA
ATOM     16  O22 GNX d 141      25.384  -2.345 -21.917  0.00  0.00    -0.572 OA
ATOM     17  O3S GNX d 141      24.684  -9.607 -21.852  0.00  0.00    -0.296 OA
ATOM     18  O4  GNX d 141      26.509  -3.542 -19.174  0.00  0.00    -0.390 OA
ATOM     19  N   GNX d 141      25.766  -7.402 -21.943  0.00  0.00    -0.210 NA
ATOM     20  H   GNX d 141      26.394  -8.659 -19.647  0.00  0.00     0.131 H 
ATOM     21  H   GNX d 141      27.099  -6.088 -15.110  0.00  0.00     0.209 HD
ATOM     22  H   GNX d 141      24.821  -7.596 -24.402  0.00  0.00     0.231 HD
ATOM     23  H   GNX d 141      27.948  -4.699 -16.739  0.00  0.00     0.078 H 
ATOM     24  H   GNX d 141      26.203  -4.654 -16.673  0.00  0.00     0.078 H 
ATOM     25  H   GNX d 141      27.964  -5.655 -18.765  0.00  0.00     0.090 H 
ATOM     26  H   GNX d 141      26.822  -5.194 -21.093  0.00  0.00     0.092 H 
ATOM     27  H   GNX d 141      23.331  -6.796 -22.766  0.00  0.00     0.231 HD
ATOM     28  H   GNX d 141      25.068  -4.903 -18.689  0.00  0.00     0.091 H 
ATOM     29  H   GNX d 141      24.664  -7.072 -20.227  0.00  0.00     0.076 H 
ATOM     30  H   GNX d 141      24.498  -9.475 -20.909  0.00  0.00     0.231 HD
ATOM     31  H   GNX d 141      27.383  -3.520 -19.593  0.00  0.00     0.210 HD
ATOM     32  H   GNX d 141      25.848  -6.591 -22.558  0.00  0.00     0.140 HD
ATOM     33  C2  IDY d 142      29.191  -8.869 -22.766  0.00  0.00     0.134 C 
ATOM     34  C5  IDY d 142      30.167  -8.415 -19.954  0.00  0.00     0.152 C 
ATOM     35  C1  IDY d 142      30.615  -8.485 -22.356  0.00  0.00     0.160 C 
ATOM     36  O5  IDY d 142      30.750  -7.805 -21.105  0.00  0.00    -0.340 OA
ATOM     37  O61 IDY d 142      30.492  -7.637 -17.677  0.00  0.00    -0.646 OA
ATOM     38  OS3 IDY d 142      30.132  -7.345 -25.247  0.00  0.00    -0.572 OA
ATOM     39  OS1 IDY d 142      28.149  -5.973 -25.036  0.00  0.00    -0.572 OA
ATOM     40  C6  IDY d 142      30.179  -7.333 -18.907  0.00  0.00     0.206 C 
ATOM     41  C4  IDY d 142      28.722  -8.857 -20.214  0.00  0.00     0.103 C 
ATOM     42  O2  IDY d 142      28.460  -7.783 -23.381  0.00  0.00    -0.244 OA
ATOM     43  O4  IDY d 142      27.947  -7.453 -20.172  0.00  0.00    -0.348 OA
ATOM     44  O62 IDY d 142      29.931  -6.137 -19.236  0.00  0.00    -0.646 OA
ATOM     45  O1  IDY d 142      31.823  -9.163 -23.137  0.00  0.00    -0.363 OA
ATOM     46  OS2 IDY d 142      27.921  -8.216 -25.794  0.00  0.00    -0.572 OA
ATOM     47  C3  IDY d 142      28.460  -9.511 -21.580  0.00  0.00     0.094 C 
ATOM     48  S   IDY d 142      28.673  -7.344 -24.863  0.00  0.00     0.252 S 
ATOM     49  C7  IDY d 142      32.619  -9.725 -23.086  0.00  0.00     0.007 C 
ATOM     50  O3  IDY d 142      28.836 -10.902 -21.527  0.00  0.00    -0.390 OA
ATOM     51  H   IDY d 142      29.256  -9.603 -23.542  0.00  0.00     0.097 H 
ATOM     52  H   IDY d 142      30.707  -9.294 -19.668  0.00  0.00     0.104 H 
ATOM     53  H   IDY d 142      30.947  -7.602 -22.862  0.00  0.00     0.133 H 
ATOM     54  H   IDY d 142      28.428  -9.606 -19.509  0.00  0.00     0.092 H 
ATOM     55  H   IDY d 142      27.414  -9.372 -21.755  0.00  0.00     0.091 H 
ATOM     56  H   IDY d 142      33.050  -9.824 -24.060  0.00  0.00     0.066 H 
ATOM     57  H   IDY d 142      32.350 -10.692 -22.714  0.00  0.00     0.066 H 
ATOM     58  H   IDY d 142      33.331  -9.276 -22.425  0.00  0.00     0.066 H 
ATOM     59  H   IDY d 142      29.790 -10.973 -21.367  0.00  0.00     0.210 HD
ENDROOT
TORSDOF 18
ENDMDL
MODEL 28
REMARK VINA RESULT:      -5.8      4.873      9.170
REMARK  0 active torsions:
REMARK  status: ('A' for Active; 'I' for Inactive)
REMARK       I    between atoms: S1_1  and  N_36 
REMARK       I    between atoms: S1_1  and  O1S_20 
REMARK       I    between atoms: S1_1  and  O2S_7 
REMARK       I    between atoms: S1_1  and  O3S_31 
REMARK       I    between atoms: C1_2  and  O4_21 
REMARK       I    between atoms: O6_4  and  C6_9 
REMARK       I    between atoms: C2_5  and  O2_18 
REMARK       I    between atoms: C5_6  and  C6_15 
REMARK       I    between atoms: C1_8  and  O1_27 
REMARK       I    between atoms: C6_9  and  C5_16 
REMARK       I    between atoms: S12_12  and  O3_28 
REMARK       I    between atoms: C4_17  and  O4_21 
REMARK       I    between atoms: O2_18  and  S_33 
REMARK       I    between atoms: C3_19  and  O3_28 
REMARK       I    between atoms: C4_23  and  O4_34 
REMARK       I    between atoms: C2_26  and  N_36 
REMARK       I    between atoms: O1_27  and  C7_35 
REMARK       I    between atoms: C3_32  and  O3_37 
ROOT
ATOM      1  S1  GNX d 141      25.746  -7.438 -20.822  0.00  0.00     0.156 S 
ATOM      2  C1  GNX d 141      26.901  -7.660 -17.434  0.00  0.00     0.150 C 
ATOM      3  O32 GNX d 141      27.955  -3.906 -20.760  0.00  0.00    -0.572 OA
ATOM      4  O6  GNX d 141      26.599  -6.785 -13.676  0.00  0.00    -0.398 OA
ATOM      5  O2S GNX d 141      26.374  -7.639 -22.124  0.00  0.00    -0.296 OA
ATOM      6  C6  GNX d 141      27.274  -5.734 -14.332  0.00  0.00     0.043 C 
ATOM      7  S12 GNX d 141      27.381  -3.152 -19.641  0.00  0.00     0.252 S 
ATOM      8  C5  GNX d 141      27.489  -6.104 -15.795  0.00  0.00     0.089 C 
ATOM      9  C3  GNX d 141      27.359  -5.303 -18.172  0.00  0.00     0.107 C 
ATOM     10  O1S GNX d 141      24.812  -6.316 -20.824  0.00  0.00    -0.296 OA
ATOM     11  C4  GNX d 141      27.223  -4.911 -16.704  0.00  0.00     0.090 C 
ATOM     12  O5  GNX d 141      26.626  -7.164 -16.143  0.00  0.00    -0.349 OA
ATOM     13  O12 GNX d 141      26.286  -2.282 -20.188  0.00  0.00    -0.572 OA
ATOM     14  C2  GNX d 141      26.589  -6.585 -18.468  0.00  0.00     0.083 C 
ATOM     15  O3  GNX d 141      26.867  -4.260 -18.983  0.00  0.00    -0.247 OA
ATOM     16  O22 GNX d 141      28.440  -2.269 -19.152  0.00  0.00    -0.572 OA
ATOM     17  O3S GNX d 141      25.125  -8.662 -20.323  0.00  0.00    -0.296 OA
ATOM     18  O4  GNX d 141      28.138  -3.880 -16.407  0.00  0.00    -0.390 OA
ATOM     19  N   GNX d 141      26.916  -7.064 -19.797  0.00  0.00    -0.210 NA
ATOM     20  H   GNX d 141      26.294  -8.521 -17.621  0.00  0.00     0.131 H 
ATOM     21  H   GNX d 141      26.462  -6.550 -12.745  0.00  0.00     0.209 HD
ATOM     22  H   GNX d 141      26.775  -6.808 -22.421  0.00  0.00     0.231 HD
ATOM     23  H   GNX d 141      28.221  -5.571 -13.863  0.00  0.00     0.078 H 
ATOM     24  H   GNX d 141      26.687  -4.841 -14.272  0.00  0.00     0.078 H 
ATOM     25  H   GNX d 141      28.507  -6.406 -15.922  0.00  0.00     0.090 H 
ATOM     26  H   GNX d 141      28.394  -5.474 -18.383  0.00  0.00     0.092 H 
ATOM     27  H   GNX d 141      25.258  -5.524 -21.161  0.00  0.00     0.231 HD
ATOM     28  H   GNX d 141      26.223  -4.572 -16.536  0.00  0.00     0.091 H 
ATOM     29  H   GNX d 141      25.542  -6.366 -18.420  0.00  0.00     0.076 H 
ATOM     30  H   GNX d 141      24.719  -8.490 -19.459  0.00  0.00     0.231 HD
ATOM     31  H   GNX d 141      29.042  -4.195 -16.562  0.00  0.00     0.210 HD
ATOM     32  H   GNX d 141      27.476  -6.336 -20.242  0.00  0.00     0.140 HD
ATOM     33  C2  IDY d 142      29.630  -9.744 -19.850  0.00  0.00     0.134 C 
ATOM     34  C5  IDY d 142      29.786  -9.782 -16.843  0.00  0.00     0.152 C 
ATOM     35  C1  IDY d 142      30.894  -9.965 -19.015  0.00  0.00     0.160 C 
ATOM     36  O5  IDY d 142      30.877  -9.424 -17.691  0.00  0.00    -0.340 OA
ATOM     37  O61 IDY d 142      29.656  -9.251 -14.477  0.00  0.00    -0.646 OA
ATOM     38  OS3 IDY d 142      31.784  -8.657 -21.732  0.00  0.00    -0.572 OA
ATOM     39  OS1 IDY d 142      30.487  -6.618 -21.879  0.00  0.00    -0.572 OA
ATOM     40  C6  IDY d 142      29.873  -8.819 -15.689  0.00  0.00     0.206 C 
ATOM     41  C4  IDY d 142      28.436  -9.610 -17.550  0.00  0.00     0.103 C 
ATOM     42  O2  IDY d 142      29.580  -8.443 -20.480  0.00  0.00    -0.244 OA
ATOM     43  O4  IDY d 142      28.262  -8.015 -17.521  0.00  0.00    -0.348 OA
ATOM     44  O62 IDY d 142      30.199  -7.615 -15.899  0.00  0.00    -0.646 OA
ATOM     45  O1  IDY d 142      31.944 -11.046 -19.523  0.00  0.00    -0.363 OA
ATOM     46  OS2 IDY d 142      29.693  -8.569 -22.984  0.00  0.00    -0.572 OA
ATOM     47  C3  IDY d 142      28.386 -10.074 -19.015  0.00  0.00     0.094 C 
ATOM     48  S   IDY d 142      30.386  -8.088 -21.767  0.00  0.00     0.252 S 
ATOM     49  C7  IDY d 142      32.418 -11.878 -19.336  0.00  0.00     0.007 C 
ATOM     50  O3  IDY d 142      28.186 -11.501 -19.061  0.00  0.00    -0.390 OA
ATOM     51  H   IDY d 142      29.655 -10.425 -20.675  0.00  0.00     0.097 H 
ATOM     52  H   IDY d 142      29.846 -10.809 -16.549  0.00  0.00     0.104 H 
ATOM     53  H   IDY d 142      31.667  -9.273 -19.278  0.00  0.00     0.133 H 
ATOM     54  H   IDY d 142      27.684 -10.199 -17.068  0.00  0.00     0.092 H 
ATOM     55  H   IDY d 142      27.575  -9.528 -19.448  0.00  0.00     0.091 H 
ATOM     56  H   IDY d 142      33.059 -12.116 -20.159  0.00  0.00     0.066 H 
ATOM     57  H   IDY d 142      31.710 -12.669 -19.195  0.00  0.00     0.066 H 
ATOM     58  H   IDY d 142      33.004 -11.763 -18.448  0.00  0.00     0.066 H 
ATOM     59  H   IDY d 142      28.946 -11.947 -18.657  0.00  0.00     0.210 HD
ENDROOT
TORSDOF 18
ENDMDL
MODEL 29
REMARK VINA RESULT:      -5.8      3.175      7.141
REMARK  0 active torsions:
REMARK  status: ('A' for Active; 'I' for Inactive)
REMARK       I    between atoms: S1_1  and  N_36 
REMARK       I    between atoms: S1_1  and  O1S_20 
REMARK       I    between atoms: S1_1  and  O2S_7 
REMARK       I    between atoms: S1_1  and  O3S_31 
REMARK       I    between atoms: C1_2  and  O4_21 
REMARK       I    between atoms: O6_4  and  C6_9 
REMARK       I    between atoms: C2_5  and  O2_18 
REMARK       I    between atoms: C5_6  and  C6_15 
REMARK       I    between atoms: C1_8  and  O1_27 
REMARK       I    between atoms: C6_9  and  C5_16 
REMARK       I    between atoms: S12_12  and  O3_28 
REMARK       I    between atoms: C4_17  and  O4_21 
REMARK       I    between atoms: O2_18  and  S_33 
REMARK       I    between atoms: C3_19  and  O3_28 
REMARK       I    between atoms: C4_23  and  O4_34 
REMARK       I    between atoms: C2_26  and  N_36 
REMARK       I    between atoms: O1_27  and  C7_35 
REMARK       I    between atoms: C3_32  and  O3_37 
ROOT
ATOM      1  S1  GNX d 141      28.461  -4.983 -20.357  0.00  0.00     0.156 S 
ATOM      2  C1  GNX d 141      29.342  -6.829 -23.302  0.00  0.00     0.150 C 
ATOM      3  O32 GNX d 141      24.879  -7.067 -20.794  0.00  0.00    -0.572 OA
ATOM      4  O6  GNX d 141      29.345  -7.303 -27.143  0.00  0.00    -0.398 OA
ATOM      5  O2S GNX d 141      28.323  -5.328 -18.946  0.00  0.00    -0.296 OA
ATOM      6  C6  GNX d 141      28.129  -7.799 -26.627  0.00  0.00     0.043 C 
ATOM      7  S12 GNX d 141      24.436  -6.722 -22.148  0.00  0.00     0.252 S 
ATOM      8  C5  GNX d 141      28.150  -7.711 -25.106  0.00  0.00     0.089 C 
ATOM      9  C3  GNX d 141      26.854  -7.064 -23.054  0.00  0.00     0.107 C 
ATOM     10  O1S GNX d 141      27.437  -4.041 -20.801  0.00  0.00    -0.296 OA
ATOM     11  C4  GNX d 141      26.807  -7.230 -24.569  0.00  0.00     0.090 C 
ATOM     12  O5  GNX d 141      29.166  -6.820 -24.701  0.00  0.00    -0.349 OA
ATOM     13  O12 GNX d 141      23.548  -5.515 -22.046  0.00  0.00    -0.572 OA
ATOM     14  C2  GNX d 141      28.090  -6.280 -22.628  0.00  0.00     0.083 C 
ATOM     15  O3  GNX d 141      25.695  -6.386 -22.621  0.00  0.00    -0.247 OA
ATOM     16  O22 GNX d 141      23.608  -7.838 -22.608  0.00  0.00    -0.572 OA
ATOM     17  O3S GNX d 141      29.807  -4.511 -20.673  0.00  0.00    -0.296 OA
ATOM     18  O4  GNX d 141      25.804  -8.161 -24.909  0.00  0.00    -0.390 OA
ATOM     19  N   GNX d 141      28.238  -6.332 -21.187  0.00  0.00    -0.210 NA
ATOM     20  H   GNX d 141      30.183  -6.219 -23.046  0.00  0.00     0.131 H 
ATOM     21  H   GNX d 141      29.332  -7.360 -28.112  0.00  0.00     0.209 HD
ATOM     22  H   GNX d 141      27.419  -5.635 -18.775  0.00  0.00     0.231 HD
ATOM     23  H   GNX d 141      28.005  -8.820 -26.924  0.00  0.00     0.078 H 
ATOM     24  H   GNX d 141      27.316  -7.216 -27.008  0.00  0.00     0.078 H 
ATOM     25  H   GNX d 141      28.341  -8.687 -24.712  0.00  0.00     0.090 H 
ATOM     26  H   GNX d 141      26.898  -8.035 -22.607  0.00  0.00     0.092 H 
ATOM     27  H   GNX d 141      26.560  -4.387 -20.575  0.00  0.00     0.231 HD
ATOM     28  H   GNX d 141      26.587  -6.279 -25.007  0.00  0.00     0.091 H 
ATOM     29  H   GNX d 141      27.965  -5.262 -22.933  0.00  0.00     0.076 H 
ATOM     30  H   GNX d 141      29.860  -4.292 -21.616  0.00  0.00     0.231 HD
ATOM     31  H   GNX d 141      26.011  -9.019 -24.508  0.00  0.00     0.210 HD
ATOM     32  H   GNX d 141      27.392  -6.768 -20.819  0.00  0.00     0.140 HD
ATOM     33  C2  IDY d 142      30.637  -9.041 -19.975  0.00  0.00     0.134 C 
ATOM     34  C5  IDY d 142      31.328  -9.826 -22.799  0.00  0.00     0.152 C 
ATOM     35  C1  IDY d 142      30.945 -10.456 -20.468  0.00  0.00     0.160 C 
ATOM     36  O5  IDY d 142      30.713 -10.706 -21.857  0.00  0.00    -0.340 OA
ATOM     37  O61 IDY d 142      31.345 -10.184 -25.200  0.00  0.00    -0.646 OA
ATOM     38  OS3 IDY d 142      29.007 -10.722 -18.006  0.00  0.00    -0.572 OA
ATOM     39  OS1 IDY d 142      27.086  -9.373 -18.596  0.00  0.00    -0.572 OA
ATOM     40  C6  IDY d 142      30.640 -10.130 -24.103  0.00  0.00     0.206 C 
ATOM     41  C4  IDY d 142      31.102  -8.354 -22.435  0.00  0.00     0.103 C 
ATOM     42  O2  IDY d 142      29.236  -8.827 -19.687  0.00  0.00    -0.244 OA
ATOM     43  O4  IDY d 142      29.570  -8.150 -22.866  0.00  0.00    -0.348 OA
ATOM     44  O62 IDY d 142      29.399 -10.375 -24.118  0.00  0.00    -0.646 OA
ATOM     45  O1  IDY d 142      31.808 -11.402 -19.524  0.00  0.00    -0.363 OA
ATOM     46  OS2 IDY d 142      28.796  -8.413 -17.250  0.00  0.00    -0.572 OA
ATOM     47  C3  IDY d 142      31.232  -8.009 -20.942  0.00  0.00     0.094 C 
ATOM     48  S   IDY d 142      28.548  -9.335 -18.382  0.00  0.00     0.252 S 
ATOM     49  C7  IDY d 142      32.624 -11.926 -19.416  0.00  0.00     0.007 C 
ATOM     50  O3  IDY d 142      32.625  -7.839 -20.608  0.00  0.00    -0.390 OA
ATOM     51  H   IDY d 142      31.115  -8.909 -19.027  0.00  0.00     0.097 H 
ATOM     52  H   IDY d 142      32.388  -9.973 -22.829  0.00  0.00     0.104 H 
ATOM     53  H   IDY d 142      30.158 -11.140 -20.223  0.00  0.00     0.133 H 
ATOM     54  H   IDY d 142      31.836  -7.735 -22.907  0.00  0.00     0.092 H 
ATOM     55  H   IDY d 142      30.664  -7.111 -20.817  0.00  0.00     0.091 H 
ATOM     56  H   IDY d 142      32.627 -12.386 -18.450  0.00  0.00     0.066 H 
ATOM     57  H   IDY d 142      33.475 -11.283 -19.508  0.00  0.00     0.066 H 
ATOM     58  H   IDY d 142      32.666 -12.683 -20.171  0.00  0.00     0.066 H 
ATOM     59  H   IDY d 142      33.093  -8.678 -20.738  0.00  0.00     0.210 HD
ENDROOT
TORSDOF 18
ENDMDL
MODEL 30
REMARK VINA RESULT:      -5.7      2.414      4.987
REMARK  0 active torsions:
REMARK  status: ('A' for Active; 'I' for Inactive)
REMARK       I    between atoms: S1_1  and  N_36 
REMARK       I    between atoms: S1_1  and  O1S_20 
REMARK       I    between atoms: S1_1  and  O2S_7 
REMARK       I    between atoms: S1_1  and  O3S_31 
REMARK       I    between atoms: C1_2  and  O4_21 
REMARK       I    between atoms: O6_4  and  C6_9 
REMARK       I    between atoms: C2_5  and  O2_18 
REMARK       I    between atoms: C5_6  and  C6_15 
REMARK       I    between atoms: C1_8  and  O1_27 
REMARK       I    between atoms: C6_9  and  C5_16 
REMARK       I    between atoms: S12_12  and  O3_28 
REMARK       I    between atoms: C4_17  and  O4_21 
REMARK       I    between atoms: O2_18  and  S_33 
REMARK       I    between atoms: C3_19  and  O3_28 
REMARK       I    between atoms: C4_23  and  O4_34 
REMARK       I    between atoms: C2_26  and  N_36 
REMARK       I    between atoms: O1_27  and  C7_35 
REMARK       I    between atoms: C3_32  and  O3_37 
ROOT
ATOM      1  S1  GNX d 141      25.594  -9.053 -21.338  0.00  0.00     0.156 S 
ATOM      2  C1  GNX d 141      24.210  -5.836 -22.108  0.00  0.00     0.150 C 
ATOM      3  O32 GNX d 141      26.747  -8.900 -25.340  0.00  0.00    -0.572 OA
ATOM      4  O6  GNX d 141      21.375  -3.601 -23.502  0.00  0.00    -0.398 OA
ATOM      5  O2S GNX d 141      26.949  -9.549 -21.116  0.00  0.00    -0.296 OA
ATOM      6  C6  GNX d 141      22.181  -4.032 -24.577  0.00  0.00     0.043 C 
ATOM      7  S12 GNX d 141      25.486  -8.694 -26.060  0.00  0.00     0.252 S 
ATOM      8  C5  GNX d 141      23.360  -4.833 -24.037  0.00  0.00     0.089 C 
ATOM      9  C3  GNX d 141      24.752  -6.905 -24.315  0.00  0.00     0.107 C 
ATOM     10  O1S GNX d 141      24.772 -10.001 -22.086  0.00  0.00    -0.296 OA
ATOM     11  C4  GNX d 141      23.626  -6.060 -24.900  0.00  0.00     0.090 C 
ATOM     12  O5  GNX d 141      23.087  -5.238 -22.714  0.00  0.00    -0.349 OA
ATOM     13  O12 GNX d 141      24.940 -10.045 -26.424  0.00  0.00    -0.572 OA
ATOM     14  C2  GNX d 141      24.540  -7.140 -22.824  0.00  0.00     0.083 C 
ATOM     15  O3  GNX d 141      24.805  -8.145 -24.984  0.00  0.00    -0.247 OA
ATOM     16  O22 GNX d 141      25.831  -8.009 -27.306  0.00  0.00    -0.572 OA
ATOM     17  O3S GNX d 141      24.954  -8.644 -20.091  0.00  0.00    -0.296 OA
ATOM     18  O4  GNX d 141      23.974  -5.652 -26.204  0.00  0.00    -0.390 OA
ATOM     19  N   GNX d 141      25.725  -7.740 -22.243  0.00  0.00    -0.210 NA
ATOM     20  H   GNX d 141      23.994  -6.038 -21.079  0.00  0.00     0.131 H 
ATOM     21  H   GNX d 141      20.625  -3.090 -23.845  0.00  0.00     0.209 HD
ATOM     22  H   GNX d 141      27.340  -9.811 -21.964  0.00  0.00     0.231 HD
ATOM     23  H   GNX d 141      22.544  -3.181 -25.114  0.00  0.00     0.078 H 
ATOM     24  H   GNX d 141      21.601  -4.647 -25.233  0.00  0.00     0.078 H 
ATOM     25  H   GNX d 141      24.230  -4.211 -24.057  0.00  0.00     0.090 H 
ATOM     26  H   GNX d 141      25.675  -6.379 -24.446  0.00  0.00     0.092 H 
ATOM     27  H   GNX d 141      25.228 -10.249 -22.905  0.00  0.00     0.231 HD
ATOM     28  H   GNX d 141      22.737  -6.655 -24.929  0.00  0.00     0.091 H 
ATOM     29  H   GNX d 141      23.712  -7.807 -22.703  0.00  0.00     0.076 H 
ATOM     30  H   GNX d 141      24.058  -8.321 -20.278  0.00  0.00     0.231 HD
ATOM     31  H   GNX d 141      24.781  -5.114 -26.170  0.00  0.00     0.210 HD
ATOM     32  H   GNX d 141      26.345  -7.977 -23.018  0.00  0.00     0.140 HD
ATOM     33  C2  IDY d 142      28.082  -5.231 -20.599  0.00  0.00     0.134 C 
ATOM     34  C5  IDY d 142      26.196  -2.950 -21.154  0.00  0.00     0.152 C 
ATOM     35  C1  IDY d 142      28.480  -3.794 -20.945  0.00  0.00     0.160 C 
ATOM     36  O5  IDY d 142      27.519  -3.033 -21.681  0.00  0.00    -0.340 OA
ATOM     37  O61 IDY d 142      24.457  -1.500 -22.032  0.00  0.00    -0.646 OA
ATOM     38  OS3 IDY d 142      30.788  -5.676 -21.957  0.00  0.00    -0.572 OA
ATOM     39  OS1 IDY d 142      29.684  -7.260 -23.417  0.00  0.00    -0.572 OA
ATOM     40  C6  IDY d 142      25.372  -2.395 -22.286  0.00  0.00     0.206 C 
ATOM     41  C4  IDY d 142      25.653  -4.329 -20.759  0.00  0.00     0.103 C 
ATOM     42  O2  IDY d 142      28.307  -6.164 -21.681  0.00  0.00    -0.244 OA
ATOM     43  O4  IDY d 142      25.312  -4.961 -22.193  0.00  0.00    -0.348 OA
ATOM     44  O62 IDY d 142      25.605  -2.765 -23.473  0.00  0.00    -0.646 OA
ATOM     45  O1  IDY d 142      29.723  -3.161 -20.180  0.00  0.00    -0.363 OA
ATOM     46  OS2 IDY d 142      30.075  -7.864 -21.149  0.00  0.00    -0.572 OA
ATOM     47  C3  IDY d 142      26.651  -5.258 -20.048  0.00  0.00     0.094 C 
ATOM     48  S   IDY d 142      29.715  -6.733 -22.036  0.00  0.00     0.252 S 
ATOM     49  C7  IDY d 142      30.048  -2.455 -19.590  0.00  0.00     0.007 C 
ATOM     50  O3  IDY d 142      26.708  -4.921 -18.647  0.00  0.00    -0.390 OA
ATOM     51  H   IDY d 142      28.734  -5.578 -19.825  0.00  0.00     0.097 H 
ATOM     52  H   IDY d 142      26.169  -2.348 -20.270  0.00  0.00     0.104 H 
ATOM     53  H   IDY d 142      29.140  -3.759 -21.787  0.00  0.00     0.133 H 
ATOM     54  H   IDY d 142      24.851  -4.229 -20.058  0.00  0.00     0.092 H 
ATOM     55  H   IDY d 142      26.277  -6.246 -20.220  0.00  0.00     0.091 H 
ATOM     56  H   IDY d 142      31.097  -2.584 -19.424  0.00  0.00     0.066 H 
ATOM     57  H   IDY d 142      29.530  -2.506 -18.654  0.00  0.00     0.066 H 
ATOM     58  H   IDY d 142      29.873  -1.502 -20.042  0.00  0.00     0.066 H 
ATOM     59  H   IDY d 142      27.052  -4.020 -18.545  0.00  0.00     0.210 HD
ENDROOT
TORSDOF 18
ENDMDL
MODEL 31
REMARK VINA RESULT:      -5.7      3.320      6.706
REMARK  0 active torsions:
REMARK  status: ('A' for Active; 'I' for Inactive)
REMARK       I    between atoms: S1_1  and  N_36 
REMARK       I    between atoms: S1_1  and  O1S_20 
REMARK       I    between atoms: S1_1  and  O2S_7 
REMARK       I    between atoms: S1_1  and  O3S_31 
REMARK       I    between atoms: C1_2  and  O4_21 
REMARK       I    between atoms: O6_4  and  C6_9 
REMARK       I    between atoms: C2_5  and  O2_18 
REMARK       I    between atoms: C5_6  and  C6_15 
REMARK       I    between atoms: C1_8  and  O1_27 
REMARK       I    between atoms: C6_9  and  C5_16 
REMARK       I    between atoms: S12_12  and  O3_28 
REMARK       I    between atoms: C4_17  and  O4_21 
REMARK       I    between atoms: O2_18  and  S_33 
REMARK       I    between atoms: C3_19  and  O3_28 
REMARK       I    between atoms: C4_23  and  O4_34 
REMARK       I    between atoms: C2_26  and  N_36 
REMARK       I    between atoms: O1_27  and  C7_35 
REMARK       I    between atoms: C3_32  and  O3_37 
ROOT
ATOM      1  S1  GNX d 141      24.915  -3.321 -20.114  0.00  0.00     0.156 S 
ATOM      2  C1  GNX d 141      25.867  -6.611 -19.050  0.00  0.00     0.150 C 
ATOM      3  O32 GNX d 141      29.042  -2.748 -20.175  0.00  0.00    -0.572 OA
ATOM      4  O6  GNX d 141      26.900  -9.127 -16.297  0.00  0.00    -0.398 OA
ATOM      5  O2S GNX d 141      24.944  -2.619 -21.394  0.00  0.00    -0.296 OA
ATOM      6  C6  GNX d 141      28.046  -8.422 -16.719  0.00  0.00     0.043 C 
ATOM      7  S12 GNX d 141      29.463  -3.085 -18.811  0.00  0.00     0.252 S 
ATOM      8  C5  GNX d 141      27.677  -7.496 -17.872  0.00  0.00     0.089 C 
ATOM      9  C3  GNX d 141      27.924  -5.187 -18.830  0.00  0.00     0.107 C 
ATOM     10  O1S GNX d 141      25.271  -2.451 -18.997  0.00  0.00    -0.296 OA
ATOM     11  C4  GNX d 141      28.357  -6.140 -17.722  0.00  0.00     0.090 C 
ATOM     12  O5  GNX d 141      26.279  -7.320 -17.904  0.00  0.00    -0.349 OA
ATOM     13  O12 GNX d 141      29.450  -1.821 -18.001  0.00  0.00    -0.572 OA
ATOM     14  C2  GNX d 141      26.408  -5.187 -18.989  0.00  0.00     0.083 C 
ATOM     15  O3  GNX d 141      28.365  -3.882 -18.525  0.00  0.00    -0.247 OA
ATOM     16  O22 GNX d 141      30.854  -3.531 -18.908  0.00  0.00    -0.572 OA
ATOM     17  O3S GNX d 141      23.639  -3.996 -19.893  0.00  0.00    -0.296 OA
ATOM     18  O4  GNX d 141      29.756  -6.308 -17.766  0.00  0.00    -0.390 OA
ATOM     19  N   GNX d 141      26.035  -4.461 -20.187  0.00  0.00    -0.210 NA
ATOM     20  H   GNX d 141      24.797  -6.585 -19.088  0.00  0.00     0.131 H 
ATOM     21  H   GNX d 141      27.134  -9.716 -15.564  0.00  0.00     0.209 HD
ATOM     22  H   GNX d 141      25.803  -2.185 -21.505  0.00  0.00     0.231 HD
ATOM     23  H   GNX d 141      28.792  -9.116 -17.045  0.00  0.00     0.078 H 
ATOM     24  H   GNX d 141      28.430  -7.843 -15.904  0.00  0.00     0.078 H 
ATOM     25  H   GNX d 141      28.011  -7.941 -18.785  0.00  0.00     0.090 H 
ATOM     26  H   GNX d 141      28.361  -5.515 -19.750  0.00  0.00     0.092 H 
ATOM     27  H   GNX d 141      26.121  -2.021 -19.180  0.00  0.00     0.231 HD
ATOM     28  H   GNX d 141      28.069  -5.719 -16.781  0.00  0.00     0.091 H 
ATOM     29  H   GNX d 141      25.980  -4.703 -18.136  0.00  0.00     0.076 H 
ATOM     30  H   GNX d 141      23.658  -4.450 -19.036  0.00  0.00     0.231 HD
ATOM     31  H   GNX d 141      30.009  -6.690 -18.621  0.00  0.00     0.210 HD
ATOM     32  H   GNX d 141      26.884  -4.018 -20.540  0.00  0.00     0.140 HD
ATOM     33  C2  IDY d 142      25.457  -6.690 -23.229  0.00  0.00     0.134 C 
ATOM     34  C5  IDY d 142      25.923  -9.185 -21.609  0.00  0.00     0.152 C 
ATOM     35  C1  IDY d 142      26.128  -7.974 -23.723  0.00  0.00     0.160 C 
ATOM     36  O5  IDY d 142      26.731  -8.797 -22.720  0.00  0.00    -0.340 OA
ATOM     37  O61 IDY d 142      26.592 -10.802 -19.926  0.00  0.00    -0.646 OA
ATOM     38  OS3 IDY d 142      27.329  -5.590 -25.386  0.00  0.00    -0.572 OA
ATOM     39  OS1 IDY d 142      28.189  -4.059 -23.720  0.00  0.00    -0.572 OA
ATOM     40  C6  IDY d 142      26.902  -9.731 -20.604  0.00  0.00     0.206 C 
ATOM     41  C4  IDY d 142      25.181  -7.990 -21.000  0.00  0.00     0.103 C 
ATOM     42  O2  IDY d 142      26.387  -5.601 -23.023  0.00  0.00    -0.244 OA
ATOM     43  O4  IDY d 142      26.362  -7.252 -20.204  0.00  0.00    -0.348 OA
ATOM     44  O62 IDY d 142      28.029  -9.176 -20.458  0.00  0.00    -0.646 OA
ATOM     45  O1  IDY d 142      25.804  -8.463 -25.201  0.00  0.00    -0.363 OA
ATOM     46  OS2 IDY d 142      26.013  -3.690 -24.608  0.00  0.00    -0.572 OA
ATOM     47  C3  IDY d 142      24.582  -6.994 -22.006  0.00  0.00     0.094 C 
ATOM     48  S   IDY d 142      26.966  -4.744 -24.190  0.00  0.00     0.252 S 
ATOM     49  C7  IDY d 142      25.437  -9.168 -25.768  0.00  0.00     0.007 C 
ATOM     50  O3  IDY d 142      23.314  -7.492 -22.480  0.00  0.00    -0.390 OA
ATOM     51  H   IDY d 142      24.814  -6.333 -24.006  0.00  0.00     0.097 H 
ATOM     52  H   IDY d 142      25.174  -9.890 -21.904  0.00  0.00     0.104 H 
ATOM     53  H   IDY d 142      27.098  -7.780 -24.134  0.00  0.00     0.133 H 
ATOM     54  H   IDY d 142      24.336  -8.324 -20.435  0.00  0.00     0.092 H 
ATOM     55  H   IDY d 142      24.489  -6.077 -21.463  0.00  0.00     0.091 H 
ATOM     56  H   IDY d 142      25.509  -8.873 -26.794  0.00  0.00     0.066 H 
ATOM     57  H   IDY d 142      24.411  -9.333 -25.515  0.00  0.00     0.066 H 
ATOM     58  H   IDY d 142      25.991 -10.071 -25.618  0.00  0.00     0.066 H 
ATOM     59  H   IDY d 142      23.454  -8.321 -22.964  0.00  0.00     0.210 HD
ENDROOT
TORSDOF 18
ENDMDL
MODEL 32
REMARK VINA RESULT:      -5.7      2.226      2.887
REMARK  0 active torsions:
REMARK  status: ('A' for Active; 'I' for Inactive)
REMARK       I    between atoms: S1_1  and  N_36 
REMARK       I    between atoms: S1_1  and  O1S_20 
REMARK       I    between atoms: S1_1  and  O2S_7 
REMARK       I    between atoms: S1_1  and  O3S_31 
REMARK       I    between atoms: C1_2  and  O4_21 
REMARK       I    between atoms: O6_4  and  C6_9 
REMARK       I    between atoms: C2_5  and  O2_18 
REMARK       I    between atoms: C5_6  and  C6_15 
REMARK       I    between atoms: C1_8  and  O1_27 
REMARK       I    between atoms: C6_9  and  C5_16 
REMARK       I    between atoms: S12_12  and  O3_28 
REMARK       I    between atoms: C4_17  and  O4_21 
REMARK       I    between atoms: O2_18  and  S_33 
REMARK       I    between atoms: C3_19  and  O3_28 
REMARK       I    between atoms: C4_23  and  O4_34 
REMARK       I    between atoms: C2_26  and  N_36 
REMARK       I    between atoms: O1_27  and  C7_35 
REMARK       I    between atoms: C3_32  and  O3_37 
ROOT
ATOM      1  S1  GNX d 141      27.385  -9.839 -19.958  0.00  0.00     0.156 S 
ATOM      2  C1  GNX d 141      27.541  -8.847 -23.401  0.00  0.00     0.150 C 
ATOM      3  O32 GNX d 141      30.821  -7.496 -19.701  0.00  0.00    -0.572 OA
ATOM      4  O6  GNX d 141      28.880  -9.282 -27.006  0.00  0.00    -0.398 OA
ATOM      5  O2S GNX d 141      27.004  -9.161 -18.722  0.00  0.00    -0.296 OA
ATOM      6  C6  GNX d 141      29.819  -8.537 -26.262  0.00  0.00     0.043 C 
ATOM      7  S12 GNX d 141      31.725  -8.090 -20.691  0.00  0.00     0.252 S 
ATOM      8  C5  GNX d 141      29.265  -8.271 -24.867  0.00  0.00     0.089 C 
ATOM      9  C3  GNX d 141      29.773  -8.263 -22.407  0.00  0.00     0.107 C 
ATOM     10  O1S GNX d 141      28.529 -10.727 -19.774  0.00  0.00    -0.296 OA
ATOM     11  C4  GNX d 141      30.346  -8.448 -23.807  0.00  0.00     0.090 C 
ATOM     12  O5  GNX d 141      28.201  -9.159 -24.607  0.00  0.00    -0.349 OA
ATOM     13  O12 GNX d 141      32.558  -9.123 -19.989  0.00  0.00    -0.572 OA
ATOM     14  C2  GNX d 141      28.491  -9.069 -22.230  0.00  0.00     0.083 C 
ATOM     15  O3  GNX d 141      30.725  -8.676 -21.452  0.00  0.00    -0.247 OA
ATOM     16  O22 GNX d 141      32.625  -7.019 -21.122  0.00  0.00    -0.572 OA
ATOM     17  O3S GNX d 141      26.253 -10.530 -20.570  0.00  0.00    -0.296 OA
ATOM     18  O4  GNX d 141      31.374  -7.508 -24.023  0.00  0.00    -0.390 OA
ATOM     19  N   GNX d 141      27.842  -8.702 -20.986  0.00  0.00    -0.210 NA
ATOM     20  H   GNX d 141      26.684  -9.478 -23.289  0.00  0.00     0.131 H 
ATOM     21  H   GNX d 141      29.232  -9.451 -27.893  0.00  0.00     0.209 HD
ATOM     22  H   GNX d 141      27.779  -8.715 -18.346  0.00  0.00     0.231 HD
ATOM     23  H   GNX d 141      30.006  -7.606 -26.754  0.00  0.00     0.078 H 
ATOM     24  H   GNX d 141      30.732  -9.089 -26.184  0.00  0.00     0.078 H 
ATOM     25  H   GNX d 141      28.916  -7.261 -24.827  0.00  0.00     0.090 H 
ATOM     26  H   GNX d 141      29.542  -7.226 -22.269  0.00  0.00     0.092 H 
ATOM     27  H   GNX d 141      29.258 -10.234 -19.367  0.00  0.00     0.231 HD
ATOM     28  H   GNX d 141      30.737  -9.441 -23.884  0.00  0.00     0.091 H 
ATOM     29  H   GNX d 141      28.749 -10.107 -22.199  0.00  0.00     0.076 H 
ATOM     30  H   GNX d 141      26.543 -10.966 -21.386  0.00  0.00     0.231 HD
ATOM     31  H   GNX d 141      31.012  -6.611 -23.952  0.00  0.00     0.210 HD
ATOM     32  H   GNX d 141      28.490  -8.094 -20.484  0.00  0.00     0.140 HD
ATOM     33  C2  IDY d 142      25.085  -6.096 -21.391  0.00  0.00     0.134 C 
ATOM     34  C5  IDY d 142      25.411  -6.077 -24.385  0.00  0.00     0.152 C 
ATOM     35  C1  IDY d 142      24.926  -4.882 -22.308  0.00  0.00     0.160 C 
ATOM     36  O5  IDY d 142      25.625  -4.936 -23.555  0.00  0.00    -0.340 OA
ATOM     37  O61 IDY d 142      26.231  -6.292 -26.660  0.00  0.00    -0.646 OA
ATOM     38  OS3 IDY d 142      25.860  -3.820 -19.500  0.00  0.00    -0.572 OA
ATOM     39  OS1 IDY d 142      27.908  -5.026 -19.044  0.00  0.00    -0.572 OA
ATOM     40  C6  IDY d 142      26.504  -6.004 -25.417  0.00  0.00     0.206 C 
ATOM     41  C4  IDY d 142      25.541  -7.386 -23.597  0.00  0.00     0.103 C 
ATOM     42  O2  IDY d 142      26.300  -6.067 -20.607  0.00  0.00    -0.244 OA
ATOM     43  O4  IDY d 142      27.132  -7.498 -23.424  0.00  0.00    -0.348 OA
ATOM     44  O62 IDY d 142      27.662  -5.621 -25.080  0.00  0.00    -0.646 OA
ATOM     45  O1  IDY d 142      23.755  -3.854 -21.987  0.00  0.00    -0.363 OA
ATOM     46  OS2 IDY d 142      25.864  -5.847 -18.145  0.00  0.00    -0.572 OA
ATOM     47  C3  IDY d 142      24.903  -7.389 -22.198  0.00  0.00     0.094 C 
ATOM     48  S   IDY d 142      26.467  -5.190 -19.328  0.00  0.00     0.252 S 
ATOM     49  C7  IDY d 142      22.937  -3.422 -22.296  0.00  0.00     0.007 C 
ATOM     50  O3  IDY d 142      23.488  -7.644 -22.315  0.00  0.00    -0.390 OA
ATOM     51  H   IDY d 142      24.307  -6.061 -20.657  0.00  0.00     0.097 H 
ATOM     52  H   IDY d 142      24.426  -6.071 -24.804  0.00  0.00     0.104 H 
ATOM     53  H   IDY d 142      25.553  -4.070 -22.002  0.00  0.00     0.133 H 
ATOM     54  H   IDY d 142      25.041  -8.182 -24.109  0.00  0.00     0.092 H 
ATOM     55  H   IDY d 142      25.419  -8.157 -21.662  0.00  0.00     0.091 H 
ATOM     56  H   IDY d 142      22.578  -2.754 -21.541  0.00  0.00     0.066 H 
ATOM     57  H   IDY d 142      22.194  -4.166 -22.496  0.00  0.00     0.066 H 
ATOM     58  H   IDY d 142      23.139  -2.872 -23.191  0.00  0.00     0.066 H 
ATOM     59  H   IDY d 142      23.069  -6.920 -22.807  0.00  0.00     0.210 HD
ENDROOT
TORSDOF 18
ENDMDL
MODEL 33
REMARK VINA RESULT:      -5.7      3.223      5.135
REMARK  0 active torsions:
REMARK  status: ('A' for Active; 'I' for Inactive)
REMARK       I    between atoms: S1_1  and  N_36 
REMARK       I    between atoms: S1_1  and  O1S_20 
REMARK       I    between atoms: S1_1  and  O2S_7 
REMARK       I    between atoms: S1_1  and  O3S_31 
REMARK       I    between atoms: C1_2  and  O4_21 
REMARK       I    between atoms: O6_4  and  C6_9 
REMARK       I    between atoms: C2_5  and  O2_18 
REMARK       I    between atoms: C5_6  and  C6_15 
REMARK       I    between atoms: C1_8  and  O1_27 
REMARK       I    between atoms: C6_9  and  C5_16 
REMARK       I    between atoms: S12_12  and  O3_28 
REMARK       I    between atoms: C4_17  and  O4_21 
REMARK       I    between atoms: O2_18  and  S_33 
REMARK       I    between atoms: C3_19  and  O3_28 
REMARK       I    between atoms: C4_23  and  O4_34 
REMARK       I    between atoms: C2_26  and  N_36 
REMARK       I    between atoms: O1_27  and  C7_35 
REMARK       I    between atoms: C3_32  and  O3_37 
ROOT
ATOM      1  S1  GNX d 141      27.792  -4.432 -17.869  0.00  0.00     0.156 S 
ATOM      2  C1  GNX d 141      26.801  -7.599 -19.227  0.00  0.00     0.150 C 
ATOM      3  O32 GNX d 141      31.386  -5.371 -19.757  0.00  0.00    -0.572 OA
ATOM      4  O6  GNX d 141      26.617 -11.461 -19.060  0.00  0.00    -0.398 OA
ATOM      5  O2S GNX d 141      28.006  -3.105 -18.439  0.00  0.00    -0.296 OA
ATOM      6  C6  GNX d 141      27.866 -11.091 -19.602  0.00  0.00     0.043 C 
ATOM      7  S12 GNX d 141      31.755  -6.668 -19.181  0.00  0.00     0.252 S 
ATOM      8  C5  GNX d 141      27.919  -9.577 -19.766  0.00  0.00     0.089 C 
ATOM      9  C3  GNX d 141      29.302  -7.507 -19.433  0.00  0.00     0.107 C 
ATOM     10  O1S GNX d 141      28.775  -4.759 -16.840  0.00  0.00    -0.296 OA
ATOM     11  C4  GNX d 141      29.277  -9.029 -19.345  0.00  0.00     0.090 C 
ATOM     12  O5  GNX d 141      26.908  -8.983 -18.982  0.00  0.00    -0.349 OA
ATOM     13  O12 GNX d 141      32.625  -6.408 -17.985  0.00  0.00    -0.572 OA
ATOM     14  C2  GNX d 141      28.074  -6.901 -18.763  0.00  0.00     0.083 C 
ATOM     15  O3  GNX d 141      30.468  -7.020 -18.806  0.00  0.00    -0.247 OA
ATOM     16  O22 GNX d 141      32.580  -7.344 -20.184  0.00  0.00    -0.572 OA
ATOM     17  O3S GNX d 141      26.424  -4.602 -17.387  0.00  0.00    -0.296 OA
ATOM     18  O4  GNX d 141      30.279  -9.564 -20.181  0.00  0.00    -0.390 OA
ATOM     19  N   GNX d 141      27.998  -5.483 -19.057  0.00  0.00    -0.210 NA
ATOM     20  H   GNX d 141      25.963  -7.206 -18.689  0.00  0.00     0.131 H 
ATOM     21  H   GNX d 141      26.583 -12.425 -18.955  0.00  0.00     0.209 HD
ATOM     22  H   GNX d 141      28.923  -3.029 -18.746  0.00  0.00     0.231 HD
ATOM     23  H   GNX d 141      27.994 -11.558 -20.556  0.00  0.00     0.078 H 
ATOM     24  H   GNX d 141      28.648 -11.406 -18.943  0.00  0.00     0.078 H 
ATOM     25  H   GNX d 141      27.766  -9.342 -20.799  0.00  0.00     0.090 H 
ATOM     26  H   GNX d 141      29.298  -7.226 -20.466  0.00  0.00     0.092 H 
ATOM     27  H   GNX d 141      29.669  -4.634 -17.195  0.00  0.00     0.231 HD
ATOM     28  H   GNX d 141      29.457  -9.313 -18.330  0.00  0.00     0.091 H 
ATOM     29  H   GNX d 141      28.165  -7.038 -17.706  0.00  0.00     0.076 H 
ATOM     30  H   GNX d 141      26.320  -5.493 -17.017  0.00  0.00     0.231 HD
ATOM     31  H   GNX d 141      30.109  -9.303 -21.099  0.00  0.00     0.210 HD
ATOM     32  H   GNX d 141      28.870  -5.232 -19.525  0.00  0.00     0.140 HD
ATOM     33  C2  IDY d 142      25.713  -4.630 -21.991  0.00  0.00     0.134 C 
ATOM     34  C5  IDY d 142      24.898  -7.510 -22.318  0.00  0.00     0.152 C 
ATOM     35  C1  IDY d 142      25.408  -5.337 -23.313  0.00  0.00     0.160 C 
ATOM     36  O5  IDY d 142      25.575  -6.757 -23.323  0.00  0.00    -0.340 OA
ATOM     37  O61 IDY d 142      24.769  -9.935 -22.274  0.00  0.00    -0.646 OA
ATOM     38  OS3 IDY d 142      27.470  -3.044 -23.930  0.00  0.00    -0.572 OA
ATOM     39  OS1 IDY d 142      29.334  -3.489 -22.452  0.00  0.00    -0.572 OA
ATOM     40  C6  IDY d 142      25.526  -8.877 -22.383  0.00  0.00     0.206 C 
ATOM     41  C4  IDY d 142      25.115  -6.917 -20.920  0.00  0.00     0.103 C 
ATOM     42  O2  IDY d 142      27.123  -4.374 -21.790  0.00  0.00    -0.244 OA
ATOM     43  O4  IDY d 142      26.619  -7.378 -20.607  0.00  0.00    -0.348 OA
ATOM     44  O62 IDY d 142      26.769  -8.989 -22.589  0.00  0.00    -0.646 OA
ATOM     45  O1  IDY d 142      24.610  -4.525 -24.425  0.00  0.00    -0.363 OA
ATOM     46  OS2 IDY d 142      27.675  -1.926 -21.773  0.00  0.00    -0.572 OA
ATOM     47  C3  IDY d 142      25.052  -5.384 -20.830  0.00  0.00     0.094 C 
ATOM     48  S   IDY d 142      27.884  -3.205 -22.488  0.00  0.00     0.252 S 
ATOM     49  C7  IDY d 142      23.810  -4.467 -24.981  0.00  0.00     0.007 C 
ATOM     50  O3  IDY d 142      23.674  -4.963 -20.754  0.00  0.00    -0.390 OA
ATOM     51  H   IDY d 142      25.280  -3.652 -22.030  0.00  0.00     0.097 H 
ATOM     52  H   IDY d 142      23.841  -7.516 -22.485  0.00  0.00     0.104 H 
ATOM     53  H   IDY d 142      26.219  -5.245 -24.006  0.00  0.00     0.133 H 
ATOM     54  H   IDY d 142      24.347  -7.246 -20.251  0.00  0.00     0.092 H 
ATOM     55  H   IDY d 142      25.609  -5.138 -19.950  0.00  0.00     0.091 H 
ATOM     56  H   IDY d 142      23.864  -3.592 -25.593  0.00  0.00     0.066 H 
ATOM     57  H   IDY d 142      22.944  -4.412 -24.354  0.00  0.00     0.066 H 
ATOM     58  H   IDY d 142      23.745  -5.335 -25.603  0.00  0.00     0.066 H 
ATOM     59  H   IDY d 142      23.216  -5.209 -21.573  0.00  0.00     0.210 HD
ENDROOT
TORSDOF 18
ENDMDL
MODEL 34
REMARK VINA RESULT:      -5.7      3.159      4.756
REMARK  0 active torsions:
REMARK  status: ('A' for Active; 'I' for Inactive)
REMARK       I    between atoms: S1_1  and  N_36 
REMARK       I    between atoms: S1_1  and  O1S_20 
REMARK       I    between atoms: S1_1  and  O2S_7 
REMARK       I    between atoms: S1_1  and  O3S_31 
REMARK       I    between atoms: C1_2  and  O4_21 
REMARK       I    between atoms: O6_4  and  C6_9 
REMARK       I    between atoms: C2_5  and  O2_18 
REMARK       I    between atoms: C5_6  and  C6_15 
REMARK       I    between atoms: C1_8  and  O1_27 
REMARK       I    between atoms: C6_9  and  C5_16 
REMARK       I    between atoms: S12_12  and  O3_28 
REMARK       I    between atoms: C4_17  and  O4_21 
REMARK       I    between atoms: O2_18  and  S_33 
REMARK       I    between atoms: C3_19  and  O3_28 
REMARK       I    between atoms: C4_23  and  O4_34 
REMARK       I    between atoms: C2_26  and  N_36 
REMARK       I    between atoms: O1_27  and  C7_35 
REMARK       I    between atoms: C3_32  and  O3_37 
ROOT
ATOM      1  S1  GNX d 141      26.407  -9.509 -20.163  0.00  0.00     0.156 S 
ATOM      2  C1  GNX d 141      28.849  -9.227 -22.774  0.00  0.00     0.150 C 
ATOM      3  O32 GNX d 141      29.762  -9.052 -17.734  0.00  0.00    -0.572 OA
ATOM      4  O6  GNX d 141      31.534 -10.766 -25.099  0.00  0.00    -0.398 OA
ATOM      5  O2S GNX d 141      25.789  -8.559 -19.244  0.00  0.00    -0.296 OA
ATOM      6  C6  GNX d 141      32.134 -10.450 -23.862  0.00  0.00     0.043 C 
ATOM      7  S12 GNX d 141      30.650 -10.140 -18.155  0.00  0.00     0.252 S 
ATOM      8  C5  GNX d 141      31.116  -9.754 -22.967  0.00  0.00     0.089 C 
ATOM      9  C3  GNX d 141      30.139  -9.623 -20.656  0.00  0.00     0.107 C 
ATOM     10  O1S GNX d 141      26.688 -10.794 -19.528  0.00  0.00    -0.296 OA
ATOM     11  C4  GNX d 141      31.211 -10.261 -21.533  0.00  0.00     0.090 C 
ATOM     12  O5  GNX d 141      29.816  -9.986 -23.464  0.00  0.00    -0.349 OA
ATOM     13  O12 GNX d 141      30.365 -11.328 -17.282  0.00  0.00    -0.572 OA
ATOM     14  C2  GNX d 141      28.772  -9.695 -21.326  0.00  0.00     0.083 C 
ATOM     15  O3  GNX d 141      30.091 -10.290 -19.415  0.00  0.00    -0.247 OA
ATOM     16  O22 GNX d 141      32.013  -9.696 -17.861  0.00  0.00    -0.572 OA
ATOM     17  O3S GNX d 141      25.626  -9.667 -21.387  0.00  0.00    -0.296 OA
ATOM     18  O4  GNX d 141      32.486  -9.958 -21.012  0.00  0.00    -0.390 OA
ATOM     19  N   GNX d 141      27.817  -8.887 -20.593  0.00  0.00    -0.210 NA
ATOM     20  H   GNX d 141      27.895  -9.356 -23.243  0.00  0.00     0.131 H 
ATOM     21  H   GNX d 141      32.181 -11.209 -25.668  0.00  0.00     0.209 HD
ATOM     22  H   GNX d 141      26.335  -8.481 -18.445  0.00  0.00     0.231 HD
ATOM     23  H   GNX d 141      32.968  -9.801 -24.025  0.00  0.00     0.078 H 
ATOM     24  H   GNX d 141      32.469 -11.350 -23.388  0.00  0.00     0.078 H 
ATOM     25  H   GNX d 141      31.325  -8.705 -22.968  0.00  0.00     0.090 H 
ATOM     26  H   GNX d 141      30.390  -8.593 -20.509  0.00  0.00     0.092 H 
ATOM     27  H   GNX d 141      27.207 -10.649 -18.721  0.00  0.00     0.231 HD
ATOM     28  H   GNX d 141      31.060 -11.320 -21.537  0.00  0.00     0.091 H 
ATOM     29  H   GNX d 141      28.448 -10.715 -21.320  0.00  0.00     0.076 H 
ATOM     30  H   GNX d 141      26.066 -10.304 -21.972  0.00  0.00     0.231 HD
ATOM     31  H   GNX d 141      32.616  -8.997 -21.011  0.00  0.00     0.210 HD
ATOM     32  H   GNX d 141      28.282  -8.589 -19.734  0.00  0.00     0.140 HD
ATOM     33  C2  IDY d 142      27.337  -5.382 -22.021  0.00  0.00     0.134 C 
ATOM     34  C5  IDY d 142      29.197  -5.959 -24.317  0.00  0.00     0.152 C 
ATOM     35  C1  IDY d 142      28.294  -4.385 -22.679  0.00  0.00     0.160 C 
ATOM     36  O5  IDY d 142      29.432  -4.945 -23.341  0.00  0.00    -0.340 OA
ATOM     37  O61 IDY d 142      30.903  -6.867 -25.788  0.00  0.00    -0.646 OA
ATOM     38  OS3 IDY d 142      27.919  -3.488 -19.689  0.00  0.00    -0.572 OA
ATOM     39  OS1 IDY d 142      28.533  -5.435 -18.389  0.00  0.00    -0.572 OA
ATOM     40  C6  IDY d 142      30.554  -6.562 -24.568  0.00  0.00     0.206 C 
ATOM     41  C4  IDY d 142      28.246  -7.043 -23.796  0.00  0.00     0.103 C 
ATOM     42  O2  IDY d 142      27.773  -5.813 -20.711  0.00  0.00    -0.244 OA
ATOM     43  O4  IDY d 142      29.209  -7.864 -22.809  0.00  0.00    -0.348 OA
ATOM     44  O62 IDY d 142      31.357  -6.725 -23.605  0.00  0.00    -0.646 OA
ATOM     45  O1  IDY d 142      27.786  -2.893 -22.889  0.00  0.00    -0.363 OA
ATOM     46  OS2 IDY d 142      26.236  -5.054 -18.876  0.00  0.00    -0.572 OA
ATOM     47  C3  IDY d 142      27.042  -6.539 -22.984  0.00  0.00     0.094 C 
ATOM     48  S   IDY d 142      27.606  -4.941 -19.428  0.00  0.00     0.252 S 
ATOM     49  C7  IDY d 142      27.586  -2.177 -23.522  0.00  0.00     0.007 C 
ATOM     50  O3  IDY d 142      26.000  -6.112 -23.885  0.00  0.00    -0.390 OA
ATOM     51  H   IDY d 142      26.414  -4.877 -21.829  0.00  0.00     0.097 H 
ATOM     52  H   IDY d 142      28.741  -5.552 -25.196  0.00  0.00     0.104 H 
ATOM     53  H   IDY d 142      28.945  -3.930 -21.962  0.00  0.00     0.133 H 
ATOM     54  H   IDY d 142      27.803  -7.575 -24.611  0.00  0.00     0.092 H 
ATOM     55  H   IDY d 142      26.750  -7.372 -22.380  0.00  0.00     0.091 H 
ATOM     56  H   IDY d 142      27.240  -1.316 -22.989  0.00  0.00     0.066 H 
ATOM     57  H   IDY d 142      26.828  -2.504 -24.203  0.00  0.00     0.066 H 
ATOM     58  H   IDY d 142      28.471  -1.926 -24.069  0.00  0.00     0.066 H 
ATOM     59  H   IDY d 142      26.314  -5.357 -24.408  0.00  0.00     0.210 HD
ENDROOT
TORSDOF 18
ENDMDL
MODEL 35
REMARK VINA RESULT:      -5.7      3.579      6.575
REMARK  0 active torsions:
REMARK  status: ('A' for Active; 'I' for Inactive)
REMARK       I    between atoms: S1_1  and  N_36 
REMARK       I    between atoms: S1_1  and  O1S_20 
REMARK       I    between atoms: S1_1  and  O2S_7 
REMARK       I    between atoms: S1_1  and  O3S_31 
REMARK       I    between atoms: C1_2  and  O4_21 
REMARK       I    between atoms: O6_4  and  C6_9 
REMARK       I    between atoms: C2_5  and  O2_18 
REMARK       I    between atoms: C5_6  and  C6_15 
REMARK       I    between atoms: C1_8  and  O1_27 
REMARK       I    between atoms: C6_9  and  C5_16 
REMARK       I    between atoms: S12_12  and  O3_28 
REMARK       I    between atoms: C4_17  and  O4_21 
REMARK       I    between atoms: O2_18  and  S_33 
REMARK       I    between atoms: C3_19  and  O3_28 
REMARK       I    between atoms: C4_23  and  O4_34 
REMARK       I    between atoms: C2_26  and  N_36 
REMARK       I    between atoms: O1_27  and  C7_35 
REMARK       I    between atoms: C3_32  and  O3_37 
ROOT
ATOM      1  S1  GNX d 141      29.436  -8.852 -21.961  0.00  0.00     0.156 S 
ATOM      2  C1  GNX d 141      29.285  -5.606 -20.444  0.00  0.00     0.150 C 
ATOM      3  O32 GNX d 141      27.422  -9.960 -18.486  0.00  0.00    -0.572 OA
ATOM      4  O6  GNX d 141      30.662  -2.917 -18.025  0.00  0.00    -0.398 OA
ATOM      5  O2S GNX d 141      28.459  -9.708 -22.628  0.00  0.00    -0.296 OA
ATOM      6  C6  GNX d 141      29.854  -3.813 -17.294  0.00  0.00     0.043 C 
ATOM      7  S12 GNX d 141      28.308  -9.510 -17.408  0.00  0.00     0.252 S 
ATOM      8  C5  GNX d 141      29.224  -4.822 -18.246  0.00  0.00     0.089 C 
ATOM      9  C3  GNX d 141      28.694  -7.246 -18.636  0.00  0.00     0.107 C 
ATOM     10  O1S GNX d 141      30.359  -9.612 -21.122  0.00  0.00    -0.296 OA
ATOM     11  C4  GNX d 141      29.249  -6.224 -17.651  0.00  0.00     0.090 C 
ATOM     12  O5  GNX d 141      29.927  -4.816 -19.469  0.00  0.00    -0.349 OA
ATOM     13  O12 GNX d 141      29.224 -10.649 -17.062  0.00  0.00    -0.572 OA
ATOM     14  C2  GNX d 141      29.317  -7.068 -20.016  0.00  0.00     0.083 C 
ATOM     15  O3  GNX d 141      28.960  -8.547 -18.164  0.00  0.00    -0.247 OA
ATOM     16  O22 GNX d 141      27.453  -9.265 -16.246  0.00  0.00    -0.572 OA
ATOM     17  O3S GNX d 141      30.143  -7.994 -22.908  0.00  0.00    -0.296 OA
ATOM     18  O4  GNX d 141      28.482  -6.246 -16.468  0.00  0.00    -0.390 OA
ATOM     19  N   GNX d 141      28.614  -7.885 -20.986  0.00  0.00    -0.210 NA
ATOM     20  H   GNX d 141      29.792  -5.497 -21.380  0.00  0.00     0.131 H 
ATOM     21  H   GNX d 141      31.063  -2.274 -17.419  0.00  0.00     0.209 HD
ATOM     22  H   GNX d 141      28.012 -10.261 -21.969  0.00  0.00     0.231 HD
ATOM     23  H   GNX d 141      29.083  -3.268 -16.790  0.00  0.00     0.078 H 
ATOM     24  H   GNX d 141      30.455  -4.328 -16.573  0.00  0.00     0.078 H 
ATOM     25  H   GNX d 141      28.204  -4.543 -18.409  0.00  0.00     0.090 H 
ATOM     26  H   GNX d 141      27.637  -7.096 -18.720  0.00  0.00     0.092 H 
ATOM     27  H   GNX d 141      29.854 -10.168 -20.509  0.00  0.00     0.231 HD
ATOM     28  H   GNX d 141      30.265  -6.482 -17.433  0.00  0.00     0.091 H 
ATOM     29  H   GNX d 141      30.339  -7.381 -19.966  0.00  0.00     0.076 H 
ATOM     30  H   GNX d 141      30.781  -7.441 -22.429  0.00  0.00     0.231 HD
ATOM     31  H   GNX d 141      27.564  -6.013 -16.673  0.00  0.00     0.210 HD
ATOM     32  H   GNX d 141      27.968  -8.476 -20.461  0.00  0.00     0.140 HD
ATOM     33  C2  IDY d 142      25.932  -6.004 -22.941  0.00  0.00     0.134 C 
ATOM     34  C5  IDY d 142      26.635  -3.406 -21.592  0.00  0.00     0.152 C 
ATOM     35  C1  IDY d 142      24.953  -4.892 -22.560  0.00  0.00     0.160 C 
ATOM     36  O5  IDY d 142      25.357  -4.034 -21.490  0.00  0.00    -0.340 OA
ATOM     37  O61 IDY d 142      27.444  -1.689 -20.077  0.00  0.00    -0.646 OA
ATOM     38  OS3 IDY d 142      23.360  -7.603 -22.500  0.00  0.00    -0.572 OA
ATOM     39  OS1 IDY d 142      24.611  -9.009 -20.978  0.00  0.00    -0.572 OA
ATOM     40  C6  IDY d 142      26.902  -2.869 -20.211  0.00  0.00     0.206 C 
ATOM     41  C4  IDY d 142      27.733  -4.407 -21.970  0.00  0.00     0.103 C 
ATOM     42  O2  IDY d 142      25.833  -7.170 -22.091  0.00  0.00    -0.244 OA
ATOM     43  O4  IDY d 142      27.947  -5.186 -20.584  0.00  0.00    -0.348 OA
ATOM     44  O62 IDY d 142      26.560  -3.543 -19.197  0.00  0.00    -0.646 OA
ATOM     45  O1  IDY d 142      23.775  -4.555 -23.576  0.00  0.00    -0.363 OA
ATOM     46  OS2 IDY d 142      25.012  -9.201 -23.316  0.00  0.00    -0.572 OA
ATOM     47  C3  IDY d 142      27.353  -5.436 -23.047  0.00  0.00     0.094 C 
ATOM     48  S   IDY d 142      24.704  -8.236 -22.235  0.00  0.00     0.252 S 
ATOM     49  C7  IDY d 142      23.354  -3.887 -24.148  0.00  0.00     0.007 C 
ATOM     50  O3  IDY d 142      27.498  -4.842 -24.353  0.00  0.00    -0.390 OA
ATOM     51  H   IDY d 142      25.657  -6.371 -23.908  0.00  0.00     0.097 H 
ATOM     52  H   IDY d 142      26.635  -2.652 -22.351  0.00  0.00     0.104 H 
ATOM     53  H   IDY d 142      24.153  -5.261 -21.951  0.00  0.00     0.133 H 
ATOM     54  H   IDY d 142      28.576  -3.897 -22.387  0.00  0.00     0.092 H 
ATOM     55  H   IDY d 142      28.021  -6.257 -22.890  0.00  0.00     0.091 H 
ATOM     56  H   IDY d 142      22.500  -4.316 -24.629  0.00  0.00     0.066 H 
ATOM     57  H   IDY d 142      24.053  -3.559 -24.889  0.00  0.00     0.066 H 
ATOM     58  H   IDY d 142      23.046  -3.051 -23.555  0.00  0.00     0.066 H 
ATOM     59  H   IDY d 142      26.872  -4.106 -24.444  0.00  0.00     0.210 HD
ENDROOT
TORSDOF 18
ENDMDL
MODEL 36
REMARK VINA RESULT:      -5.7      4.938      7.963
REMARK  0 active torsions:
REMARK  status: ('A' for Active; 'I' for Inactive)
REMARK       I    between atoms: S1_1  and  N_36 
REMARK       I    between atoms: S1_1  and  O1S_20 
REMARK       I    between atoms: S1_1  and  O2S_7 
REMARK       I    between atoms: S1_1  and  O3S_31 
REMARK       I    between atoms: C1_2  and  O4_21 
REMARK       I    between atoms: O6_4  and  C6_9 
REMARK       I    between atoms: C2_5  and  O2_18 
REMARK       I    between atoms: C5_6  and  C6_15 
REMARK       I    between atoms: C1_8  and  O1_27 
REMARK       I    between atoms: C6_9  and  C5_16 
REMARK       I    between atoms: S12_12  and  O3_28 
REMARK       I    between atoms: C4_17  and  O4_21 
REMARK       I    between atoms: O2_18  and  S_33 
REMARK       I    between atoms: C3_19  and  O3_28 
REMARK       I    between atoms: C4_23  and  O4_34 
REMARK       I    between atoms: C2_26  and  N_36 
REMARK       I    between atoms: O1_27  and  C7_35 
REMARK       I    between atoms: C3_32  and  O3_37 
ROOT
ATOM      1  S1  GNX d 141      28.401  -4.537 -20.977  0.00  0.00     0.156 S 
ATOM      2  C1  GNX d 141      28.954  -7.275 -18.728  0.00  0.00     0.150 C 
ATOM      3  O32 GNX d 141      24.780  -6.504 -21.601  0.00  0.00    -0.572 OA
ATOM      4  O6  GNX d 141      30.072 -10.910 -18.008  0.00  0.00    -0.398 OA
ATOM      5  O2S GNX d 141      27.574  -3.335 -20.930  0.00  0.00    -0.296 OA
ATOM      6  C6  GNX d 141      28.730 -10.927 -18.444  0.00  0.00     0.043 C 
ATOM      7  S12 GNX d 141      25.181  -7.851 -22.022  0.00  0.00     0.252 S 
ATOM      8  C5  GNX d 141      28.242  -9.497 -18.639  0.00  0.00     0.089 C 
ATOM      9  C3  GNX d 141      26.986  -7.927 -20.146  0.00  0.00     0.107 C 
ATOM     10  O1S GNX d 141      28.431  -5.137 -22.308  0.00  0.00    -0.296 OA
ATOM     11  C4  GNX d 141      27.407  -9.373 -19.907  0.00  0.00     0.090 C 
ATOM     12  O5  GNX d 141      29.350  -8.628 -18.718  0.00  0.00    -0.349 OA
ATOM     13  O12 GNX d 141      25.270  -7.855 -23.521  0.00  0.00    -0.572 OA
ATOM     14  C2  GNX d 141      28.175  -6.983 -20.005  0.00  0.00     0.083 C 
ATOM     15  O3  GNX d 141      26.438  -7.805 -21.439  0.00  0.00    -0.247 OA
ATOM     16  O22 GNX d 141      24.084  -8.744 -21.644  0.00  0.00    -0.572 OA
ATOM     17  O3S GNX d 141      29.745  -4.294 -20.460  0.00  0.00    -0.296 OA
ATOM     18  O4  GNX d 141      26.258 -10.184 -19.795  0.00  0.00    -0.390 OA
ATOM     19  N   GNX d 141      27.717  -5.607 -20.004  0.00  0.00    -0.210 NA
ATOM     20  H   GNX d 141      29.823  -6.651 -18.690  0.00  0.00     0.131 H 
ATOM     21  H   GNX d 141      30.383 -11.820 -17.884  0.00  0.00     0.209 HD
ATOM     22  H   GNX d 141      26.692  -3.535 -21.281  0.00  0.00     0.231 HD
ATOM     23  H   GNX d 141      28.123 -11.414 -17.710  0.00  0.00     0.078 H 
ATOM     24  H   GNX d 141      28.663 -11.457 -19.372  0.00  0.00     0.078 H 
ATOM     25  H   GNX d 141      27.628  -9.231 -17.804  0.00  0.00     0.090 H 
ATOM     26  H   GNX d 141      26.254  -7.662 -19.411  0.00  0.00     0.092 H 
ATOM     27  H   GNX d 141      27.524  -5.283 -22.618  0.00  0.00     0.231 HD
ATOM     28  H   GNX d 141      28.001  -9.694 -20.737  0.00  0.00     0.091 H 
ATOM     29  H   GNX d 141      28.827  -7.137 -20.839  0.00  0.00     0.076 H 
ATOM     30  H   GNX d 141      30.262  -5.113 -20.507  0.00  0.00     0.231 HD
ATOM     31  H   GNX d 141      25.725  -9.887 -19.041  0.00  0.00     0.210 HD
ATOM     32  H   GNX d 141      26.724  -5.627 -20.238  0.00  0.00     0.140 HD
ATOM     33  C2  IDY d 142      27.272  -4.127 -16.516  0.00  0.00     0.134 C 
ATOM     34  C5  IDY d 142      28.304  -6.639 -15.214  0.00  0.00     0.152 C 
ATOM     35  C1  IDY d 142      26.794  -4.717 -15.187  0.00  0.00     0.160 C 
ATOM     36  O5  IDY d 142      26.988  -6.123 -15.014  0.00  0.00    -0.340 OA
ATOM     37  O61 IDY d 142      28.976  -8.917 -14.707  0.00  0.00    -0.646 OA
ATOM     38  OS3 IDY d 142      24.378  -3.138 -16.436  0.00  0.00    -0.572 OA
ATOM     39  OS1 IDY d 142      24.089  -4.109 -18.634  0.00  0.00    -0.572 OA
ATOM     40  C6  IDY d 142      28.116  -8.131 -15.295  0.00  0.00     0.206 C 
ATOM     41  C4  IDY d 142      28.921  -6.132 -16.523  0.00  0.00     0.103 C 
ATOM     42  O2  IDY d 142      26.323  -4.299 -17.593  0.00  0.00    -0.244 OA
ATOM     43  O4  IDY d 142      28.138  -7.015 -17.609  0.00  0.00    -0.348 OA
ATOM     44  O62 IDY d 142      27.106  -8.605 -15.891  0.00  0.00    -0.646 OA
ATOM     45  O1  IDY d 142      26.465  -3.710 -14.000  0.00  0.00    -0.363 OA
ATOM     46  OS2 IDY d 142      25.379  -2.123 -18.414  0.00  0.00    -0.572 OA
ATOM     47  C3  IDY d 142      28.678  -4.648 -16.843  0.00  0.00     0.094 C 
ATOM     48  S   IDY d 142      25.052  -3.410 -17.758  0.00  0.00     0.252 S 
ATOM     49  C7  IDY d 142      26.671  -3.420 -13.091  0.00  0.00     0.007 C 
ATOM     50  O3  IDY d 142      29.630  -3.838 -16.124  0.00  0.00    -0.390 OA
ATOM     51  H   IDY d 142      27.339  -3.065 -16.402  0.00  0.00     0.097 H 
ATOM     52  H   IDY d 142      28.963  -6.333 -14.428  0.00  0.00     0.104 H 
ATOM     53  H   IDY d 142      25.735  -4.871 -15.182  0.00  0.00     0.133 H 
ATOM     54  H   IDY d 142      29.987  -6.217 -16.491  0.00  0.00     0.092 H 
ATOM     55  H   IDY d 142      28.791  -4.574 -17.904  0.00  0.00     0.091 H 
ATOM     56  H   IDY d 142      26.035  -2.602 -12.825  0.00  0.00     0.066 H 
ATOM     57  H   IDY d 142      27.694  -3.109 -13.039  0.00  0.00     0.066 H 
ATOM     58  H   IDY d 142      26.510  -4.232 -12.413  0.00  0.00     0.066 H 
ATOM     59  H   IDY d 142      29.486  -3.940 -15.170  0.00  0.00     0.210 HD
ENDROOT
TORSDOF 18
ENDMDL
MODEL 37
REMARK VINA RESULT:      -5.7      2.549      6.469
REMARK  0 active torsions:
REMARK  status: ('A' for Active; 'I' for Inactive)
REMARK       I    between atoms: S1_1  and  N_36 
REMARK       I    between atoms: S1_1  and  O1S_20 
REMARK       I    between atoms: S1_1  and  O2S_7 
REMARK       I    between atoms: S1_1  and  O3S_31 
REMARK       I    between atoms: C1_2  and  O4_21 
REMARK       I    between atoms: O6_4  and  C6_9 
REMARK       I    between atoms: C2_5  and  O2_18 
REMARK       I    between atoms: C5_6  and  C6_15 
REMARK       I    between atoms: C1_8  and  O1_27 
REMARK       I    between atoms: C6_9  and  C5_16 
REMARK       I    between atoms: S12_12  and  O3_28 
REMARK       I    between atoms: C4_17  and  O4_21 
REMARK       I    between atoms: O2_18  and  S_33 
REMARK       I    between atoms: C3_19  and  O3_28 
REMARK       I    between atoms: C4_23  and  O4_34 
REMARK       I    between atoms: C2_26  and  N_36 
REMARK       I    between atoms: O1_27  and  C7_35 
REMARK       I    between atoms: C3_32  and  O3_37 
ROOT
ATOM      1  S1  GNX d 141      22.149  -5.604 -23.197  0.00  0.00     0.156 S 
ATOM      2  C1  GNX d 141      24.858  -7.443 -21.734  0.00  0.00     0.150 C 
ATOM      3  O32 GNX d 141      24.348  -2.343 -21.821  0.00  0.00    -0.572 OA
ATOM      4  O6  GNX d 141      26.599  -9.087 -18.694  0.00  0.00    -0.398 OA
ATOM      5  O2S GNX d 141      22.001  -4.808 -24.412  0.00  0.00    -0.296 OA
ATOM      6  C6  GNX d 141      26.923  -7.714 -18.712  0.00  0.00     0.043 C 
ATOM      7  S12 GNX d 141      24.492  -2.599 -20.384  0.00  0.00     0.252 S 
ATOM      8  C5  GNX d 141      26.326  -7.069 -19.957  0.00  0.00     0.089 C 
ATOM      9  C3  GNX d 141      25.057  -5.097 -20.859  0.00  0.00     0.107 C 
ATOM     10  O1S GNX d 141      21.438  -5.022 -22.062  0.00  0.00    -0.296 OA
ATOM     11  C4  GNX d 141      25.726  -5.706 -19.632  0.00  0.00     0.090 C 
ATOM     12  O5  GNX d 141      25.325  -7.909 -20.488  0.00  0.00    -0.349 OA
ATOM     13  O12 GNX d 141      23.345  -1.931 -19.682  0.00  0.00    -0.572 OA
ATOM     14  C2  GNX d 141      24.145  -6.109 -21.543  0.00  0.00     0.083 C 
ATOM     15  O3  GNX d 141      24.303  -3.970 -20.472  0.00  0.00    -0.247 OA
ATOM     16  O22 GNX d 141      25.719  -1.920 -19.965  0.00  0.00    -0.572 OA
ATOM     17  O3S GNX d 141      21.777  -7.000 -23.413  0.00  0.00    -0.296 OA
ATOM     18  O4  GNX d 141      26.743  -4.843 -19.173  0.00  0.00    -0.390 OA
ATOM     19  N   GNX d 141      23.704  -5.593 -22.824  0.00  0.00    -0.210 NA
ATOM     20  H   GNX d 141      24.175  -8.156 -22.147  0.00  0.00     0.131 H 
ATOM     21  H   GNX d 141      26.979  -9.498 -17.902  0.00  0.00     0.209 HD
ATOM     22  H   GNX d 141      22.256  -3.890 -24.229  0.00  0.00     0.231 HD
ATOM     23  H   GNX d 141      27.986  -7.598 -18.726  0.00  0.00     0.078 H 
ATOM     24  H   GNX d 141      26.523  -7.242 -17.839  0.00  0.00     0.078 H 
ATOM     25  H   GNX d 141      27.106  -6.931 -20.675  0.00  0.00     0.090 H 
ATOM     26  H   GNX d 141      25.820  -4.807 -21.552  0.00  0.00     0.092 H 
ATOM     27  H   GNX d 141      21.710  -4.097 -21.950  0.00  0.00     0.231 HD
ATOM     28  H   GNX d 141      24.985  -5.835 -18.871  0.00  0.00     0.091 H 
ATOM     29  H   GNX d 141      23.293  -6.271 -20.916  0.00  0.00     0.076 H 
ATOM     30  H   GNX d 141      21.888  -7.495 -22.586  0.00  0.00     0.231 HD
ATOM     31  H   GNX d 141      27.410  -4.732 -19.868  0.00  0.00     0.210 HD
ATOM     32  H   GNX d 141      24.012  -4.621 -22.872  0.00  0.00     0.140 HD
ATOM     33  C2  IDY d 142      25.783  -6.813 -25.782  0.00  0.00     0.134 C 
ATOM     34  C5  IDY d 142      27.457  -8.573 -24.002  0.00  0.00     0.152 C 
ATOM     35  C1  IDY d 142      27.273  -7.113 -25.954  0.00  0.00     0.160 C 
ATOM     36  O5  IDY d 142      27.983  -7.491 -24.771  0.00  0.00    -0.340 OA
ATOM     37  O61 IDY d 142      28.603  -9.606 -22.127  0.00  0.00    -0.646 OA
ATOM     38  OS3 IDY d 142      26.742  -4.267 -27.182  0.00  0.00    -0.572 OA
ATOM     39  OS1 IDY d 142      25.721  -3.010 -25.383  0.00  0.00    -0.572 OA
ATOM     40  C6  IDY d 142      28.201  -8.502 -22.695  0.00  0.00     0.206 C 
ATOM     41  C4  IDY d 142      25.955  -8.410 -23.743  0.00  0.00     0.103 C 
ATOM     42  O2  IDY d 142      25.520  -5.473 -25.305  0.00  0.00    -0.244 OA
ATOM     43  O4  IDY d 142      25.947  -7.272 -22.612  0.00  0.00    -0.348 OA
ATOM     44  O62 IDY d 142      28.467  -7.376 -22.183  0.00  0.00    -0.646 OA
ATOM     45  O1  IDY d 142      27.823  -7.330 -27.431  0.00  0.00    -0.363 OA
ATOM     46  OS2 IDY d 142      24.320  -4.057 -26.995  0.00  0.00    -0.572 OA
ATOM     47  C3  IDY d 142      25.123  -7.909 -24.935  0.00  0.00     0.094 C 
ATOM     48  S   IDY d 142      25.575  -4.215 -26.226  0.00  0.00     0.252 S 
ATOM     49  C7  IDY d 142      28.259  -7.934 -28.062  0.00  0.00     0.007 C 
ATOM     50  O3  IDY d 142      24.814  -9.017 -25.805  0.00  0.00    -0.390 OA
ATOM     51  H   IDY d 142      25.326  -6.833 -26.749  0.00  0.00     0.097 H 
ATOM     52  H   IDY d 142      27.578  -9.505 -24.513  0.00  0.00     0.104 H 
ATOM     53  H   IDY d 142      27.854  -6.215 -26.005  0.00  0.00     0.133 H 
ATOM     54  H   IDY d 142      25.513  -9.353 -23.499  0.00  0.00     0.092 H 
ATOM     55  H   IDY d 142      24.251  -7.472 -24.497  0.00  0.00     0.091 H 
ATOM     56  H   IDY d 142      28.365  -7.445 -29.008  0.00  0.00     0.066 H 
ATOM     57  H   IDY d 142      27.663  -8.816 -28.181  0.00  0.00     0.066 H 
ATOM     58  H   IDY d 142      29.224  -8.205 -27.690  0.00  0.00     0.066 H 
ATOM     59  H   IDY d 142      25.636  -9.376 -26.175  0.00  0.00     0.210 HD
ENDROOT
TORSDOF 18
ENDMDL
MODEL 38
REMARK VINA RESULT:      -5.7      2.409      3.835
REMARK  0 active torsions:
REMARK  status: ('A' for Active; 'I' for Inactive)
REMARK       I    between atoms: S1_1  and  N_36 
REMARK       I    between atoms: S1_1  and  O1S_20 
REMARK       I    between atoms: S1_1  and  O2S_7 
REMARK       I    between atoms: S1_1  and  O3S_31 
REMARK       I    between atoms: C1_2  and  O4_21 
REMARK       I    between atoms: O6_4  and  C6_9 
REMARK       I    between atoms: C2_5  and  O2_18 
REMARK       I    between atoms: C5_6  and  C6_15 
REMARK       I    between atoms: C1_8  and  O1_27 
REMARK       I    between atoms: C6_9  and  C5_16 
REMARK       I    between atoms: S12_12  and  O3_28 
REMARK       I    between atoms: C4_17  and  O4_21 
REMARK       I    between atoms: O2_18  and  S_33 
REMARK       I    between atoms: C3_19  and  O3_28 
REMARK       I    between atoms: C4_23  and  O4_34 
REMARK       I    between atoms: C2_26  and  N_36 
REMARK       I    between atoms: O1_27  and  C7_35 
REMARK       I    between atoms: C3_32  and  O3_37 
ROOT
ATOM      1  S1  GNX d 141      28.230  -7.852 -18.967  0.00  0.00     0.156 S 
ATOM      2  C1  GNX d 141      28.239  -9.009 -22.361  0.00  0.00     0.150 C 
ATOM      3  O32 GNX d 141      30.352  -4.674 -20.627  0.00  0.00    -0.572 OA
ATOM      4  O6  GNX d 141      29.924 -10.846 -25.322  0.00  0.00    -0.398 OA
ATOM      5  O2S GNX d 141      27.504  -6.807 -18.252  0.00  0.00    -0.296 OA
ATOM      6  C6  GNX d 141      30.405  -9.521 -25.278  0.00  0.00     0.043 C 
ATOM      7  S12 GNX d 141      31.498  -5.319 -21.277  0.00  0.00     0.252 S 
ATOM      8  C5  GNX d 141      29.681  -8.753 -24.180  0.00  0.00     0.089 C 
ATOM      9  C3  GNX d 141      29.939  -7.164 -22.251  0.00  0.00     0.107 C 
ATOM     10  O1S GNX d 141      29.620  -7.958 -18.534  0.00  0.00    -0.296 OA
ATOM     11  C4  GNX d 141      30.648  -7.869 -23.402  0.00  0.00     0.090 C 
ATOM     12  O5  GNX d 141      29.063  -9.665 -23.298  0.00  0.00    -0.349 OA
ATOM     13  O12 GNX d 141      32.625  -5.358 -20.285  0.00  0.00    -0.572 OA
ATOM     14  C2  GNX d 141      29.097  -8.146 -21.444  0.00  0.00     0.083 C 
ATOM     15  O3  GNX d 141      30.895  -6.561 -21.409  0.00  0.00    -0.247 OA
ATOM     16  O22 GNX d 141      31.904  -4.433 -22.369  0.00  0.00    -0.572 OA
ATOM     17  O3S GNX d 141      27.540  -9.138 -18.897  0.00  0.00    -0.296 OA
ATOM     18  O4  GNX d 141      31.207  -6.908 -24.269  0.00  0.00    -0.390 OA
ATOM     19  N   GNX d 141      28.256  -7.426 -20.509  0.00  0.00    -0.210 NA
ATOM     20  H   GNX d 141      27.715  -9.738 -21.778  0.00  0.00     0.131 H 
ATOM     21  H   GNX d 141      30.385 -11.335 -26.021  0.00  0.00     0.209 HD
ATOM     22  H   GNX d 141      27.991  -5.971 -18.321  0.00  0.00     0.231 HD
ATOM     23  H   GNX d 141      30.229  -9.046 -26.221  0.00  0.00     0.078 H 
ATOM     24  H   GNX d 141      31.456  -9.530 -25.075  0.00  0.00     0.078 H 
ATOM     25  H   GNX d 141      28.942  -8.127 -24.634  0.00  0.00     0.090 H 
ATOM     26  H   GNX d 141      29.289  -6.418 -22.660  0.00  0.00     0.092 H 
ATOM     27  H   GNX d 141      30.044  -7.087 -18.594  0.00  0.00     0.231 HD
ATOM     28  H   GNX d 141      31.421  -8.488 -22.995  0.00  0.00     0.091 H 
ATOM     29  H   GNX d 141      29.759  -8.788 -20.902  0.00  0.00     0.076 H 
ATOM     30  H   GNX d 141      28.050  -9.805 -19.381  0.00  0.00     0.231 HD
ATOM     31  H   GNX d 141      30.502  -6.352 -24.634  0.00  0.00     0.210 HD
ATOM     32  H   GNX d 141      28.550  -6.449 -20.539  0.00  0.00     0.140 HD
ATOM     33  C2  IDY d 142      24.709  -6.811 -21.772  0.00  0.00     0.134 C 
ATOM     34  C5  IDY d 142      25.238  -8.360 -24.299  0.00  0.00     0.152 C 
ATOM     35  C1  IDY d 142      24.136  -6.502 -23.157  0.00  0.00     0.160 C 
ATOM     36  O5  IDY d 142      24.892  -6.976 -24.274  0.00  0.00    -0.340 OA
ATOM     37  O61 IDY d 142      26.256  -9.485 -26.196  0.00  0.00    -0.646 OA
ATOM     38  OS3 IDY d 142      24.315  -3.782 -21.588  0.00  0.00    -0.572 OA
ATOM     39  OS1 IDY d 142      26.634  -3.619 -20.917  0.00  0.00    -0.572 OA
ATOM     40  C6  IDY d 142      26.283  -8.468 -25.378  0.00  0.00     0.206 C 
ATOM     41  C4  IDY d 142      25.836  -8.822 -22.965  0.00  0.00     0.103 C 
ATOM     42  O2  IDY d 142      25.735  -5.880 -21.357  0.00  0.00    -0.244 OA
ATOM     43  O4  IDY d 142      27.310  -8.195 -23.040  0.00  0.00    -0.348 OA
ATOM     44  O62 IDY d 142      27.146  -7.553 -25.511  0.00  0.00    -0.646 OA
ATOM     45  O1  IDY d 142      22.622  -6.020 -23.245  0.00  0.00    -0.363 OA
ATOM     46  OS2 IDY d 142      25.050  -4.498 -19.376  0.00  0.00    -0.572 OA
ATOM     47  C3  IDY d 142      25.145  -8.280 -21.703  0.00  0.00     0.094 C 
ATOM     48  S   IDY d 142      25.419  -4.454 -20.810  0.00  0.00     0.252 S 
ATOM     49  C7  IDY d 142      21.726  -6.193 -23.591  0.00  0.00     0.007 C 
ATOM     50  O3  IDY d 142      23.978  -9.077 -21.413  0.00  0.00    -0.390 OA
ATOM     51  H   IDY d 142      23.931  -6.670 -21.052  0.00  0.00     0.097 H 
ATOM     52  H   IDY d 142      24.377  -8.971 -24.475  0.00  0.00     0.104 H 
ATOM     53  H   IDY d 142      24.343  -5.495 -23.455  0.00  0.00     0.133 H 
ATOM     54  H   IDY d 142      25.754  -9.885 -22.867  0.00  0.00     0.092 H 
ATOM     55  H   IDY d 142      25.888  -8.342 -20.936  0.00  0.00     0.091 H 
ATOM     56  H   IDY d 142      21.064  -5.417 -23.270  0.00  0.00     0.066 H 
ATOM     57  H   IDY d 142      21.378  -7.136 -23.222  0.00  0.00     0.066 H 
ATOM     58  H   IDY d 142      21.754  -6.218 -24.660  0.00  0.00     0.066 H 
ATOM     59  H   IDY d 142      23.338  -8.987 -22.136  0.00  0.00     0.210 HD
ENDROOT
TORSDOF 18
ENDMDL
MODEL 39
REMARK VINA RESULT:      -5.6      3.326      6.456
REMARK  0 active torsions:
REMARK  status: ('A' for Active; 'I' for Inactive)
REMARK       I    between atoms: S1_1  and  N_36 
REMARK       I    between atoms: S1_1  and  O1S_20 
REMARK       I    between atoms: S1_1  and  O2S_7 
REMARK       I    between atoms: S1_1  and  O3S_31 
REMARK       I    between atoms: C1_2  and  O4_21 
REMARK       I    between atoms: O6_4  and  C6_9 
REMARK       I    between atoms: C2_5  and  O2_18 
REMARK       I    between atoms: C5_6  and  C6_15 
REMARK       I    between atoms: C1_8  and  O1_27 
REMARK       I    between atoms: C6_9  and  C5_16 
REMARK       I    between atoms: S12_12  and  O3_28 
REMARK       I    between atoms: C4_17  and  O4_21 
REMARK       I    between atoms: O2_18  and  S_33 
REMARK       I    between atoms: C3_19  and  O3_28 
REMARK       I    between atoms: C4_23  and  O4_34 
REMARK       I    between atoms: C2_26  and  N_36 
REMARK       I    between atoms: O1_27  and  C7_35 
REMARK       I    between atoms: C3_32  and  O3_37 
ROOT
ATOM      1  S1  GNX d 141      30.271 -10.010 -25.213  0.00  0.00     0.156 S 
ATOM      2  C1  GNX d 141      28.227  -8.629 -22.610  0.00  0.00     0.150 C 
ATOM      3  O32 GNX d 141      27.420  -8.197 -27.654  0.00  0.00    -0.572 OA
ATOM      4  O6  GNX d 141      25.169  -8.789 -20.244  0.00  0.00    -0.398 OA
ATOM      5  O2S GNX d 141      31.229  -9.446 -26.159  0.00  0.00    -0.296 OA
ATOM      6  C6  GNX d 141      24.751  -8.275 -21.489  0.00  0.00     0.043 C 
ATOM      7  S12 GNX d 141      26.152  -8.780 -27.203  0.00  0.00     0.252 S 
ATOM      8  C5  GNX d 141      25.960  -8.112 -22.403  0.00  0.00     0.089 C 
ATOM      9  C3  GNX d 141      26.867  -8.476 -24.716  0.00  0.00     0.107 C 
ATOM     10  O1S GNX d 141      29.451 -11.059 -25.813  0.00  0.00    -0.296 OA
ATOM     11  C4  GNX d 141      25.636  -8.562 -23.822  0.00  0.00     0.090 C 
ATOM     12  O5  GNX d 141      27.034  -8.875 -21.901  0.00  0.00    -0.349 OA
ATOM     13  O12 GNX d 141      25.881  -9.994 -28.043  0.00  0.00    -0.572 OA
ATOM     14  C2  GNX d 141      28.075  -9.120 -24.045  0.00  0.00     0.083 C 
ATOM     15  O3  GNX d 141      26.606  -9.128 -25.939  0.00  0.00    -0.247 OA
ATOM     16  O22 GNX d 141      25.115  -7.794 -27.508  0.00  0.00    -0.572 OA
ATOM     17  O3S GNX d 141      30.920 -10.463 -23.986  0.00  0.00    -0.296 OA
ATOM     18  O4  GNX d 141      24.613  -7.748 -24.351  0.00  0.00    -0.390 OA
ATOM     19  N   GNX d 141      29.277  -8.826 -24.801  0.00  0.00    -0.210 NA
ATOM     20  H   GNX d 141      29.035  -9.149 -22.139  0.00  0.00     0.131 H 
ATOM     21  H   GNX d 141      24.400  -8.893 -19.662  0.00  0.00     0.209 HD
ATOM     22  H   GNX d 141      30.763  -9.158 -26.959  0.00  0.00     0.231 HD
ATOM     23  H   GNX d 141      24.284  -7.323 -21.343  0.00  0.00     0.078 H 
ATOM     24  H   GNX d 141      24.052  -8.950 -21.938  0.00  0.00     0.078 H 
ATOM     25  H   GNX d 141      26.228  -7.077 -22.430  0.00  0.00     0.090 H 
ATOM     26  H   GNX d 141      27.088  -7.444 -24.892  0.00  0.00     0.092 H 
ATOM     27  H   GNX d 141      29.038 -10.723 -26.624  0.00  0.00     0.231 HD
ATOM     28  H   GNX d 141      25.311  -9.581 -23.789  0.00  0.00     0.091 H 
ATOM     29  H   GNX d 141      27.923 -10.179 -24.023  0.00  0.00     0.076 H 
ATOM     30  H   GNX d 141      30.254 -10.830 -23.384  0.00  0.00     0.231 HD
ATOM     31  H   GNX d 141      24.914  -6.826 -24.378  0.00  0.00     0.210 HD
ATOM     32  H   GNX d 141      28.978  -8.377 -25.667  0.00  0.00     0.140 HD
ATOM     33  C2  IDY d 142      31.252  -5.845 -23.469  0.00  0.00     0.134 C 
ATOM     34  C5  IDY d 142      29.354  -5.499 -21.157  0.00  0.00     0.152 C 
ATOM     35  C1  IDY d 142      30.832  -4.516 -22.837  0.00  0.00     0.160 C 
ATOM     36  O5  IDY d 142      29.572  -4.508 -22.161  0.00  0.00    -0.340 OA
ATOM     37  O61 IDY d 142      27.441  -5.539 -19.661  0.00  0.00    -0.646 OA
ATOM     38  OS3 IDY d 142      31.523  -3.944 -25.851  0.00  0.00    -0.572 OA
ATOM     39  OS1 IDY d 142      30.108  -5.461 -27.098  0.00  0.00    -0.572 OA
ATOM     40  C6  IDY d 142      27.873  -5.446 -20.889  0.00  0.00     0.206 C 
ATOM     41  C4  IDY d 142      29.732  -6.902 -21.649  0.00  0.00     0.103 C 
ATOM     42  O2  IDY d 142      30.656  -6.076 -24.767  0.00  0.00    -0.244 OA
ATOM     43  O4  IDY d 142      28.496  -7.246 -22.613  0.00  0.00    -0.348 OA
ATOM     44  O62 IDY d 142      27.068  -5.266 -21.848  0.00  0.00    -0.646 OA
ATOM     45  O1  IDY d 142      31.942  -3.389 -22.668  0.00  0.00    -0.363 OA
ATOM     46  OS2 IDY d 142      32.347  -6.106 -26.622  0.00  0.00    -0.572 OA
ATOM     47  C3  IDY d 142      31.026  -6.992 -22.474  0.00  0.00     0.094 C 
ATOM     48  S   IDY d 142      31.170  -5.395 -26.073  0.00  0.00     0.252 S 
ATOM     49  C7  IDY d 142      32.441  -2.816 -22.055  0.00  0.00     0.007 C 
ATOM     50  O3  IDY d 142      32.161  -7.039 -21.586  0.00  0.00    -0.390 OA
ATOM     51  H   IDY d 142      32.300  -5.798 -23.675  0.00  0.00     0.097 H 
ATOM     52  H   IDY d 142      29.953  -5.310 -20.290  0.00  0.00     0.104 H 
ATOM     53  H   IDY d 142      30.435  -3.840 -23.566  0.00  0.00     0.133 H 
ATOM     54  H   IDY d 142      29.910  -7.554 -20.820  0.00  0.00     0.092 H 
ATOM     55  H   IDY d 142      30.919  -7.883 -23.056  0.00  0.00     0.091 H 
ATOM     56  H   IDY d 142      33.120  -2.205 -22.611  0.00  0.00     0.066 H 
ATOM     57  H   IDY d 142      32.989  -3.424 -21.366  0.00  0.00     0.066 H 
ATOM     58  H   IDY d 142      31.760  -2.192 -21.516  0.00  0.00     0.066 H 
ATOM     59  H   IDY d 142      32.213  -6.210 -21.084  0.00  0.00     0.210 HD
ENDROOT
TORSDOF 18
ENDMDL
MODEL 40
REMARK VINA RESULT:      -5.6      3.032      5.849
REMARK  0 active torsions:
REMARK  status: ('A' for Active; 'I' for Inactive)
REMARK       I    between atoms: S1_1  and  N_36 
REMARK       I    between atoms: S1_1  and  O1S_20 
REMARK       I    between atoms: S1_1  and  O2S_7 
REMARK       I    between atoms: S1_1  and  O3S_31 
REMARK       I    between atoms: C1_2  and  O4_21 
REMARK       I    between atoms: O6_4  and  C6_9 
REMARK       I    between atoms: C2_5  and  O2_18 
REMARK       I    between atoms: C5_6  and  C6_15 
REMARK       I    between atoms: C1_8  and  O1_27 
REMARK       I    between atoms: C6_9  and  C5_16 
REMARK       I    between atoms: S12_12  and  O3_28 
REMARK       I    between atoms: C4_17  and  O4_21 
REMARK       I    between atoms: O2_18  and  S_33 
REMARK       I    between atoms: C3_19  and  O3_28 
REMARK       I    between atoms: C4_23  and  O4_34 
REMARK       I    between atoms: C2_26  and  N_36 
REMARK       I    between atoms: O1_27  and  C7_35 
REMARK       I    between atoms: C3_32  and  O3_37 
ROOT
ATOM      1  S1  GNX d 141      25.859  -8.490 -20.645  0.00  0.00     0.156 S 
ATOM      2  C1  GNX d 141      29.087  -9.462 -21.869  0.00  0.00     0.150 C 
ATOM      3  O32 GNX d 141      28.075  -5.471 -18.817  0.00  0.00    -0.572 OA
ATOM      4  O6  GNX d 141      32.463 -11.310 -21.459  0.00  0.00    -0.398 OA
ATOM      5  O2S GNX d 141      24.931  -7.412 -20.973  0.00  0.00    -0.296 OA
ATOM      6  C6  GNX d 141      32.560 -10.047 -20.838  0.00  0.00     0.043 C 
ATOM      7  S12 GNX d 141      29.074  -6.199 -18.027  0.00  0.00     0.252 S 
ATOM      8  C5  GNX d 141      31.273  -9.265 -21.073  0.00  0.00     0.089 C 
ATOM      9  C3  GNX d 141      29.512  -7.815 -20.022  0.00  0.00     0.107 C 
ATOM     10  O1S GNX d 141      25.907  -8.764 -19.212  0.00  0.00    -0.296 OA
ATOM     11  C4  GNX d 141      30.841  -8.530 -19.810  0.00  0.00     0.090 C 
ATOM     12  O5  GNX d 141      30.252 -10.151 -21.475  0.00  0.00    -0.349 OA
ATOM     13  O12 GNX d 141      28.506  -6.408 -16.652  0.00  0.00    -0.572 OA
ATOM     14  C2  GNX d 141      28.489  -8.744 -20.666  0.00  0.00     0.083 C 
ATOM     15  O3  GNX d 141      29.020  -7.361 -18.780  0.00  0.00    -0.247 OA
ATOM     16  O22 GNX d 141      30.225  -5.305 -17.895  0.00  0.00    -0.572 OA
ATOM     17  O3S GNX d 141      25.587  -9.697 -21.421  0.00  0.00    -0.296 OA
ATOM     18  O4  GNX d 141      31.830  -7.590 -19.453  0.00  0.00    -0.390 OA
ATOM     19  N   GNX d 141      27.319  -7.988 -21.069  0.00  0.00    -0.210 NA
ATOM     20  H   GNX d 141      28.375 -10.161 -22.258  0.00  0.00     0.131 H 
ATOM     21  H   GNX d 141      33.281 -11.808 -21.309  0.00  0.00     0.209 HD
ATOM     22  H   GNX d 141      25.143  -6.630 -20.440  0.00  0.00     0.231 HD
ATOM     23  H   GNX d 141      33.385  -9.508 -21.252  0.00  0.00     0.078 H 
ATOM     24  H   GNX d 141      32.711 -10.178 -19.786  0.00  0.00     0.078 H 
ATOM     25  H   GNX d 141      31.451  -8.542 -21.840  0.00  0.00     0.090 H 
ATOM     26  H   GNX d 141      29.674  -6.984 -20.677  0.00  0.00     0.092 H 
ATOM     27  H   GNX d 141      26.089  -7.941 -18.731  0.00  0.00     0.231 HD
ATOM     28  H   GNX d 141      30.719  -9.248 -19.025  0.00  0.00     0.091 H 
ATOM     29  H   GNX d 141      28.202  -9.480 -19.944  0.00  0.00     0.076 H 
ATOM     30  H   GNX d 141      26.221 -10.388 -21.176  0.00  0.00     0.231 HD
ATOM     31  H   GNX d 141      31.935  -6.944 -20.168  0.00  0.00     0.210 HD
ATOM     32  H   GNX d 141      27.429  -7.048 -20.688  0.00  0.00     0.140 HD
ATOM     33  C2  IDY d 142      27.343  -6.937 -24.736  0.00  0.00     0.134 C 
ATOM     34  C5  IDY d 142      29.927  -8.400 -25.237  0.00  0.00     0.152 C 
ATOM     35  C1  IDY d 142      28.459  -6.497 -25.686  0.00  0.00     0.160 C 
ATOM     36  O5  IDY d 142      29.769  -6.989 -25.392  0.00  0.00    -0.340 OA
ATOM     37  O61 IDY d 142      32.068  -9.525 -25.027  0.00  0.00    -0.646 OA
ATOM     38  OS3 IDY d 142      26.995  -3.897 -24.693  0.00  0.00    -0.572 OA
ATOM     39  OS1 IDY d 142      27.118  -4.016 -22.279  0.00  0.00    -0.572 OA
ATOM     40  C6  IDY d 142      31.290  -8.561 -24.618  0.00  0.00     0.206 C 
ATOM     41  C4  IDY d 142      28.868  -8.991 -24.299  0.00  0.00     0.103 C 
ATOM     42  O2  IDY d 142      27.272  -6.142 -23.530  0.00  0.00    -0.244 OA
ATOM     43  O4  IDY d 142      29.412  -8.520 -22.866  0.00  0.00    -0.348 OA
ATOM     44  O62 IDY d 142      31.684  -7.737 -23.743  0.00  0.00    -0.646 OA
ATOM     45  O1  IDY d 142      28.041  -5.854 -27.080  0.00  0.00    -0.363 OA
ATOM     46  OS2 IDY d 142      25.156  -4.801 -23.371  0.00  0.00    -0.572 OA
ATOM     47  C3  IDY d 142      27.442  -8.446 -24.476  0.00  0.00     0.094 C 
ATOM     48  S   IDY d 142      26.631  -4.721 -23.483  0.00  0.00     0.252 S 
ATOM     49  C7  IDY d 142      28.076  -5.913 -28.053  0.00  0.00     0.007 C 
ATOM     50  O3  IDY d 142      26.798  -9.128 -25.572  0.00  0.00    -0.390 OA
ATOM     51  H   IDY d 142      26.406  -6.753 -25.218  0.00  0.00     0.097 H 
ATOM     52  H   IDY d 142      29.820  -8.906 -26.174  0.00  0.00     0.104 H 
ATOM     53  H   IDY d 142      28.793  -5.503 -25.470  0.00  0.00     0.133 H 
ATOM     54  H   IDY d 142      28.765 -10.043 -24.468  0.00  0.00     0.092 H 
ATOM     55  H   IDY d 142      26.961  -8.625 -23.538  0.00  0.00     0.091 H 
ATOM     56  H   IDY d 142      27.545  -5.090 -28.481  0.00  0.00     0.066 H 
ATOM     57  H   IDY d 142      27.628  -6.832 -28.371  0.00  0.00     0.066 H 
ATOM     58  H   IDY d 142      29.096  -5.885 -28.375  0.00  0.00     0.066 H 
ATOM     59  H   IDY d 142      27.271  -8.933 -26.396  0.00  0.00     0.210 HD
ENDROOT
TORSDOF 18
ENDMDL
MODEL 41
REMARK VINA RESULT:      -5.6      2.292      6.328
REMARK  0 active torsions:
REMARK  status: ('A' for Active; 'I' for Inactive)
REMARK       I    between atoms: S1_1  and  N_36 
REMARK       I    between atoms: S1_1  and  O1S_20 
REMARK       I    between atoms: S1_1  and  O2S_7 
REMARK       I    between atoms: S1_1  and  O3S_31 
REMARK       I    between atoms: C1_2  and  O4_21 
REMARK       I    between atoms: O6_4  and  C6_9 
REMARK       I    between atoms: C2_5  and  O2_18 
REMARK       I    between atoms: C5_6  and  C6_15 
REMARK       I    between atoms: C1_8  and  O1_27 
REMARK       I    between atoms: C6_9  and  C5_16 
REMARK       I    between atoms: S12_12  and  O3_28 
REMARK       I    between atoms: C4_17  and  O4_21 
REMARK       I    between atoms: O2_18  and  S_33 
REMARK       I    between atoms: C3_19  and  O3_28 
REMARK       I    between atoms: C4_23  and  O4_34 
REMARK       I    between atoms: C2_26  and  N_36 
REMARK       I    between atoms: O1_27  and  C7_35 
REMARK       I    between atoms: C3_32  and  O3_37 
ROOT
ATOM      1  S1  GNX d 141      29.489  -4.841 -22.322  0.00  0.00     0.156 S 
ATOM      2  C1  GNX d 141      26.793  -6.112 -24.316  0.00  0.00     0.150 C 
ATOM      3  O32 GNX d 141      27.805  -7.341 -19.444  0.00  0.00    -0.572 OA
ATOM      4  O6  GNX d 141      23.105  -6.041 -25.489  0.00  0.00    -0.398 OA
ATOM      5  O2S GNX d 141      30.756  -5.396 -21.855  0.00  0.00    -0.296 OA
ATOM      6  C6  GNX d 141      23.183  -6.774 -24.287  0.00  0.00     0.043 C 
ATOM      7  S12 GNX d 141      26.417  -6.878 -19.347  0.00  0.00     0.252 S 
ATOM      8  C5  GNX d 141      24.641  -6.897 -23.860  0.00  0.00     0.089 C 
ATOM      9  C3  GNX d 141      26.256  -6.736 -21.943  0.00  0.00     0.107 C 
ATOM     10  O1S GNX d 141      28.844  -4.005 -21.313  0.00  0.00    -0.296 OA
ATOM     11  C4  GNX d 141      24.790  -6.695 -22.357  0.00  0.00     0.090 C 
ATOM     12  O5  GNX d 141      25.413  -5.934 -24.543  0.00  0.00    -0.349 OA
ATOM     13  O12 GNX d 141      26.354  -5.839 -18.265  0.00  0.00    -0.572 OA
ATOM     14  C2  GNX d 141      27.104  -5.849 -22.847  0.00  0.00     0.083 C 
ATOM     15  O3  GNX d 141      26.379  -6.301 -20.607  0.00  0.00    -0.247 OA
ATOM     16  O22 GNX d 141      25.630  -8.028 -18.898  0.00  0.00    -0.572 OA
ATOM     17  O3S GNX d 141      29.638  -4.140 -23.594  0.00  0.00    -0.296 OA
ATOM     18  O4  GNX d 141      24.080  -7.705 -21.675  0.00  0.00    -0.390 OA
ATOM     19  N   GNX d 141      28.512  -6.080 -22.589  0.00  0.00    -0.210 NA
ATOM     20  H   GNX d 141      27.345  -5.428 -24.926  0.00  0.00     0.131 H 
ATOM     21  H   GNX d 141      22.178  -5.963 -25.761  0.00  0.00     0.209 HD
ATOM     22  H   GNX d 141      30.617  -5.852 -21.010  0.00  0.00     0.231 HD
ATOM     23  H   GNX d 141      22.773  -7.751 -24.437  0.00  0.00     0.078 H 
ATOM     24  H   GNX d 141      22.629  -6.268 -23.523  0.00  0.00     0.078 H 
ATOM     25  H   GNX d 141      24.984  -7.880 -24.104  0.00  0.00     0.090 H 
ATOM     26  H   GNX d 141      26.606  -7.744 -22.033  0.00  0.00     0.092 H 
ATOM     27  H   GNX d 141      28.762  -4.503 -20.485  0.00  0.00     0.231 HD
ATOM     28  H   GNX d 141      24.393  -5.734 -22.103  0.00  0.00     0.091 H 
ATOM     29  H   GNX d 141      26.869  -4.828 -22.632  0.00  0.00     0.076 H 
ATOM     30  H   GNX d 141      28.779  -3.787 -23.872  0.00  0.00     0.231 HD
ATOM     31  H   GNX d 141      24.445  -8.572 -21.910  0.00  0.00     0.210 HD
ATOM     32  H   GNX d 141      28.566  -6.681 -21.766  0.00  0.00     0.140 HD
ATOM     33  C2  IDY d 142      30.142  -8.554 -24.993  0.00  0.00     0.134 C 
ATOM     34  C5  IDY d 142      27.599  -8.831 -26.583  0.00  0.00     0.152 C 
ATOM     35  C1  IDY d 142      29.639  -9.828 -25.676  0.00  0.00     0.160 C 
ATOM     36  O5  IDY d 142      28.228  -9.912 -25.895  0.00  0.00    -0.340 OA
ATOM     37  O61 IDY d 142      25.293  -8.844 -27.341  0.00  0.00    -0.646 OA
ATOM     38  OS3 IDY d 142      31.366 -10.712 -23.202  0.00  0.00    -0.572 OA
ATOM     39  OS1 IDY d 142      30.348  -9.586 -21.316  0.00  0.00    -0.572 OA
ATOM     40  C6  IDY d 142      26.126  -9.046 -26.358  0.00  0.00     0.206 C 
ATOM     41  C4  IDY d 142      28.009  -7.472 -26.002  0.00  0.00     0.103 C 
ATOM     42  O2  IDY d 142      30.011  -8.588 -23.553  0.00  0.00    -0.244 OA
ATOM     43  O4  IDY d 142      27.157  -7.434 -24.644  0.00  0.00    -0.348 OA
ATOM     44  O62 IDY d 142      25.716  -9.463 -25.236  0.00  0.00    -0.646 OA
ATOM     45  O1  IDY d 142      30.709 -10.761 -26.393  0.00  0.00    -0.363 OA
ATOM     46  OS2 IDY d 142      32.229  -8.586 -22.375  0.00  0.00    -0.572 OA
ATOM     47  C3  IDY d 142      29.496  -7.323 -25.642  0.00  0.00     0.094 C 
ATOM     48  S   IDY d 142      30.996  -9.367 -22.627  0.00  0.00     0.252 S 
ATOM     49  C7  IDY d 142      31.012 -11.171 -27.225  0.00  0.00     0.007 C 
ATOM     50  O3  IDY d 142      30.250  -7.001 -26.829  0.00  0.00    -0.390 OA
ATOM     51  H   IDY d 142      31.197  -8.488 -25.152  0.00  0.00     0.097 H 
ATOM     52  H   IDY d 142      27.877  -8.816 -27.616  0.00  0.00     0.104 H 
ATOM     53  H   IDY d 142      29.572 -10.646 -24.988  0.00  0.00     0.133 H 
ATOM     54  H   IDY d 142      27.839  -6.694 -26.716  0.00  0.00     0.092 H 
ATOM     55  H   IDY d 142      29.525  -6.543 -24.910  0.00  0.00     0.091 H 
ATOM     56  H   IDY d 142      31.888 -11.756 -27.037  0.00  0.00     0.066 H 
ATOM     57  H   IDY d 142      31.239 -10.406 -27.938  0.00  0.00     0.066 H 
ATOM     58  H   IDY d 142      30.239 -11.801 -27.614  0.00  0.00     0.066 H 
ATOM     59  H   IDY d 142      30.192  -7.738 -27.458  0.00  0.00     0.210 HD
ENDROOT
TORSDOF 18
ENDMDL
MODEL 42
REMARK VINA RESULT:      -5.6      2.949      4.638
REMARK  0 active torsions:
REMARK  status: ('A' for Active; 'I' for Inactive)
REMARK       I    between atoms: S1_1  and  N_36 
REMARK       I    between atoms: S1_1  and  O1S_20 
REMARK       I    between atoms: S1_1  and  O2S_7 
REMARK       I    between atoms: S1_1  and  O3S_31 
REMARK       I    between atoms: C1_2  and  O4_21 
REMARK       I    between atoms: O6_4  and  C6_9 
REMARK       I    between atoms: C2_5  and  O2_18 
REMARK       I    between atoms: C5_6  and  C6_15 
REMARK       I    between atoms: C1_8  and  O1_27 
REMARK       I    between atoms: C6_9  and  C5_16 
REMARK       I    between atoms: S12_12  and  O3_28 
REMARK       I    between atoms: C4_17  and  O4_21 
REMARK       I    between atoms: O2_18  and  S_33 
REMARK       I    between atoms: C3_19  and  O3_28 
REMARK       I    between atoms: C4_23  and  O4_34 
REMARK       I    between atoms: C2_26  and  N_36 
REMARK       I    between atoms: O1_27  and  C7_35 
REMARK       I    between atoms: C3_32  and  O3_37 
ROOT
ATOM      1  S1  GNX d 141      29.172  -9.981 -21.213  0.00  0.00     0.156 S 
ATOM      2  C1  GNX d 141      26.414  -7.970 -22.312  0.00  0.00     0.150 C 
ATOM      3  O32 GNX d 141      31.333  -7.346 -23.611  0.00  0.00    -0.572 OA
ATOM      4  O6  GNX d 141      23.679  -7.073 -24.900  0.00  0.00    -0.398 OA
ATOM      5  O2S GNX d 141      30.260  -9.780 -20.261  0.00  0.00    -0.296 OA
ATOM      6  C6  GNX d 141      24.888  -6.461 -25.290  0.00  0.00     0.043 C 
ATOM      7  S12 GNX d 141      30.696  -7.465 -24.926  0.00  0.00     0.252 S 
ATOM      8  C5  GNX d 141      25.954  -6.722 -24.231  0.00  0.00     0.089 C 
ATOM      9  C3  GNX d 141      28.339  -7.393 -23.819  0.00  0.00     0.107 C 
ATOM     10  O1S GNX d 141      29.606 -10.702 -22.407  0.00  0.00    -0.296 OA
ATOM     11  C4  GNX d 141      27.294  -7.052 -24.876  0.00  0.00     0.090 C 
ATOM     12  O5  GNX d 141      25.548  -7.795 -23.411  0.00  0.00    -0.349 OA
ATOM     13  O12 GNX d 141      31.427  -8.528 -25.694  0.00  0.00    -0.572 OA
ATOM     14  C2  GNX d 141      27.790  -8.396 -22.811  0.00  0.00     0.083 C 
ATOM     15  O3  GNX d 141      29.482  -7.932 -24.445  0.00  0.00    -0.247 OA
ATOM     16  O22 GNX d 141      30.923  -6.193 -25.611  0.00  0.00    -0.572 OA
ATOM     17  O3S GNX d 141      28.012 -10.612 -20.589  0.00  0.00    -0.296 OA
ATOM     18  O4  GNX d 141      27.736  -5.948 -25.635  0.00  0.00    -0.390 OA
ATOM     19  N   GNX d 141      28.704  -8.529 -21.695  0.00  0.00    -0.210 NA
ATOM     20  H   GNX d 141      26.020  -8.725 -21.665  0.00  0.00     0.131 H 
ATOM     21  H   GNX d 141      23.001  -6.907 -25.573  0.00  0.00     0.209 HD
ATOM     22  H   GNX d 141      31.010  -9.361 -20.711  0.00  0.00     0.231 HD
ATOM     23  H   GNX d 141      24.738  -5.407 -25.392  0.00  0.00     0.078 H 
ATOM     24  H   GNX d 141      25.208  -6.869 -26.226  0.00  0.00     0.078 H 
ATOM     25  H   GNX d 141      26.071  -5.836 -23.643  0.00  0.00     0.090 H 
ATOM     26  H   GNX d 141      28.597  -6.495 -23.296  0.00  0.00     0.092 H 
ATOM     27  H   GNX d 141      30.375 -10.255 -22.792  0.00  0.00     0.231 HD
ATOM     28  H   GNX d 141      27.165  -7.904 -25.511  0.00  0.00     0.091 H 
ATOM     29  H   GNX d 141      27.690  -9.343 -23.300  0.00  0.00     0.076 H 
ATOM     30  H   GNX d 141      27.312 -10.729 -21.250  0.00  0.00     0.231 HD
ATOM     31  H   GNX d 141      27.851  -5.181 -25.053  0.00  0.00     0.210 HD
ATOM     32  H   GNX d 141      29.550  -8.015 -21.944  0.00  0.00     0.140 HD
ATOM     33  C2  IDY d 142      27.797  -6.366 -18.685  0.00  0.00     0.134 C 
ATOM     34  C5  IDY d 142      25.288  -5.382 -20.029  0.00  0.00     0.152 C 
ATOM     35  C1  IDY d 142      27.192  -4.967 -18.553  0.00  0.00     0.160 C 
ATOM     36  O5  IDY d 142      26.365  -4.531 -19.635  0.00  0.00    -0.340 OA
ATOM     37  O61 IDY d 142      23.566  -4.764 -21.625  0.00  0.00    -0.646 OA
ATOM     38  OS3 IDY d 142      30.296  -4.691 -18.129  0.00  0.00    -0.572 OA
ATOM     39  OS1 IDY d 142      31.270  -5.660 -20.122  0.00  0.00    -0.572 OA
ATOM     40  C6  IDY d 142      24.841  -4.833 -21.358  0.00  0.00     0.206 C 
ATOM     41  C4  IDY d 142      25.746  -6.835 -20.205  0.00  0.00     0.103 C 
ATOM     42  O2  IDY d 142      28.995  -6.398 -19.495  0.00  0.00    -0.244 OA
ATOM     43  O4  IDY d 142      26.527  -6.756 -21.604  0.00  0.00    -0.348 OA
ATOM     44  O62 IDY d 142      25.700  -4.405 -22.182  0.00  0.00    -0.646 OA
ATOM     45  O1  IDY d 142      27.226  -4.274 -17.121  0.00  0.00    -0.363 OA
ATOM     46  OS2 IDY d 142      31.042  -7.011 -18.178  0.00  0.00    -0.572 OA
ATOM     47  C3  IDY d 142      26.720  -7.361 -19.139  0.00  0.00     0.094 C 
ATOM     48  S   IDY d 142      30.391  -5.941 -18.967  0.00  0.00     0.252 S 
ATOM     49  C7  IDY d 142      26.713  -3.895 -16.382  0.00  0.00     0.007 C 
ATOM     50  O3  IDY d 142      25.979  -7.775 -17.973  0.00  0.00    -0.390 OA
ATOM     51  H   IDY d 142      28.135  -6.675 -17.718  0.00  0.00     0.097 H 
ATOM     52  H   IDY d 142      24.515  -5.394 -19.289  0.00  0.00     0.104 H 
ATOM     53  H   IDY d 142      27.902  -4.205 -18.800  0.00  0.00     0.133 H 
ATOM     54  H   IDY d 142      24.910  -7.500 -20.141  0.00  0.00     0.092 H 
ATOM     55  H   IDY d 142      27.234  -8.171 -19.612  0.00  0.00     0.091 H 
ATOM     56  H   IDY d 142      27.382  -3.552 -15.622  0.00  0.00     0.066 H 
ATOM     57  H   IDY d 142      26.065  -4.644 -15.977  0.00  0.00     0.066 H 
ATOM     58  H   IDY d 142      26.127  -3.073 -16.739  0.00  0.00     0.066 H 
ATOM     59  H   IDY d 142      25.534  -7.007 -17.583  0.00  0.00     0.210 HD
ENDROOT
TORSDOF 18
ENDMDL
MODEL 43
REMARK VINA RESULT:      -5.6      4.170      5.819
REMARK  0 active torsions:
REMARK  status: ('A' for Active; 'I' for Inactive)
REMARK       I    between atoms: S1_1  and  N_36 
REMARK       I    between atoms: S1_1  and  O1S_20 
REMARK       I    between atoms: S1_1  and  O2S_7 
REMARK       I    between atoms: S1_1  and  O3S_31 
REMARK       I    between atoms: C1_2  and  O4_21 
REMARK       I    between atoms: O6_4  and  C6_9 
REMARK       I    between atoms: C2_5  and  O2_18 
REMARK       I    between atoms: C5_6  and  C6_15 
REMARK       I    between atoms: C1_8  and  O1_27 
REMARK       I    between atoms: C6_9  and  C5_16 
REMARK       I    between atoms: S12_12  and  O3_28 
REMARK       I    between atoms: C4_17  and  O4_21 
REMARK       I    between atoms: O2_18  and  S_33 
REMARK       I    between atoms: C3_19  and  O3_28 
REMARK       I    between atoms: C4_23  and  O4_34 
REMARK       I    between atoms: C2_26  and  N_36 
REMARK       I    between atoms: O1_27  and  C7_35 
REMARK       I    between atoms: C3_32  and  O3_37 
ROOT
ATOM      1  S1  GNX d 141      29.682  -9.625 -17.286  0.00  0.00     0.156 S 
ATOM      2  C1  GNX d 141      26.944  -8.362 -19.229  0.00  0.00     0.150 C 
ATOM      3  O32 GNX d 141      31.719  -9.194 -20.895  0.00  0.00    -0.572 OA
ATOM      4  O6  GNX d 141      24.000  -8.875 -21.688  0.00  0.00    -0.398 OA
ATOM      5  O2S GNX d 141      30.877  -9.022 -16.705  0.00  0.00    -0.296 OA
ATOM      6  C6  GNX d 141      25.193  -8.756 -22.430  0.00  0.00     0.043 C 
ATOM      7  S12 GNX d 141      30.936  -9.998 -21.838  0.00  0.00     0.252 S 
ATOM      8  C5  GNX d 141      26.351  -8.456 -21.485  0.00  0.00     0.089 C 
ATOM      9  C3  GNX d 141      28.723  -9.015 -20.877  0.00  0.00     0.107 C 
ATOM     10  O1S GNX d 141      29.938 -10.957 -17.826  0.00  0.00    -0.296 OA
ATOM     11  C4  GNX d 141      27.591  -9.254 -21.870  0.00  0.00     0.090 C 
ATOM     12  O5  GNX d 141      25.975  -8.778 -20.164  0.00  0.00    -0.349 OA
ATOM     13  O12 GNX d 141      31.514 -11.384 -21.849  0.00  0.00    -0.572 OA
ATOM     14  C2  GNX d 141      28.229  -9.155 -19.441  0.00  0.00     0.083 C 
ATOM     15  O3  GNX d 141      29.756  -9.947 -21.111  0.00  0.00    -0.247 OA
ATOM     16  O22 GNX d 141      31.162  -9.417 -23.162  0.00  0.00    -0.572 OA
ATOM     17  O3S GNX d 141      28.562  -9.625 -16.348  0.00  0.00    -0.296 OA
ATOM     18  O4  GNX d 141      28.011  -8.875 -23.161  0.00  0.00    -0.390 OA
ATOM     19  N   GNX d 141      29.251  -8.701 -18.519  0.00  0.00    -0.210 NA
ATOM     20  H   GNX d 141      26.579  -8.535 -18.237  0.00  0.00     0.131 H 
ATOM     21  H   GNX d 141      23.263  -9.066 -22.288  0.00  0.00     0.209 HD
ATOM     22  H   GNX d 141      31.597  -9.040 -17.355  0.00  0.00     0.231 HD
ATOM     23  H   GNX d 141      25.096  -7.960 -23.138  0.00  0.00     0.078 H 
ATOM     24  H   GNX d 141      25.384  -9.673 -22.948  0.00  0.00     0.078 H 
ATOM     25  H   GNX d 141      26.585  -7.415 -21.555  0.00  0.00     0.090 H 
ATOM     26  H   GNX d 141      29.090  -8.019 -21.013  0.00  0.00     0.092 H 
ATOM     27  H   GNX d 141      30.686 -10.917 -18.443  0.00  0.00     0.231 HD
ATOM     28  H   GNX d 141      27.343 -10.294 -21.857  0.00  0.00     0.091 H 
ATOM     29  H   GNX d 141      28.021 -10.187 -19.256  0.00  0.00     0.076 H 
ATOM     30  H   GNX d 141      27.788 -10.032 -16.769  0.00  0.00     0.231 HD
ATOM     31  H   GNX d 141      28.235  -7.931 -23.165  0.00  0.00     0.210 HD
ATOM     32  H   GNX d 141      30.093  -8.535 -19.071  0.00  0.00     0.140 HD
ATOM     33  C2  IDY d 142      28.809  -5.088 -17.374  0.00  0.00     0.134 C 
ATOM     34  C5  IDY d 142      26.231  -4.817 -18.906  0.00  0.00     0.152 C 
ATOM     35  C1  IDY d 142      28.307  -3.826 -18.079  0.00  0.00     0.160 C 
ATOM     36  O5  IDY d 142      27.393  -4.028 -19.160  0.00  0.00    -0.340 OA
ATOM     37  O61 IDY d 142      24.384  -5.078 -20.461  0.00  0.00    -0.646 OA
ATOM     38  OS3 IDY d 142      31.449  -3.706 -18.069  0.00  0.00    -0.572 OA
ATOM     39  OS1 IDY d 142      32.139  -5.772 -19.125  0.00  0.00    -0.572 OA
ATOM     40  C6  IDY d 142      25.674  -5.119 -20.272  0.00  0.00     0.206 C 
ATOM     41  C4  IDY d 142      26.579  -6.132 -18.197  0.00  0.00     0.103 C 
ATOM     42  O2  IDY d 142      29.908  -5.730 -18.063  0.00  0.00    -0.244 OA
ATOM     43  O4  IDY d 142      27.206  -6.988 -19.401  0.00  0.00    -0.348 OA
ATOM     44  O62 IDY d 142      26.461  -5.364 -21.232  0.00  0.00    -0.646 OA
ATOM     45  O1  IDY d 142      28.538  -2.428 -17.357  0.00  0.00    -0.363 OA
ATOM     46  OS2 IDY d 142      32.047  -5.668 -16.751  0.00  0.00    -0.572 OA
ATOM     47  C3  IDY d 142      27.632  -6.028 -17.081  0.00  0.00     0.094 C 
ATOM     48  S   IDY d 142      31.377  -5.211 -17.990  0.00  0.00     0.252 S 
ATOM     49  C7  IDY d 142      28.133  -1.629 -16.969  0.00  0.00     0.007 C 
ATOM     50  O3  IDY d 142      27.000  -5.582 -15.864  0.00  0.00    -0.390 OA
ATOM     51  H   IDY d 142      29.232  -4.798 -16.435  0.00  0.00     0.097 H 
ATOM     52  H   IDY d 142      25.545  -4.300 -18.269  0.00  0.00     0.104 H 
ATOM     53  H   IDY d 142      29.029  -3.446 -18.771  0.00  0.00     0.133 H 
ATOM     54  H   IDY d 142      25.718  -6.529 -17.702  0.00  0.00     0.092 H 
ATOM     55  H   IDY d 142      28.042  -7.012 -16.998  0.00  0.00     0.091 H 
ATOM     56  H   IDY d 142      28.901  -0.980 -16.604  0.00  0.00     0.066 H 
ATOM     57  H   IDY d 142      27.490  -1.911 -16.161  0.00  0.00     0.066 H 
ATOM     58  H   IDY d 142      27.562  -1.120 -17.717  0.00  0.00     0.066 H 
ATOM     59  H   IDY d 142      26.647  -4.687 -15.992  0.00  0.00     0.210 HD
ENDROOT
TORSDOF 18
ENDMDL
MODEL 44
REMARK VINA RESULT:      -5.5      3.068      7.002
REMARK  0 active torsions:
REMARK  status: ('A' for Active; 'I' for Inactive)
REMARK       I    between atoms: S1_1  and  N_36 
REMARK       I    between atoms: S1_1  and  O1S_20 
REMARK       I    between atoms: S1_1  and  O2S_7 
REMARK       I    between atoms: S1_1  and  O3S_31 
REMARK       I    between atoms: C1_2  and  O4_21 
REMARK       I    between atoms: O6_4  and  C6_9 
REMARK       I    between atoms: C2_5  and  O2_18 
REMARK       I    between atoms: C5_6  and  C6_15 
REMARK       I    between atoms: C1_8  and  O1_27 
REMARK       I    between atoms: C6_9  and  C5_16 
REMARK       I    between atoms: S12_12  and  O3_28 
REMARK       I    between atoms: C4_17  and  O4_21 
REMARK       I    between atoms: O2_18  and  S_33 
REMARK       I    between atoms: C3_19  and  O3_28 
REMARK       I    between atoms: C4_23  and  O4_34 
REMARK       I    between atoms: C2_26  and  N_36 
REMARK       I    between atoms: O1_27  and  C7_35 
REMARK       I    between atoms: C3_32  and  O3_37 
ROOT
ATOM      1  S1  GNX d 141      27.805  -2.672 -21.213  0.00  0.00     0.156 S 
ATOM      2  C1  GNX d 141      26.037  -5.427 -22.679  0.00  0.00     0.150 C 
ATOM      3  O32 GNX d 141      24.117  -1.990 -19.396  0.00  0.00    -0.572 OA
ATOM      4  O6  GNX d 141      23.707  -6.916 -25.387  0.00  0.00    -0.398 OA
ATOM      5  O2S GNX d 141      28.347  -2.405 -19.884  0.00  0.00    -0.296 OA
ATOM      6  C6  GNX d 141      22.913  -6.335 -24.377  0.00  0.00     0.043 C 
ATOM      7  S12 GNX d 141      23.188  -1.869 -20.524  0.00  0.00     0.252 S 
ATOM      8  C5  GNX d 141      23.810  -5.830 -23.253  0.00  0.00     0.089 C 
ATOM      9  C3  GNX d 141      24.285  -3.928 -21.682  0.00  0.00     0.107 C 
ATOM     10  O1S GNX d 141      27.211  -1.484 -21.819  0.00  0.00    -0.296 OA
ATOM     11  C4  GNX d 141      23.341  -4.470 -22.749  0.00  0.00     0.090 C 
ATOM     12  O5  GNX d 141      25.136  -5.727 -23.721  0.00  0.00    -0.349 OA
ATOM     13  O12 GNX d 141      23.105  -0.416 -20.896  0.00  0.00    -0.572 OA
ATOM     14  C2  GNX d 141      25.738  -4.035 -22.133  0.00  0.00     0.083 C 
ATOM     15  O3  GNX d 141      23.973  -2.578 -21.421  0.00  0.00    -0.247 OA
ATOM     16  O22 GNX d 141      21.874  -2.269 -20.020  0.00  0.00    -0.572 OA
ATOM     17  O3S GNX d 141      28.795  -3.293 -22.089  0.00  0.00    -0.296 OA
ATOM     18  O4  GNX d 141      22.043  -4.590 -22.211  0.00  0.00    -0.390 OA
ATOM     19  N   GNX d 141      26.624  -3.735 -21.025  0.00  0.00    -0.210 NA
ATOM     20  H   GNX d 141      27.039  -5.454 -23.055  0.00  0.00     0.131 H 
ATOM     21  H   GNX d 141      23.137  -7.238 -26.102  0.00  0.00     0.209 HD
ATOM     22  H   GNX d 141      27.663  -1.994 -19.333  0.00  0.00     0.231 HD
ATOM     23  H   GNX d 141      22.236  -7.067 -23.990  0.00  0.00     0.078 H 
ATOM     24  H   GNX d 141      22.357  -5.517 -24.786  0.00  0.00     0.078 H 
ATOM     25  H   GNX d 141      23.762  -6.525 -22.442  0.00  0.00     0.090 H 
ATOM     26  H   GNX d 141      24.163  -4.510 -20.793  0.00  0.00     0.092 H 
ATOM     27  H   GNX d 141      26.561  -1.101 -21.210  0.00  0.00     0.231 HD
ATOM     28  H   GNX d 141      23.333  -3.787 -23.573  0.00  0.00     0.091 H 
ATOM     29  H   GNX d 141      25.900  -3.326 -22.917  0.00  0.00     0.076 H 
ATOM     30  H   GNX d 141      28.399  -3.455 -22.960  0.00  0.00     0.231 HD
ATOM     31  H   GNX d 141      22.058  -5.210 -21.466  0.00  0.00     0.210 HD
ATOM     32  H   GNX d 141      26.037  -3.392 -20.263  0.00  0.00     0.140 HD
ATOM     33  C2  IDY d 142      27.902  -6.823 -19.184  0.00  0.00     0.134 C 
ATOM     34  C5  IDY d 142      26.505  -8.667 -21.111  0.00  0.00     0.152 C 
ATOM     35  C1  IDY d 142      27.262  -8.170 -18.841  0.00  0.00     0.160 C 
ATOM     36  O5  IDY d 142      26.220  -8.615 -19.713  0.00  0.00    -0.340 OA
ATOM     37  O61 IDY d 142      25.034  -9.651 -22.774  0.00  0.00    -0.646 OA
ATOM     38  OS3 IDY d 142      27.125  -6.381 -16.258  0.00  0.00    -0.572 OA
ATOM     39  OS1 IDY d 142      25.972  -4.375 -16.969  0.00  0.00    -0.572 OA
ATOM     40  C6  IDY d 142      25.158  -8.834 -21.764  0.00  0.00     0.206 C 
ATOM     41  C4  IDY d 142      27.154  -7.371 -21.609  0.00  0.00     0.103 C 
ATOM     42  O2  IDY d 142      27.141  -5.689 -18.706  0.00  0.00    -0.244 OA
ATOM     43  O4  IDY d 142      25.896  -6.377 -21.647  0.00  0.00    -0.348 OA
ATOM     44  O62 IDY d 142      24.155  -8.219 -21.301  0.00  0.00    -0.646 OA
ATOM     45  O1  IDY d 142      28.016  -9.109 -17.801  0.00  0.00    -0.363 OA
ATOM     46  OS2 IDY d 142      28.351  -4.385 -16.935  0.00  0.00    -0.572 OA
ATOM     47  C3  IDY d 142      28.221  -6.762 -20.684  0.00  0.00     0.094 C 
ATOM     48  S   IDY d 142      27.160  -5.218 -17.219  0.00  0.00     0.252 S 
ATOM     49  C7  IDY d 142      28.448  -9.969 -17.637  0.00  0.00     0.007 C 
ATOM     50  O3  IDY d 142      29.481  -7.432 -20.897  0.00  0.00    -0.390 OA
ATOM     51  H   IDY d 142      28.828  -6.750 -18.654  0.00  0.00     0.097 H 
ATOM     52  H   IDY d 142      27.190  -9.457 -21.336  0.00  0.00     0.104 H 
ATOM     53  H   IDY d 142      26.548  -8.077 -18.049  0.00  0.00     0.133 H 
ATOM     54  H   IDY d 142      27.677  -7.543 -22.526  0.00  0.00     0.092 H 
ATOM     55  H   IDY d 142      28.254  -5.726 -20.947  0.00  0.00     0.091 H 
ATOM     56  H   IDY d 142      28.796 -10.006 -16.627  0.00  0.00     0.066 H 
ATOM     57  H   IDY d 142      29.276 -10.085 -18.305  0.00  0.00     0.066 H 
ATOM     58  H   IDY d 142      27.744 -10.758 -17.802  0.00  0.00     0.066 H 
ATOM     59  H   IDY d 142      29.398  -8.364 -20.644  0.00  0.00     0.210 HD
ENDROOT
TORSDOF 18
ENDMDL
MODEL 45
REMARK VINA RESULT:      -5.5      3.304      6.562
REMARK  0 active torsions:
REMARK  status: ('A' for Active; 'I' for Inactive)
REMARK       I    between atoms: S1_1  and  N_36 
REMARK       I    between atoms: S1_1  and  O1S_20 
REMARK       I    between atoms: S1_1  and  O2S_7 
REMARK       I    between atoms: S1_1  and  O3S_31 
REMARK       I    between atoms: C1_2  and  O4_21 
REMARK       I    between atoms: O6_4  and  C6_9 
REMARK       I    between atoms: C2_5  and  O2_18 
REMARK       I    between atoms: C5_6  and  C6_15 
REMARK       I    between atoms: C1_8  and  O1_27 
REMARK       I    between atoms: C6_9  and  C5_16 
REMARK       I    between atoms: S12_12  and  O3_28 
REMARK       I    between atoms: C4_17  and  O4_21 
REMARK       I    between atoms: O2_18  and  S_33 
REMARK       I    between atoms: C3_19  and  O3_28 
REMARK       I    between atoms: C4_23  and  O4_34 
REMARK       I    between atoms: C2_26  and  N_36 
REMARK       I    between atoms: O1_27  and  C7_35 
REMARK       I    between atoms: C3_32  and  O3_37 
ROOT
ATOM      1  S1  GNX d 141      25.494  -8.362 -20.966  0.00  0.00     0.156 S 
ATOM      2  C1  GNX d 141      28.868  -9.568 -21.108  0.00  0.00     0.150 C 
ATOM      3  O32 GNX d 141      27.276  -5.268 -18.817  0.00  0.00    -0.572 OA
ATOM      4  O6  GNX d 141      31.857 -11.493 -19.580  0.00  0.00    -0.398 OA
ATOM      5  O2S GNX d 141      24.771  -7.286 -21.636  0.00  0.00    -0.296 OA
ATOM      6  C6  GNX d 141      31.851 -10.182 -19.061  0.00  0.00     0.043 C 
ATOM      7  S12 GNX d 141      27.955  -5.955 -17.713  0.00  0.00     0.252 S 
ATOM      8  C5  GNX d 141      30.740  -9.378 -19.725  0.00  0.00     0.089 C 
ATOM      9  C3  GNX d 141      28.847  -7.769 -19.356  0.00  0.00     0.107 C 
ATOM     10  O1S GNX d 141      25.109  -8.500 -19.564  0.00  0.00    -0.296 OA
ATOM     11  C4  GNX d 141      30.010  -8.511 -18.707  0.00  0.00     0.090 C 
ATOM     12  O5  GNX d 141      29.824 -10.259 -20.336  0.00  0.00    -0.349 OA
ATOM     13  O12 GNX d 141      27.003  -6.011 -16.553  0.00  0.00    -0.572 OA
ATOM     14  C2  GNX d 141      27.996  -8.716 -20.194  0.00  0.00     0.083 C 
ATOM     15  O3  GNX d 141      28.048  -7.181 -18.353  0.00  0.00    -0.247 OA
ATOM     16  O22 GNX d 141      29.075  -5.097 -17.321  0.00  0.00    -0.572 OA
ATOM     17  O3S GNX d 141      25.380  -9.627 -21.687  0.00  0.00    -0.296 OA
ATOM     18  O4  GNX d 141      30.911  -7.578 -18.152  0.00  0.00    -0.390 OA
ATOM     19  N   GNX d 141      27.042  -7.959 -20.982  0.00  0.00    -0.210 NA
ATOM     20  H   GNX d 141      28.256 -10.273 -21.631  0.00  0.00     0.131 H 
ATOM     21  H   GNX d 141      32.565 -12.005 -19.157  0.00  0.00     0.209 HD
ATOM     22  H   GNX d 141      24.869  -6.466 -21.129  0.00  0.00     0.231 HD
ATOM     23  H   GNX d 141      32.794  -9.716 -19.257  0.00  0.00     0.078 H 
ATOM     24  H   GNX d 141      31.684 -10.217 -18.004  0.00  0.00     0.078 H 
ATOM     25  H   GNX d 141      31.178  -8.738 -20.461  0.00  0.00     0.090 H 
ATOM     26  H   GNX d 141      29.244  -7.011 -19.999  0.00  0.00     0.092 H 
ATOM     27  H   GNX d 141      25.197  -7.643 -19.119  0.00  0.00     0.231 HD
ATOM     28  H   GNX d 141      29.621  -9.144 -17.938  0.00  0.00     0.091 H 
ATOM     29  H   GNX d 141      27.467  -9.368 -19.532  0.00  0.00     0.076 H 
ATOM     30  H   GNX d 141      25.872 -10.315 -21.213  0.00  0.00     0.231 HD
ATOM     31  H   GNX d 141      31.259  -7.007 -18.855  0.00  0.00     0.210 HD
ATOM     32  H   GNX d 141      27.098  -6.991 -20.662  0.00  0.00     0.140 HD
ATOM     33  C2  IDY d 142      28.190  -7.263 -24.553  0.00  0.00     0.134 C 
ATOM     34  C5  IDY d 142      30.710  -8.863 -24.156  0.00  0.00     0.152 C 
ATOM     35  C1  IDY d 142      29.559  -6.958 -25.167  0.00  0.00     0.160 C 
ATOM     36  O5  IDY d 142      30.694  -7.469 -24.463  0.00  0.00    -0.340 OA
ATOM     37  O61 IDY d 142      32.624 -10.043 -23.238  0.00  0.00    -0.646 OA
ATOM     38  OS3 IDY d 142      28.040  -4.223 -24.858  0.00  0.00    -0.572 OA
ATOM     39  OS1 IDY d 142      27.453  -4.115 -22.512  0.00  0.00    -0.572 OA
ATOM     40  C6  IDY d 142      31.823  -9.016 -23.154  0.00  0.00     0.206 C 
ATOM     41  C4  IDY d 142      29.391  -9.323 -23.525  0.00  0.00     0.103 C 
ATOM     42  O2  IDY d 142      27.825  -6.355 -23.488  0.00  0.00    -0.244 OA
ATOM     43  O4  IDY d 142      29.527  -8.737 -22.038  0.00  0.00    -0.348 OA
ATOM     44  O62 IDY d 142      32.001  -8.127 -22.271  0.00  0.00    -0.646 OA
ATOM     45  O1  IDY d 142      29.602  -6.435 -26.668  0.00  0.00    -0.363 OA
ATOM     46  OS2 IDY d 142      25.844  -4.927 -24.065  0.00  0.00    -0.572 OA
ATOM     47  C3  IDY d 142      28.114  -8.743 -24.155  0.00  0.00     0.094 C 
ATOM     48  S   IDY d 142      27.290  -4.913 -23.745  0.00  0.00     0.252 S 
ATOM     49  C7  IDY d 142      29.913  -6.589 -27.581  0.00  0.00     0.007 C 
ATOM     50  O3  IDY d 142      27.771  -9.502 -25.333  0.00  0.00    -0.390 OA
ATOM     51  H   IDY d 142      27.446  -7.091 -25.301  0.00  0.00     0.097 H 
ATOM     52  H   IDY d 142      30.846  -9.452 -25.039  0.00  0.00     0.104 H 
ATOM     53  H   IDY d 142      29.879  -5.962 -24.942  0.00  0.00     0.133 H 
ATOM     54  H   IDY d 142      29.273 -10.381 -23.632  0.00  0.00     0.092 H 
ATOM     55  H   IDY d 142      27.372  -8.814 -23.388  0.00  0.00     0.091 H 
ATOM     56  H   IDY d 142      29.581  -5.790 -28.210  0.00  0.00     0.066 H 
ATOM     57  H   IDY d 142      29.518  -7.516 -27.941  0.00  0.00     0.066 H 
ATOM     58  H   IDY d 142      30.982  -6.630 -27.591  0.00  0.00     0.066 H 
ATOM     59  H   IDY d 142      28.473  -9.405 -25.995  0.00  0.00     0.210 HD
ENDROOT
TORSDOF 18
ENDMDL
MODEL 46
REMARK VINA RESULT:      -5.5      4.060      7.239
REMARK  0 active torsions:
REMARK  status: ('A' for Active; 'I' for Inactive)
REMARK       I    between atoms: S1_1  and  N_36 
REMARK       I    between atoms: S1_1  and  O1S_20 
REMARK       I    between atoms: S1_1  and  O2S_7 
REMARK       I    between atoms: S1_1  and  O3S_31 
REMARK       I    between atoms: C1_2  and  O4_21 
REMARK       I    between atoms: O6_4  and  C6_9 
REMARK       I    between atoms: C2_5  and  O2_18 
REMARK       I    between atoms: C5_6  and  C6_15 
REMARK       I    between atoms: C1_8  and  O1_27 
REMARK       I    between atoms: C6_9  and  C5_16 
REMARK       I    between atoms: S12_12  and  O3_28 
REMARK       I    between atoms: C4_17  and  O4_21 
REMARK       I    between atoms: O2_18  and  S_33 
REMARK       I    between atoms: C3_19  and  O3_28 
REMARK       I    between atoms: C4_23  and  O4_34 
REMARK       I    between atoms: C2_26  and  N_36 
REMARK       I    between atoms: O1_27  and  C7_35 
REMARK       I    between atoms: C3_32  and  O3_37 
ROOT
ATOM      1  S1  GNX d 141      28.869 -10.464 -18.886  0.00  0.00     0.156 S 
ATOM      2  C1  GNX d 141      30.281  -7.304 -19.823  0.00  0.00     0.150 C 
ATOM      3  O32 GNX d 141      26.262  -8.033 -16.727  0.00  0.00    -0.572 OA
ATOM      4  O6  GNX d 141      32.622  -4.295 -19.156  0.00  0.00    -0.398 OA
ATOM      5  O2S GNX d 141      27.656 -11.186 -19.260  0.00  0.00    -0.296 OA
ATOM      6  C6  GNX d 141      31.404  -4.080 -18.478  0.00  0.00     0.043 C 
ATOM      7  S12 GNX d 141      27.150  -7.239 -15.872  0.00  0.00     0.252 S 
ATOM      8  C5  GNX d 141      30.433  -5.207 -18.808  0.00  0.00     0.089 C 
ATOM      9  C3  GNX d 141      28.763  -6.837 -17.878  0.00  0.00     0.107 C 
ATOM     10  O1S GNX d 141      29.183 -10.606 -17.467  0.00  0.00    -0.296 OA
ATOM     11  C4  GNX d 141      29.674  -5.655 -17.565  0.00  0.00     0.090 C 
ATOM     12  O5  GNX d 141      31.146  -6.300 -19.344  0.00  0.00    -0.349 OA
ATOM     13  O12 GNX d 141      27.307  -7.971 -14.570  0.00  0.00    -0.572 OA
ATOM     14  C2  GNX d 141      29.512  -7.913 -18.657  0.00  0.00     0.083 C 
ATOM     15  O3  GNX d 141      28.273  -7.383 -16.674  0.00  0.00    -0.247 OA
ATOM     16  O22 GNX d 141      26.443  -5.989 -15.591  0.00  0.00    -0.572 OA
ATOM     17  O3S GNX d 141      30.002 -10.829 -19.732  0.00  0.00    -0.296 OA
ATOM     18  O4  GNX d 141      28.901  -4.583 -17.074  0.00  0.00    -0.390 OA
ATOM     19  N   GNX d 141      28.580  -8.912 -19.143  0.00  0.00    -0.210 NA
ATOM     20  H   GNX d 141      30.855  -8.066 -20.308  0.00  0.00     0.131 H 
ATOM     21  H   GNX d 141      33.240  -3.578 -18.947  0.00  0.00     0.209 HD
ATOM     22  H   GNX d 141      26.928 -10.919 -18.677  0.00  0.00     0.231 HD
ATOM     23  H   GNX d 141      30.984  -3.146 -18.787  0.00  0.00     0.078 H 
ATOM     24  H   GNX d 141      31.582  -4.059 -17.423  0.00  0.00     0.078 H 
ATOM     25  H   GNX d 141      29.725  -4.847 -19.524  0.00  0.00     0.090 H 
ATOM     26  H   GNX d 141      27.949  -6.488 -18.480  0.00  0.00     0.092 H 
ATOM     27  H   GNX d 141      28.409 -10.356 -16.938  0.00  0.00     0.231 HD
ATOM     28  H   GNX d 141      30.384  -5.962 -16.826  0.00  0.00     0.091 H 
ATOM     29  H   GNX d 141      30.215  -8.377 -17.997  0.00  0.00     0.076 H 
ATOM     30  H   GNX d 141      30.786 -10.330 -19.454  0.00  0.00     0.231 HD
ATOM     31  H   GNX d 141      28.260  -4.311 -17.749  0.00  0.00     0.210 HD
ATOM     32  H   GNX d 141      27.677  -8.705 -18.715  0.00  0.00     0.140 HD
ATOM     33  C2  IDY d 142      27.452  -8.354 -22.744  0.00  0.00     0.134 C 
ATOM     34  C5  IDY d 142      29.271  -5.973 -23.046  0.00  0.00     0.152 C 
ATOM     35  C1  IDY d 142      27.160  -7.093 -23.561  0.00  0.00     0.160 C 
ATOM     36  O5  IDY d 142      27.850  -5.907 -23.159  0.00  0.00    -0.340 OA
ATOM     37  O61 IDY d 142      30.709  -4.053 -22.671  0.00  0.00    -0.646 OA
ATOM     38  OS3 IDY d 142      24.397  -8.257 -22.613  0.00  0.00    -0.572 OA
ATOM     39  OS1 IDY d 142      24.593  -8.404 -20.205  0.00  0.00    -0.572 OA
ATOM     40  C6  IDY d 142      29.650  -4.720 -22.302  0.00  0.00     0.206 C 
ATOM     41  C4  IDY d 142      29.721  -7.199 -22.242  0.00  0.00     0.103 C 
ATOM     42  O2  IDY d 142      26.687  -8.433 -21.520  0.00  0.00    -0.244 OA
ATOM     43  O4  IDY d 142      29.373  -6.743 -20.744  0.00  0.00    -0.348 OA
ATOM     44  O62 IDY d 142      28.916  -4.303 -21.361  0.00  0.00    -0.646 OA
ATOM     45  O1  IDY d 142      26.426  -7.267 -24.962  0.00  0.00    -0.363 OA
ATOM     46  OS2 IDY d 142      25.049 -10.335 -21.517  0.00  0.00    -0.572 OA
ATOM     47  C3  IDY d 142      28.965  -8.504 -22.537  0.00  0.00     0.094 C 
ATOM     48  S   IDY d 142      25.187  -8.861 -21.479  0.00  0.00     0.252 S 
ATOM     49  C7  IDY d 142      26.466  -7.139 -25.929  0.00  0.00     0.007 C 
ATOM     50  O3  IDY d 142      29.516  -9.123 -23.717  0.00  0.00    -0.390 OA
ATOM     51  H   IDY d 142      27.118  -9.199 -23.308  0.00  0.00     0.097 H 
ATOM     52  H   IDY d 142      29.731  -6.055 -24.009  0.00  0.00     0.104 H 
ATOM     53  H   IDY d 142      26.233  -6.642 -23.273  0.00  0.00     0.133 H 
ATOM     54  H   IDY d 142      30.741  -7.437 -22.463  0.00  0.00     0.092 H 
ATOM     55  H   IDY d 142      29.094  -9.101 -21.658  0.00  0.00     0.091 H 
ATOM     56  H   IDY d 142      25.561  -7.498 -26.373  0.00  0.00     0.066 H 
ATOM     57  H   IDY d 142      27.299  -7.682 -26.326  0.00  0.00     0.066 H 
ATOM     58  H   IDY d 142      26.582  -6.098 -26.147  0.00  0.00     0.066 H 
ATOM     59  H   IDY d 142      29.373  -8.545 -24.482  0.00  0.00     0.210 HD
ENDROOT
TORSDOF 18
ENDMDL
MODEL 47
REMARK VINA RESULT:      -5.5      4.260      6.148
REMARK  0 active torsions:
REMARK  status: ('A' for Active; 'I' for Inactive)
REMARK       I    between atoms: S1_1  and  N_36 
REMARK       I    between atoms: S1_1  and  O1S_20 
REMARK       I    between atoms: S1_1  and  O2S_7 
REMARK       I    between atoms: S1_1  and  O3S_31 
REMARK       I    between atoms: C1_2  and  O4_21 
REMARK       I    between atoms: O6_4  and  C6_9 
REMARK       I    between atoms: C2_5  and  O2_18 
REMARK       I    between atoms: C5_6  and  C6_15 
REMARK       I    between atoms: C1_8  and  O1_27 
REMARK       I    between atoms: C6_9  and  C5_16 
REMARK       I    between atoms: S12_12  and  O3_28 
REMARK       I    between atoms: C4_17  and  O4_21 
REMARK       I    between atoms: O2_18  and  S_33 
REMARK       I    between atoms: C3_19  and  O3_28 
REMARK       I    between atoms: C4_23  and  O4_34 
REMARK       I    between atoms: C2_26  and  N_36 
REMARK       I    between atoms: O1_27  and  C7_35 
REMARK       I    between atoms: C3_32  and  O3_37 
ROOT
ATOM      1  S1  GNX d 141      27.381  -7.471 -16.258  0.00  0.00     0.156 S 
ATOM      2  C1  GNX d 141      26.118  -5.938 -19.243  0.00  0.00     0.150 C 
ATOM      3  O32 GNX d 141      29.038 -10.142 -18.993  0.00  0.00    -0.572 OA
ATOM      4  O6  GNX d 141      23.493  -5.662 -22.074  0.00  0.00    -0.398 OA
ATOM      5  O2S GNX d 141      28.694  -7.529 -15.623  0.00  0.00    -0.296 OA
ATOM      6  C6  GNX d 141      24.428  -6.659 -22.420  0.00  0.00     0.043 C 
ATOM      7  S12 GNX d 141      27.881 -10.634 -19.748  0.00  0.00     0.252 S 
ATOM      8  C5  GNX d 141      25.525  -6.715 -21.364  0.00  0.00     0.089 C 
ATOM      9  C3  GNX d 141      26.935  -8.213 -19.923  0.00  0.00     0.107 C 
ATOM     10  O1S GNX d 141      26.658  -8.736 -16.154  0.00  0.00    -0.296 OA
ATOM     11  C4  GNX d 141      25.896  -8.156 -21.037  0.00  0.00     0.090 C 
ATOM     12  O5  GNX d 141      25.084  -6.065 -20.193  0.00  0.00    -0.349 OA
ATOM     13  O12 GNX d 141      27.382 -11.875 -19.065  0.00  0.00    -0.572 OA
ATOM     14  C2  GNX d 141      26.532  -7.321 -18.755  0.00  0.00     0.083 C 
ATOM     15  O3  GNX d 141      27.069  -9.544 -19.474  0.00  0.00    -0.247 OA
ATOM     16  O22 GNX d 141      28.385 -11.029 -21.063  0.00  0.00    -0.572 OA
ATOM     17  O3S GNX d 141      26.587  -6.349 -15.762  0.00  0.00    -0.296 OA
ATOM     18  O4  GNX d 141      26.410  -8.782 -22.192  0.00  0.00    -0.390 OA
ATOM     19  N   GNX d 141      27.631  -7.207 -17.816  0.00  0.00    -0.210 NA
ATOM     20  H   GNX d 141      25.771  -5.356 -18.415  0.00  0.00     0.131 H 
ATOM     21  H   GNX d 141      22.795  -5.626 -22.746  0.00  0.00     0.209 HD
ATOM     22  H   GNX d 141      29.190  -8.284 -15.976  0.00  0.00     0.231 HD
ATOM     23  H   GNX d 141      24.861  -6.428 -23.371  0.00  0.00     0.078 H 
ATOM     24  H   GNX d 141      23.936  -7.608 -22.474  0.00  0.00     0.078 H 
ATOM     25  H   GNX d 141      26.393  -6.222 -21.750  0.00  0.00     0.090 H 
ATOM     26  H   GNX d 141      27.869  -7.862 -20.311  0.00  0.00     0.092 H 
ATOM     27  H   GNX d 141      27.215  -9.455 -16.491  0.00  0.00     0.231 HD
ATOM     28  H   GNX d 141      25.016  -8.666 -20.706  0.00  0.00     0.091 H 
ATOM     29  H   GNX d 141      25.694  -7.768 -18.263  0.00  0.00     0.076 H 
ATOM     30  H   GNX d 141      25.724  -6.344 -16.205  0.00  0.00     0.231 HD
ATOM     31  H   GNX d 141      27.208  -8.315 -22.485  0.00  0.00     0.210 HD
ATOM     32  H   GNX d 141      28.345  -7.872 -18.116  0.00  0.00     0.140 HD
ATOM     33  C2  IDY d 142      29.766  -4.083 -18.302  0.00  0.00     0.134 C 
ATOM     34  C5  IDY d 142      27.974  -3.085 -20.507  0.00  0.00     0.152 C 
ATOM     35  C1  IDY d 142      30.210  -3.308 -19.545  0.00  0.00     0.160 C 
ATOM     36  O5  IDY d 142      29.354  -3.402 -20.687  0.00  0.00    -0.340 OA
ATOM     37  O61 IDY d 142      26.368  -2.878 -22.316  0.00  0.00    -0.646 OA
ATOM     38  OS3 IDY d 142      32.622  -5.121 -18.660  0.00  0.00    -0.572 OA
ATOM     39  OS1 IDY d 142      31.710  -7.362 -18.606  0.00  0.00    -0.572 OA
ATOM     40  C6  IDY d 142      27.305  -3.593 -21.756  0.00  0.00     0.206 C 
ATOM     41  C4  IDY d 142      27.381  -3.799 -19.286  0.00  0.00     0.103 C 
ATOM     42  O2  IDY d 142      30.125  -5.484 -18.343  0.00  0.00    -0.244 OA
ATOM     43  O4  IDY d 142      27.225  -5.298 -19.836  0.00  0.00    -0.348 OA
ATOM     44  O62 IDY d 142      27.687  -4.682 -22.276  0.00  0.00    -0.646 OA
ATOM     45  O1  IDY d 142      31.347  -2.208 -19.370  0.00  0.00    -0.363 OA
ATOM     46  OS2 IDY d 142      31.805  -6.109 -16.586  0.00  0.00    -0.572 OA
ATOM     47  C3  IDY d 142      28.276  -3.835 -18.036  0.00  0.00     0.094 C 
ATOM     48  S   IDY d 142      31.565  -6.003 -18.043  0.00  0.00     0.252 S 
ATOM     49  C7  IDY d 142      31.596  -1.268 -19.450  0.00  0.00     0.007 C 
ATOM     50  O3  IDY d 142      28.154  -2.589 -17.320  0.00  0.00    -0.390 OA
ATOM     51  H   IDY d 142      30.312  -3.705 -17.463  0.00  0.00     0.097 H 
ATOM     52  H   IDY d 142      27.836  -2.037 -20.343  0.00  0.00     0.104 H 
ATOM     53  H   IDY d 142      30.973  -3.830 -20.085  0.00  0.00     0.133 H 
ATOM     54  H   IDY d 142      26.496  -3.298 -18.954  0.00  0.00     0.092 H 
ATOM     55  H   IDY d 142      27.924  -4.673 -17.471  0.00  0.00     0.091 H 
ATOM     56  H   IDY d 142      32.614  -1.142 -19.149  0.00  0.00     0.066 H 
ATOM     57  H   IDY d 142      30.962  -0.677 -18.823  0.00  0.00     0.066 H 
ATOM     58  H   IDY d 142      31.483  -0.954 -20.467  0.00  0.00     0.066 H 
ATOM     59  H   IDY d 142      28.485  -1.865 -17.874  0.00  0.00     0.210 HD
ENDROOT
TORSDOF 18
ENDMDL
MODEL 48
REMARK VINA RESULT:      -5.5      3.244      6.416
REMARK  0 active torsions:
REMARK  status: ('A' for Active; 'I' for Inactive)
REMARK       I    between atoms: S1_1  and  N_36 
REMARK       I    between atoms: S1_1  and  O1S_20 
REMARK       I    between atoms: S1_1  and  O2S_7 
REMARK       I    between atoms: S1_1  and  O3S_31 
REMARK       I    between atoms: C1_2  and  O4_21 
REMARK       I    between atoms: O6_4  and  C6_9 
REMARK       I    between atoms: C2_5  and  O2_18 
REMARK       I    between atoms: C5_6  and  C6_15 
REMARK       I    between atoms: C1_8  and  O1_27 
REMARK       I    between atoms: C6_9  and  C5_16 
REMARK       I    between atoms: S12_12  and  O3_28 
REMARK       I    between atoms: C4_17  and  O4_21 
REMARK       I    between atoms: O2_18  and  S_33 
REMARK       I    between atoms: C3_19  and  O3_28 
REMARK       I    between atoms: C4_23  and  O4_34 
REMARK       I    between atoms: C2_26  and  N_36 
REMARK       I    between atoms: O1_27  and  C7_35 
REMARK       I    between atoms: C3_32  and  O3_37 
ROOT
ATOM      1  S1  GNX d 141      28.607  -7.175 -23.084  0.00  0.00     0.156 S 
ATOM      2  C1  GNX d 141      28.167  -5.159 -20.151  0.00  0.00     0.150 C 
ATOM      3  O32 GNX d 141      27.186 -10.173 -20.562  0.00  0.00    -0.572 OA
ATOM      4  O6  GNX d 141      29.413  -3.780 -16.756  0.00  0.00    -0.398 OA
ATOM      5  O2S GNX d 141      27.693  -7.762 -24.059  0.00  0.00    -0.296 OA
ATOM      6  C6  GNX d 141      28.832  -5.048 -16.543  0.00  0.00     0.043 C 
ATOM      7  S12 GNX d 141      28.117 -10.149 -19.430  0.00  0.00     0.252 S 
ATOM      8  C5  GNX d 141      28.248  -5.564 -17.853  0.00  0.00     0.089 C 
ATOM      9  C3  GNX d 141      28.029  -7.546 -19.381  0.00  0.00     0.107 C 
ATOM     10  O1S GNX d 141      29.719  -8.064 -22.761  0.00  0.00    -0.296 OA
ATOM     11  C4  GNX d 141      28.543  -7.048 -18.034  0.00  0.00     0.090 C 
ATOM     12  O5  GNX d 141      28.797  -4.840 -18.930  0.00  0.00    -0.349 OA
ATOM     13  O12 GNX d 141      29.220 -11.125 -19.722  0.00  0.00    -0.572 OA
ATOM     14  C2  GNX d 141      28.457  -6.612 -20.507  0.00  0.00     0.083 C 
ATOM     15  O3  GNX d 141      28.533  -8.840 -19.626  0.00  0.00    -0.247 OA
ATOM     16  O22 GNX d 141      27.375 -10.658 -18.276  0.00  0.00    -0.572 OA
ATOM     17  O3S GNX d 141      29.070  -5.853 -23.499  0.00  0.00    -0.296 OA
ATOM     18  O4  GNX d 141      27.928  -7.780 -16.997  0.00  0.00    -0.390 OA
ATOM     19  N   GNX d 141      27.773  -6.969 -21.734  0.00  0.00    -0.210 NA
ATOM     20  H   GNX d 141      28.543  -4.521 -20.923  0.00  0.00     0.131 H 
ATOM     21  H   GNX d 141      29.785  -3.451 -15.923  0.00  0.00     0.209 HD
ATOM     22  H   GNX d 141      27.408  -8.636 -23.750  0.00  0.00     0.231 HD
ATOM     23  H   GNX d 141      28.054  -4.966 -15.814  0.00  0.00     0.078 H 
ATOM     24  H   GNX d 141      29.580  -5.729 -16.192  0.00  0.00     0.078 H 
ATOM     25  H   GNX d 141      27.187  -5.432 -17.826  0.00  0.00     0.090 H 
ATOM     26  H   GNX d 141      26.960  -7.569 -19.349  0.00  0.00     0.092 H 
ATOM     27  H   GNX d 141      29.374  -8.929 -22.491  0.00  0.00     0.231 HD
ATOM     28  H   GNX d 141      29.603  -7.190 -18.003  0.00  0.00     0.091 H 
ATOM     29  H   GNX d 141      29.513  -6.719 -20.649  0.00  0.00     0.076 H 
ATOM     30  H   GNX d 141      29.673  -5.497 -22.828  0.00  0.00     0.231 HD
ATOM     31  H   GNX d 141      26.968  -7.647 -17.033  0.00  0.00     0.210 HD
ATOM     32  H   GNX d 141      27.283  -7.846 -21.554  0.00  0.00     0.140 HD
ATOM     33  C2  IDY d 142      24.641  -4.900 -22.417  0.00  0.00     0.134 C 
ATOM     34  C5  IDY d 142      25.114  -3.203 -19.975  0.00  0.00     0.152 C 
ATOM     35  C1  IDY d 142      23.563  -4.310 -21.505  0.00  0.00     0.160 C 
ATOM     36  O5  IDY d 142      23.960  -4.021 -20.162  0.00  0.00    -0.340 OA
ATOM     37  O61 IDY d 142      25.838  -2.320 -17.832  0.00  0.00    -0.646 OA
ATOM     38  OS3 IDY d 142      22.393  -6.948 -22.754  0.00  0.00    -0.572 OA
ATOM     39  OS1 IDY d 142      24.000  -8.662 -22.170  0.00  0.00    -0.572 OA
ATOM     40  C6  IDY d 142      25.459  -3.363 -18.518  0.00  0.00     0.206 C 
ATOM     41  C4  IDY d 142      26.294  -3.677 -20.833  0.00  0.00     0.103 C 
ATOM     42  O2  IDY d 142      24.809  -6.327 -22.256  0.00  0.00    -0.244 OA
ATOM     43  O4  IDY d 142      26.775  -4.976 -20.024  0.00  0.00    -0.348 OA
ATOM     44  O62 IDY d 142      25.336  -4.494 -17.964  0.00  0.00    -0.646 OA
ATOM     45  O1  IDY d 142      22.240  -3.744 -22.184  0.00  0.00    -0.363 OA
ATOM     46  OS2 IDY d 142      24.152  -7.622 -24.304  0.00  0.00    -0.572 OA
ATOM     47  C3  IDY d 142      25.944  -4.105 -22.268  0.00  0.00     0.094 C 
ATOM     48  S   IDY d 142      23.835  -7.375 -22.878  0.00  0.00     0.252 S 
ATOM     49  C7  IDY d 142      21.664  -2.971 -22.336  0.00  0.00     0.007 C 
ATOM     50  O3  IDY d 142      25.851  -2.937 -23.109  0.00  0.00    -0.390 OA
ATOM     51  H   IDY d 142      24.312  -4.795 -23.429  0.00  0.00     0.097 H 
ATOM     52  H   IDY d 142      24.919  -2.189 -20.259  0.00  0.00     0.104 H 
ATOM     53  H   IDY d 142      22.900  -5.066 -21.137  0.00  0.00     0.133 H 
ATOM     54  H   IDY d 142      27.001  -2.885 -20.965  0.00  0.00     0.092 H 
ATOM     55  H   IDY d 142      26.737  -4.761 -22.559  0.00  0.00     0.091 H 
ATOM     56  H   IDY d 142      20.831  -3.261 -22.942  0.00  0.00     0.066 H 
ATOM     57  H   IDY d 142      22.219  -2.205 -22.836  0.00  0.00     0.066 H 
ATOM     58  H   IDY d 142      21.310  -2.600 -21.397  0.00  0.00     0.066 H 
ATOM     59  H   IDY d 142      25.120  -2.377 -22.804  0.00  0.00     0.210 HD
ENDROOT
TORSDOF 18
ENDMDL
MODEL 49
REMARK VINA RESULT:      -5.5      2.494      3.071
REMARK  0 active torsions:
REMARK  status: ('A' for Active; 'I' for Inactive)
REMARK       I    between atoms: S1_1  and  N_36 
REMARK       I    between atoms: S1_1  and  O1S_20 
REMARK       I    between atoms: S1_1  and  O2S_7 
REMARK       I    between atoms: S1_1  and  O3S_31 
REMARK       I    between atoms: C1_2  and  O4_21 
REMARK       I    between atoms: O6_4  and  C6_9 
REMARK       I    between atoms: C2_5  and  O2_18 
REMARK       I    between atoms: C5_6  and  C6_15 
REMARK       I    between atoms: C1_8  and  O1_27 
REMARK       I    between atoms: C6_9  and  C5_16 
REMARK       I    between atoms: S12_12  and  O3_28 
REMARK       I    between atoms: C4_17  and  O4_21 
REMARK       I    between atoms: O2_18  and  S_33 
REMARK       I    between atoms: C3_19  and  O3_28 
REMARK       I    between atoms: C4_23  and  O4_34 
REMARK       I    between atoms: C2_26  and  N_36 
REMARK       I    between atoms: O1_27  and  C7_35 
REMARK       I    between atoms: C3_32  and  O3_37 
ROOT
ATOM      1  S1  GNX d 141      26.296  -8.659 -19.563  0.00  0.00     0.156 S 
ATOM      2  C1  GNX d 141      27.108  -8.260 -23.033  0.00  0.00     0.150 C 
ATOM      3  O32 GNX d 141      30.444  -8.719 -19.170  0.00  0.00    -0.572 OA
ATOM      4  O6  GNX d 141      28.054  -9.716 -26.492  0.00  0.00    -0.398 OA
ATOM      5  O2S GNX d 141      26.343  -7.777 -18.401  0.00  0.00    -0.296 OA
ATOM      6  C6  GNX d 141      29.227  -9.585 -25.720  0.00  0.00     0.043 C 
ATOM      7  S12 GNX d 141      30.864  -9.814 -20.051  0.00  0.00     0.252 S 
ATOM      8  C5  GNX d 141      28.889  -8.922 -24.390  0.00  0.00     0.089 C 
ATOM      9  C3  GNX d 141      29.230  -8.984 -21.902  0.00  0.00     0.107 C 
ATOM     10  O1S GNX d 141      26.704 -10.024 -19.240  0.00  0.00    -0.296 OA
ATOM     11  C4  GNX d 141      29.631  -9.593 -23.241  0.00  0.00     0.090 C 
ATOM     12  O5  GNX d 141      27.499  -9.004 -24.165  0.00  0.00    -0.349 OA
ATOM     13  O12 GNX d 141      30.918 -11.069 -19.229  0.00  0.00    -0.572 OA
ATOM     14  C2  GNX d 141      27.714  -8.882 -21.781  0.00  0.00     0.083 C 
ATOM     15  O3  GNX d 141      29.734  -9.781 -20.854  0.00  0.00    -0.247 OA
ATOM     16  O22 GNX d 141      32.232  -9.504 -20.470  0.00  0.00    -0.572 OA
ATOM     17  O3S GNX d 141      24.993  -8.622 -20.222  0.00  0.00    -0.296 OA
ATOM     18  O4  GNX d 141      31.021  -9.444 -23.428  0.00  0.00    -0.390 OA
ATOM     19  N   GNX d 141      27.362  -8.095 -20.615  0.00  0.00    -0.210 NA
ATOM     20  H   GNX d 141      26.040  -8.267 -22.954  0.00  0.00     0.131 H 
ATOM     21  H   GNX d 141      28.269 -10.137 -27.339  0.00  0.00     0.209 HD
ATOM     22  H   GNX d 141      27.221  -7.828 -17.992  0.00  0.00     0.231 HD
ATOM     23  H   GNX d 141      29.937  -8.983 -26.248  0.00  0.00     0.078 H 
ATOM     24  H   GNX d 141      29.646 -10.554 -25.540  0.00  0.00     0.078 H 
ATOM     25  H   GNX d 141      29.192  -7.898 -24.435  0.00  0.00     0.090 H 
ATOM     26  H   GNX d 141      29.641  -7.997 -21.842  0.00  0.00     0.092 H 
ATOM     27  H   GNX d 141      27.570 -10.008 -18.805  0.00  0.00     0.231 HD
ATOM     28  H   GNX d 141      29.374 -10.632 -23.231  0.00  0.00     0.091 H 
ATOM     29  H   GNX d 141      27.318  -9.870 -21.672  0.00  0.00     0.076 H 
ATOM     30  H   GNX d 141      25.001  -9.219 -20.987  0.00  0.00     0.231 HD
ATOM     31  H   GNX d 141      31.246  -8.500 -23.436  0.00  0.00     0.210 HD
ATOM     32  H   GNX d 141      28.226  -7.930 -20.099  0.00  0.00     0.140 HD
ATOM     33  C2  IDY d 142      26.650  -4.426 -21.381  0.00  0.00     0.134 C 
ATOM     34  C5  IDY d 142      27.018  -4.873 -24.336  0.00  0.00     0.152 C 
ATOM     35  C1  IDY d 142      27.256  -3.433 -22.375  0.00  0.00     0.160 C 
ATOM     36  O5  IDY d 142      27.831  -3.995 -23.558  0.00  0.00    -0.340 OA
ATOM     37  O61 IDY d 142      27.631  -5.729 -26.524  0.00  0.00    -0.646 OA
ATOM     38  OS3 IDY d 142      28.546  -2.854 -19.567  0.00  0.00    -0.572 OA
ATOM     39  OS1 IDY d 142      29.494  -4.973 -18.884  0.00  0.00    -0.572 OA
ATOM     40  C6  IDY d 142      27.982  -5.539 -25.282  0.00  0.00     0.206 C 
ATOM     41  C4  IDY d 142      26.338  -5.938 -23.468  0.00  0.00     0.103 C 
ATOM     42  O2  IDY d 142      27.630  -5.032 -20.507  0.00  0.00    -0.244 OA
ATOM     43  O4  IDY d 142      27.560  -6.931 -23.165  0.00  0.00    -0.348 OA
ATOM     44  O62 IDY d 142      29.135  -5.867 -24.877  0.00  0.00    -0.646 OA
ATOM     45  O1  IDY d 142      26.893  -1.893 -22.205  0.00  0.00    -0.363 OA
ATOM     46  OS2 IDY d 142      27.327  -4.377 -18.103  0.00  0.00    -0.572 OA
ATOM     47  C3  IDY d 142      25.775  -5.443 -22.126  0.00  0.00     0.094 C 
ATOM     48  S   IDY d 142      28.236  -4.300 -19.270  0.00  0.00     0.252 S 
ATOM     49  C7  IDY d 142      26.488  -1.098 -22.601  0.00  0.00     0.007 C 
ATOM     50  O3  IDY d 142      24.480  -4.844 -22.339  0.00  0.00    -0.390 OA
ATOM     51  H   IDY d 142      26.015  -3.882 -20.714  0.00  0.00     0.097 H 
ATOM     52  H   IDY d 142      26.235  -4.337 -24.831  0.00  0.00     0.104 H 
ATOM     53  H   IDY d 142      28.228  -3.109 -22.066  0.00  0.00     0.133 H 
ATOM     54  H   IDY d 142      25.485  -6.342 -23.972  0.00  0.00     0.092 H 
ATOM     55  H   IDY d 142      25.730  -6.316 -21.509  0.00  0.00     0.091 H 
ATOM     56  H   IDY d 142      26.562  -0.281 -21.916  0.00  0.00     0.066 H 
ATOM     57  H   IDY d 142      25.458  -1.292 -22.817  0.00  0.00     0.066 H 
ATOM     58  H   IDY d 142      27.001  -0.851 -23.508  0.00  0.00     0.066 H 
ATOM     59  H   IDY d 142      24.576  -4.060 -22.902  0.00  0.00     0.210 HD
ENDROOT
TORSDOF 18
ENDMDL
MODEL 50
REMARK VINA RESULT:      -5.5      2.702      6.456
REMARK  0 active torsions:
REMARK  status: ('A' for Active; 'I' for Inactive)
REMARK       I    between atoms: S1_1  and  N_36 
REMARK       I    between atoms: S1_1  and  O1S_20 
REMARK       I    between atoms: S1_1  and  O2S_7 
REMARK       I    between atoms: S1_1  and  O3S_31 
REMARK       I    between atoms: C1_2  and  O4_21 
REMARK       I    between atoms: O6_4  and  C6_9 
REMARK       I    between atoms: C2_5  and  O2_18 
REMARK       I    between atoms: C5_6  and  C6_15 
REMARK       I    between atoms: C1_8  and  O1_27 
REMARK       I    between atoms: C6_9  and  C5_16 
REMARK       I    between atoms: S12_12  and  O3_28 
REMARK       I    between atoms: C4_17  and  O4_21 
REMARK       I    between atoms: O2_18  and  S_33 
REMARK       I    between atoms: C3_19  and  O3_28 
REMARK       I    between atoms: C4_23  and  O4_34 
REMARK       I    between atoms: C2_26  and  N_36 
REMARK       I    between atoms: O1_27  and  C7_35 
REMARK       I    between atoms: C3_32  and  O3_37 
ROOT
ATOM      1  S1  GNX d 141      26.127  -7.985 -25.964  0.00  0.00     0.156 S 
ATOM      2  C1  GNX d 141      25.215  -5.746 -23.316  0.00  0.00     0.150 C 
ATOM      3  O32 GNX d 141      29.470  -5.505 -26.163  0.00  0.00    -0.572 OA
ATOM      4  O6  GNX d 141      23.638  -2.448 -22.044  0.00  0.00    -0.398 OA
ATOM      5  O2S GNX d 141      27.100  -9.066 -26.091  0.00  0.00    -0.296 OA
ATOM      6  C6  GNX d 141      24.969  -2.192 -22.435  0.00  0.00     0.043 C 
ATOM      7  S12 GNX d 141      28.903  -4.169 -26.369  0.00  0.00     0.252 S 
ATOM      8  C5  GNX d 141      25.637  -3.498 -22.847  0.00  0.00     0.089 C 
ATOM      9  C3  GNX d 141      27.092  -4.628 -24.555  0.00  0.00     0.107 C 
ATOM     10  O1S GNX d 141      26.028  -7.183 -27.181  0.00  0.00    -0.296 OA
ATOM     11  C4  GNX d 141      26.489  -3.305 -24.096  0.00  0.00     0.090 C 
ATOM     12  O5  GNX d 141      24.650  -4.473 -23.096  0.00  0.00    -0.349 OA
ATOM     13  O12 GNX d 141      28.824  -3.929 -27.850  0.00  0.00    -0.572 OA
ATOM     14  C2  GNX d 141      26.033  -5.724 -24.601  0.00  0.00     0.083 C 
ATOM     15  O3  GNX d 141      27.659  -4.467 -25.836  0.00  0.00    -0.247 OA
ATOM     16  O22 GNX d 141      29.875  -3.220 -25.822  0.00  0.00    -0.572 OA
ATOM     17  O3S GNX d 141      24.822  -8.476 -25.529  0.00  0.00    -0.296 OA
ATOM     18  O4  GNX d 141      27.523  -2.387 -23.822  0.00  0.00    -0.390 OA
ATOM     19  N   GNX d 141      26.663  -7.013 -24.812  0.00  0.00    -0.210 NA
ATOM     20  H   GNX d 141      24.433  -6.472 -23.403  0.00  0.00     0.131 H 
ATOM     21  H   GNX d 141      23.212  -1.617 -21.782  0.00  0.00     0.209 HD
ATOM     22  H   GNX d 141      27.951  -8.702 -26.381  0.00  0.00     0.231 HD
ATOM     23  H   GNX d 141      25.505  -1.760 -21.616  0.00  0.00     0.078 H 
ATOM     24  H   GNX d 141      24.973  -1.512 -23.262  0.00  0.00     0.078 H 
ATOM     25  H   GNX d 141      26.275  -3.818 -22.050  0.00  0.00     0.090 H 
ATOM     26  H   GNX d 141      27.848  -4.918 -23.854  0.00  0.00     0.092 H 
ATOM     27  H   GNX d 141      26.911  -6.875 -27.438  0.00  0.00     0.231 HD
ATOM     28  H   GNX d 141      25.864  -2.929 -24.878  0.00  0.00     0.091 H 
ATOM     29  H   GNX d 141      25.372  -5.518 -25.417  0.00  0.00     0.076 H 
ATOM     30  H   GNX d 141      24.204  -7.731 -25.457  0.00  0.00     0.231 HD
ATOM     31  H   GNX d 141      28.086  -2.735 -23.113  0.00  0.00     0.210 HD
ATOM     32  H   GNX d 141      27.646  -6.831 -25.013  0.00  0.00     0.140 HD
ATOM     33  C2  IDY d 142      27.272  -8.980 -21.600  0.00  0.00     0.134 C 
ATOM     34  C5  IDY d 142      25.921  -6.866 -19.936  0.00  0.00     0.152 C 
ATOM     35  C1  IDY d 142      27.664  -8.562 -20.181  0.00  0.00     0.160 C 
ATOM     36  O5  IDY d 142      27.290  -7.239 -19.787  0.00  0.00    -0.340 OA
ATOM     37  O61 IDY d 142      24.961  -4.805 -19.083  0.00  0.00    -0.646 OA
ATOM     38  OS3 IDY d 142      30.269  -9.599 -21.605  0.00  0.00    -0.572 OA
ATOM     39  OS1 IDY d 142      30.445  -8.251 -23.607  0.00  0.00    -0.572 OA
ATOM     40  C6  IDY d 142      25.917  -5.370 -19.768  0.00  0.00     0.206 C 
ATOM     41  C4  IDY d 142      25.381  -7.224 -21.326  0.00  0.00     0.103 C 
ATOM     42  O2  IDY d 142      28.198  -8.516 -22.610  0.00  0.00    -0.244 OA
ATOM     43  O4  IDY d 142      26.051  -6.083 -22.232  0.00  0.00    -0.348 OA
ATOM     44  O62 IDY d 142      26.862  -4.681 -20.251  0.00  0.00    -0.646 OA
ATOM     45  O1  IDY d 142      28.111  -9.702 -19.166  0.00  0.00    -0.363 OA
ATOM     46  OS2 IDY d 142      29.417 -10.392 -23.748  0.00  0.00    -0.572 OA
ATOM     47  C3  IDY d 142      25.814  -8.592 -21.876  0.00  0.00     0.094 C 
ATOM     48  S   IDY d 142      29.573  -9.200 -22.883  0.00  0.00     0.252 S 
ATOM     49  C7  IDY d 142      27.939 -10.161 -18.322  0.00  0.00     0.007 C 
ATOM     50  O3  IDY d 142      24.968  -9.622 -21.324  0.00  0.00    -0.390 OA
ATOM     51  H   IDY d 142      27.341 -10.046 -21.663  0.00  0.00     0.097 H 
ATOM     52  H   IDY d 142      25.302  -7.377 -19.228  0.00  0.00     0.104 H 
ATOM     53  H   IDY d 142      28.694  -8.280 -20.123  0.00  0.00     0.133 H 
ATOM     54  H   IDY d 142      24.312  -7.279 -21.309  0.00  0.00     0.092 H 
ATOM     55  H   IDY d 142      25.718  -8.504 -22.938  0.00  0.00     0.091 H 
ATOM     56  H   IDY d 142      28.672 -10.926 -18.175  0.00  0.00     0.066 H 
ATOM     57  H   IDY d 142      26.964 -10.602 -18.348  0.00  0.00     0.066 H 
ATOM     58  H   IDY d 142      27.991  -9.458 -17.516  0.00  0.00     0.066 H 
ATOM     59  H   IDY d 142      25.093  -9.661 -20.363  0.00  0.00     0.210 HD
ENDROOT
TORSDOF 18
ENDMDL
MODEL 51
REMARK VINA RESULT:      -5.5      5.356      8.117
REMARK  0 active torsions:
REMARK  status: ('A' for Active; 'I' for Inactive)
REMARK       I    between atoms: S1_1  and  N_36 
REMARK       I    between atoms: S1_1  and  O1S_20 
REMARK       I    between atoms: S1_1  and  O2S_7 
REMARK       I    between atoms: S1_1  and  O3S_31 
REMARK       I    between atoms: C1_2  and  O4_21 
REMARK       I    between atoms: O6_4  and  C6_9 
REMARK       I    between atoms: C2_5  and  O2_18 
REMARK       I    between atoms: C5_6  and  C6_15 
REMARK       I    between atoms: C1_8  and  O1_27 
REMARK       I    between atoms: C6_9  and  C5_16 
REMARK       I    between atoms: S12_12  and  O3_28 
REMARK       I    between atoms: C4_17  and  O4_21 
REMARK       I    between atoms: O2_18  and  S_33 
REMARK       I    between atoms: C3_19  and  O3_28 
REMARK       I    between atoms: C4_23  and  O4_34 
REMARK       I    between atoms: C2_26  and  N_36 
REMARK       I    between atoms: O1_27  and  C7_35 
REMARK       I    between atoms: C3_32  and  O3_37 
ROOT
ATOM      1  S1  GNX d 141      27.103  -9.527 -19.633  0.00  0.00     0.156 S 
ATOM      2  C1  GNX d 141      28.666  -6.306 -19.843  0.00  0.00     0.150 C 
ATOM      3  O32 GNX d 141      30.299 -10.623 -22.072  0.00  0.00    -0.572 OA
ATOM      4  O6  GNX d 141      29.278  -2.936 -21.644  0.00  0.00    -0.398 OA
ATOM      5  O2S GNX d 141      27.413 -10.761 -18.918  0.00  0.00    -0.296 OA
ATOM      6  C6  GNX d 141      30.135  -3.908 -22.201  0.00  0.00     0.043 C 
ATOM      7  S12 GNX d 141      30.186  -9.723 -23.224  0.00  0.00     0.252 S 
ATOM      8  C5  GNX d 141      29.978  -5.219 -21.439  0.00  0.00     0.089 C 
ATOM      9  C3  GNX d 141      29.722  -7.709 -21.638  0.00  0.00     0.107 C 
ATOM     10  O1S GNX d 141      26.587  -9.778 -20.976  0.00  0.00    -0.296 OA
ATOM     11  C4  GNX d 141      29.961  -6.406 -22.393  0.00  0.00     0.090 C 
ATOM     12  O5  GNX d 141      28.779  -5.191 -20.698  0.00  0.00    -0.349 OA
ATOM     13  O12 GNX d 141      29.350 -10.414 -24.264  0.00  0.00    -0.572 OA
ATOM     14  C2  GNX d 141      28.547  -7.576 -20.677  0.00  0.00     0.083 C 
ATOM     15  O3  GNX d 141      29.462  -8.745 -22.560  0.00  0.00    -0.247 OA
ATOM     16  O22 GNX d 141      31.536  -9.580 -23.770  0.00  0.00    -0.572 OA
ATOM     17  O3S GNX d 141      26.215  -8.660 -18.863  0.00  0.00    -0.296 OA
ATOM     18  O4  GNX d 141      31.191  -6.478 -23.077  0.00  0.00    -0.390 OA
ATOM     19  N   GNX d 141      28.483  -8.736 -19.809  0.00  0.00    -0.210 NA
ATOM     20  H   GNX d 141      27.795  -6.198 -19.231  0.00  0.00     0.131 H 
ATOM     21  H   GNX d 141      29.377  -2.102 -22.129  0.00  0.00     0.209 HD
ATOM     22  H   GNX d 141      28.002 -11.309 -19.459  0.00  0.00     0.231 HD
ATOM     23  H   GNX d 141      31.148  -3.573 -22.130  0.00  0.00     0.078 H 
ATOM     24  H   GNX d 141      29.881  -4.061 -23.229  0.00  0.00     0.078 H 
ATOM     25  H   GNX d 141      30.813  -5.329 -20.779  0.00  0.00     0.090 H 
ATOM     26  H   GNX d 141      30.600  -7.938 -21.070  0.00  0.00     0.092 H 
ATOM     27  H   GNX d 141      27.201 -10.356 -21.455  0.00  0.00     0.231 HD
ATOM     28  H   GNX d 141      29.162  -6.269 -23.091  0.00  0.00     0.091 H 
ATOM     29  H   GNX d 141      27.647  -7.517 -21.252  0.00  0.00     0.076 H 
ATOM     30  H   GNX d 141      26.033  -7.853 -19.369  0.00  0.00     0.231 HD
ATOM     31  H   GNX d 141      31.910  -6.603 -22.439  0.00  0.00     0.210 HD
ATOM     32  H   GNX d 141      29.164  -9.408 -20.164  0.00  0.00     0.140 HD
ATOM     33  C2  IDY d 142      30.157  -8.226 -16.418  0.00  0.00     0.134 C 
ATOM     34  C5  IDY d 142      30.783  -5.350 -17.053  0.00  0.00     0.152 C 
ATOM     35  C1  IDY d 142      31.403  -7.456 -15.977  0.00  0.00     0.160 C 
ATOM     36  O5  IDY d 142      31.777  -6.340 -16.791  0.00  0.00    -0.340 OA
ATOM     37  O61 IDY d 142      31.217  -3.227 -18.148  0.00  0.00    -0.646 OA
ATOM     38  OS3 IDY d 142      32.205 -10.489 -16.196  0.00  0.00    -0.572 OA
ATOM     39  OS1 IDY d 142      31.618 -11.111 -18.461  0.00  0.00    -0.572 OA
ATOM     40  C6  IDY d 142      31.359  -4.524 -18.172  0.00  0.00     0.206 C 
ATOM     41  C4  IDY d 142      29.461  -5.978 -17.512  0.00  0.00     0.103 C 
ATOM     42  O2  IDY d 142      30.420  -9.192 -17.463  0.00  0.00    -0.244 OA
ATOM     43  O4  IDY d 142      29.810  -6.387 -19.023  0.00  0.00    -0.348 OA
ATOM     44  O62 IDY d 142      32.012  -5.087 -19.097  0.00  0.00    -0.646 OA
ATOM     45  O1  IDY d 142      31.956  -7.713 -14.508  0.00  0.00    -0.363 OA
ATOM     46  OS2 IDY d 142      30.075 -11.561 -16.707  0.00  0.00    -0.572 OA
ATOM     47  C3  IDY d 142      29.027  -7.245 -16.757  0.00  0.00     0.094 C 
ATOM     48  S   IDY d 142      31.075 -10.582 -17.192  0.00  0.00     0.252 S 
ATOM     49  C7  IDY d 142      32.165  -7.333 -13.634  0.00  0.00     0.007 C 
ATOM     50  O3  IDY d 142      28.378  -6.872 -15.524  0.00  0.00    -0.390 OA
ATOM     51  H   IDY d 142      29.828  -8.825 -15.595  0.00  0.00     0.097 H 
ATOM     52  H   IDY d 142      30.560  -4.783 -16.173  0.00  0.00     0.104 H 
ATOM     53  H   IDY d 142      32.302  -7.959 -16.269  0.00  0.00     0.133 H 
ATOM     54  H   IDY d 142      28.650  -5.296 -17.358  0.00  0.00     0.092 H 
ATOM     55  H   IDY d 142      28.372  -7.755 -17.431  0.00  0.00     0.091 H 
ATOM     56  H   IDY d 142      32.554  -8.099 -12.996  0.00  0.00     0.066 H 
ATOM     57  H   IDY d 142      31.276  -6.925 -13.200  0.00  0.00     0.066 H 
ATOM     58  H   IDY d 142      32.895  -6.559 -13.746  0.00  0.00     0.066 H 
ATOM     59  H   IDY d 142      29.013  -6.415 -14.951  0.00  0.00     0.210 HD
ENDROOT
TORSDOF 18
ENDMDL
MODEL 52
REMARK VINA RESULT:      -5.5      4.200      5.703
REMARK  0 active torsions:
REMARK  status: ('A' for Active; 'I' for Inactive)
REMARK       I    between atoms: S1_1  and  N_36 
REMARK       I    between atoms: S1_1  and  O1S_20 
REMARK       I    between atoms: S1_1  and  O2S_7 
REMARK       I    between atoms: S1_1  and  O3S_31 
REMARK       I    between atoms: C1_2  and  O4_21 
REMARK       I    between atoms: O6_4  and  C6_9 
REMARK       I    between atoms: C2_5  and  O2_18 
REMARK       I    between atoms: C5_6  and  C6_15 
REMARK       I    between atoms: C1_8  and  O1_27 
REMARK       I    between atoms: C6_9  and  C5_16 
REMARK       I    between atoms: S12_12  and  O3_28 
REMARK       I    between atoms: C4_17  and  O4_21 
REMARK       I    between atoms: O2_18  and  S_33 
REMARK       I    between atoms: C3_19  and  O3_28 
REMARK       I    between atoms: C4_23  and  O4_34 
REMARK       I    between atoms: C2_26  and  N_36 
REMARK       I    between atoms: O1_27  and  C7_35 
REMARK       I    between atoms: C3_32  and  O3_37 
ROOT
ATOM      1  S1  GNX d 141      27.864  -6.923 -15.772  0.00  0.00     0.156 S 
ATOM      2  C1  GNX d 141      26.271  -7.092 -18.980  0.00  0.00     0.150 C 
ATOM      3  O32 GNX d 141      30.717  -9.286 -17.680  0.00  0.00    -0.572 OA
ATOM      4  O6  GNX d 141      24.000  -8.875 -21.558  0.00  0.00    -0.398 OA
ATOM      5  O2S GNX d 141      29.021  -6.202 -15.249  0.00  0.00    -0.296 OA
ATOM      6  C6  GNX d 141      25.301  -9.412 -21.653  0.00  0.00     0.043 C 
ATOM      7  S12 GNX d 141      29.951 -10.440 -18.162  0.00  0.00     0.252 S 
ATOM      8  C5  GNX d 141      26.233  -8.655 -20.714  0.00  0.00     0.089 C 
ATOM      9  C3  GNX d 141      28.051  -8.863 -18.994  0.00  0.00     0.107 C 
ATOM     10  O1S GNX d 141      27.766  -8.278 -15.236  0.00  0.00    -0.296 OA
ATOM     11  C4  GNX d 141      27.175  -9.611 -19.993  0.00  0.00     0.090 C 
ATOM     12  O5  GNX d 141      25.468  -7.944 -19.767  0.00  0.00    -0.349 OA
ATOM     13  O12 GNX d 141      30.001 -11.500 -17.100  0.00  0.00    -0.572 OA
ATOM     14  C2  GNX d 141      27.215  -7.930 -18.126  0.00  0.00     0.083 C 
ATOM     15  O3  GNX d 141      28.725  -9.792 -18.174  0.00  0.00    -0.247 OA
ATOM     16  O22 GNX d 141      30.669 -10.953 -19.329  0.00  0.00    -0.572 OA
ATOM     17  O3S GNX d 141      26.625  -6.173 -15.584  0.00  0.00    -0.296 OA
ATOM     18  O4  GNX d 141      27.993 -10.266 -20.938  0.00  0.00    -0.390 OA
ATOM     19  N   GNX d 141      28.083  -7.065 -17.351  0.00  0.00    -0.210 NA
ATOM     20  H   GNX d 141      25.645  -6.501 -18.344  0.00  0.00     0.131 H 
ATOM     21  H   GNX d 141      23.407  -9.356 -22.155  0.00  0.00     0.209 HD
ATOM     22  H   GNX d 141      29.822  -6.730 -15.392  0.00  0.00     0.231 HD
ATOM     23  H   GNX d 141      25.654  -9.317 -22.659  0.00  0.00     0.078 H 
ATOM     24  H   GNX d 141      25.280 -10.447 -21.379  0.00  0.00     0.078 H 
ATOM     25  H   GNX d 141      26.820  -7.976 -21.295  0.00  0.00     0.090 H 
ATOM     26  H   GNX d 141      28.760  -8.275 -19.539  0.00  0.00     0.092 H 
ATOM     27  H   GNX d 141      28.605  -8.744 -15.379  0.00  0.00     0.231 HD
ATOM     28  H   GNX d 141      26.588 -10.328 -19.459  0.00  0.00     0.091 H 
ATOM     29  H   GNX d 141      26.627  -8.527 -17.462  0.00  0.00     0.076 H 
ATOM     30  H   GNX d 141      25.881  -6.682 -15.942  0.00  0.00     0.231 HD
ATOM     31  H   GNX d 141      28.522  -9.610 -21.418  0.00  0.00     0.210 HD
ATOM     32  H   GNX d 141      29.035  -7.405 -17.487  0.00  0.00     0.140 HD
ATOM     33  C2  IDY d 142      28.655  -3.635 -18.921  0.00  0.00     0.134 C 
ATOM     34  C5  IDY d 142      26.768  -4.251 -21.185  0.00  0.00     0.152 C 
ATOM     35  C1  IDY d 142      28.799  -3.164 -20.369  0.00  0.00     0.160 C 
ATOM     36  O5  IDY d 142      28.155  -3.967 -21.362  0.00  0.00    -0.340 OA
ATOM     37  O61 IDY d 142      25.367  -5.333 -22.847  0.00  0.00    -0.646 OA
ATOM     38  OS3 IDY d 142      31.693  -3.367 -19.156  0.00  0.00    -0.572 OA
ATOM     39  OS1 IDY d 142      31.859  -5.645 -18.356  0.00  0.00    -0.572 OA
ATOM     40  C6  IDY d 142      26.481  -5.355 -22.168  0.00  0.00     0.206 C 
ATOM     41  C4  IDY d 142      26.464  -4.743 -19.765  0.00  0.00     0.103 C 
ATOM     42  O2  IDY d 142      29.594  -4.674 -18.560  0.00  0.00    -0.244 OA
ATOM     43  O4  IDY d 142      27.022  -6.246 -19.820  0.00  0.00    -0.348 OA
ATOM     44  O62 IDY d 142      27.338  -6.266 -22.359  0.00  0.00    -0.646 OA
ATOM     45  O1  IDY d 142      29.321  -1.682 -20.622  0.00  0.00    -0.363 OA
ATOM     46  OS2 IDY d 142      31.249  -3.929 -16.825  0.00  0.00    -0.572 OA
ATOM     47  C3  IDY d 142      27.192  -4.000 -18.633  0.00  0.00     0.094 C 
ATOM     48  S   IDY d 142      31.091  -4.389 -18.224  0.00  0.00     0.252 S 
ATOM     49  C7  IDY d 142      29.136  -0.803 -21.002  0.00  0.00     0.007 C 
ATOM     50  O3  IDY d 142      26.484  -2.782 -18.323  0.00  0.00    -0.390 OA
ATOM     51  H   IDY d 142      28.917  -2.821 -18.279  0.00  0.00     0.097 H 
ATOM     52  H   IDY d 142      26.171  -3.376 -21.338  0.00  0.00     0.104 H 
ATOM     53  H   IDY d 142      29.750  -3.435 -20.780  0.00  0.00     0.133 H 
ATOM     54  H   IDY d 142      25.428  -4.607 -19.536  0.00  0.00     0.092 H 
ATOM     55  H   IDY d 142      27.206  -4.690 -17.815  0.00  0.00     0.091 H 
ATOM     56  H   IDY d 142      29.971  -0.157 -20.830  0.00  0.00     0.066 H 
ATOM     57  H   IDY d 142      28.263  -0.390 -20.539  0.00  0.00     0.066 H 
ATOM     58  H   IDY d 142      28.969  -0.897 -22.055  0.00  0.00     0.066 H 
ATOM     59  H   IDY d 142      26.502  -2.193 -19.093  0.00  0.00     0.210 HD
ENDROOT
TORSDOF 18
ENDMDL
MODEL 53
REMARK VINA RESULT:      -5.5      3.036      6.446
REMARK  0 active torsions:
REMARK  status: ('A' for Active; 'I' for Inactive)
REMARK       I    between atoms: S1_1  and  N_36 
REMARK       I    between atoms: S1_1  and  O1S_20 
REMARK       I    between atoms: S1_1  and  O2S_7 
REMARK       I    between atoms: S1_1  and  O3S_31 
REMARK       I    between atoms: C1_2  and  O4_21 
REMARK       I    between atoms: O6_4  and  C6_9 
REMARK       I    between atoms: C2_5  and  O2_18 
REMARK       I    between atoms: C5_6  and  C6_15 
REMARK       I    between atoms: C1_8  and  O1_27 
REMARK       I    between atoms: C6_9  and  C5_16 
REMARK       I    between atoms: S12_12  and  O3_28 
REMARK       I    between atoms: C4_17  and  O4_21 
REMARK       I    between atoms: O2_18  and  S_33 
REMARK       I    between atoms: C3_19  and  O3_28 
REMARK       I    between atoms: C4_23  and  O4_34 
REMARK       I    between atoms: C2_26  and  N_36 
REMARK       I    between atoms: O1_27  and  C7_35 
REMARK       I    between atoms: C3_32  and  O3_37 
ROOT
ATOM      1  S1  GNX d 141      31.656  -7.796 -20.911  0.00  0.00     0.156 S 
ATOM      2  C1  GNX d 141      28.616  -5.894 -20.883  0.00  0.00     0.150 C 
ATOM      3  O32 GNX d 141      29.032 -10.959 -20.224  0.00  0.00    -0.572 OA
ATOM      4  O6  GNX d 141      25.810  -3.998 -19.010  0.00  0.00    -0.398 OA
ATOM      5  O2S GNX d 141      32.276  -8.707 -21.869  0.00  0.00    -0.296 OA
ATOM      6  C6  GNX d 141      25.500  -5.374 -19.017  0.00  0.00     0.043 C 
ATOM      7  S12 GNX d 141      28.317 -10.563 -19.006  0.00  0.00     0.252 S 
ATOM      8  C5  GNX d 141      26.544  -6.126 -19.834  0.00  0.00     0.089 C 
ATOM      9  C3  GNX d 141      28.037  -8.143 -19.928  0.00  0.00     0.107 C 
ATOM     10  O1S GNX d 141      31.830  -8.240 -19.531  0.00  0.00    -0.296 OA
ATOM     11  C4  GNX d 141      26.935  -7.431 -19.152  0.00  0.00     0.090 C 
ATOM     12  O5  GNX d 141      27.687  -5.316 -19.994  0.00  0.00    -0.349 OA
ATOM     13  O12 GNX d 141      29.065 -11.125 -17.832  0.00  0.00    -0.572 OA
ATOM     14  C2  GNX d 141      29.166  -7.181 -20.280  0.00  0.00     0.083 C 
ATOM     15  O3  GNX d 141      28.548  -9.204 -19.151  0.00  0.00    -0.247 OA
ATOM     16  O22 GNX d 141      27.015 -11.230 -19.058  0.00  0.00    -0.572 OA
ATOM     17  O3S GNX d 141      32.107  -6.419 -21.099  0.00  0.00    -0.296 OA
ATOM     18  O4  GNX d 141      25.805  -8.271 -19.062  0.00  0.00    -0.390 OA
ATOM     19  N   GNX d 141      30.084  -7.812 -21.207  0.00  0.00    -0.210 NA
ATOM     20  H   GNX d 141      29.420  -5.208 -21.053  0.00  0.00     0.131 H 
ATOM     21  H   GNX d 141      25.146  -3.519 -18.490  0.00  0.00     0.209 HD
ATOM     22  H   GNX d 141      31.953  -9.608 -21.712  0.00  0.00     0.231 HD
ATOM     23  H   GNX d 141      24.534  -5.520 -19.451  0.00  0.00     0.078 H 
ATOM     24  H   GNX d 141      25.499  -5.744 -18.012  0.00  0.00     0.078 H 
ATOM     25  H   GNX d 141      26.123  -6.357 -20.790  0.00  0.00     0.090 H 
ATOM     26  H   GNX d 141      27.621  -8.523 -20.838  0.00  0.00     0.092 H 
ATOM     27  H   GNX d 141      31.521  -9.156 -19.444  0.00  0.00     0.231 HD
ATOM     28  H   GNX d 141      27.301  -7.206 -18.173  0.00  0.00     0.091 H 
ATOM     29  H   GNX d 141      29.689  -6.933 -19.380  0.00  0.00     0.076 H 
ATOM     30  H   GNX d 141      31.675  -5.846 -20.447  0.00  0.00     0.231 HD
ATOM     31  H   GNX d 141      25.479  -8.471 -19.953  0.00  0.00     0.210 HD
ATOM     32  H   GNX d 141      29.807  -8.792 -21.276  0.00  0.00     0.140 HD
ATOM     33  C2  IDY d 142      29.420  -6.957 -24.866  0.00  0.00     0.134 C 
ATOM     34  C5  IDY d 142      27.193  -5.072 -24.120  0.00  0.00     0.152 C 
ATOM     35  C1  IDY d 142      28.136  -6.717 -25.663  0.00  0.00     0.160 C 
ATOM     36  O5  IDY d 142      27.011  -6.240 -24.920  0.00  0.00    -0.340 OA
ATOM     37  O61 IDY d 142      25.397  -3.886 -22.996  0.00  0.00    -0.646 OA
ATOM     38  OS3 IDY d 142      29.076  -9.657 -26.263  0.00  0.00    -0.572 OA
ATOM     39  OS1 IDY d 142      29.250 -10.696 -24.084  0.00  0.00    -0.572 OA
ATOM     40  C6  IDY d 142      25.978  -5.030 -23.231  0.00  0.00     0.206 C 
ATOM     41  C4  IDY d 142      28.454  -5.166 -23.253  0.00  0.00     0.103 C 
ATOM     42  O2  IDY d 142      29.442  -8.233 -24.187  0.00  0.00    -0.244 OA
ATOM     43  O4  IDY d 142      27.979  -6.183 -22.107  0.00  0.00    -0.348 OA
ATOM     44  O62 IDY d 142      25.507  -6.105 -22.760  0.00  0.00    -0.646 OA
ATOM     45  O1  IDY d 142      28.242  -6.666 -27.249  0.00  0.00    -0.363 OA
ATOM     46  OS2 IDY d 142      31.206  -9.780 -25.081  0.00  0.00    -0.572 OA
ATOM     47  C3  IDY d 142      29.693  -5.762 -23.942  0.00  0.00     0.094 C 
ATOM     48  S   IDY d 142      29.748  -9.579 -24.914  0.00  0.00     0.252 S 
ATOM     49  C7  IDY d 142      28.114  -6.141 -28.062  0.00  0.00     0.007 C 
ATOM     50  O3  IDY d 142      30.349  -4.740 -24.720  0.00  0.00    -0.390 OA
ATOM     51  H   IDY d 142      30.233  -7.022 -25.558  0.00  0.00     0.097 H 
ATOM     52  H   IDY d 142      27.307  -4.200 -24.730  0.00  0.00     0.104 H 
ATOM     53  H   IDY d 142      27.612  -7.631 -25.853  0.00  0.00     0.133 H 
ATOM     54  H   IDY d 142      28.773  -4.191 -22.950  0.00  0.00     0.092 H 
ATOM     55  H   IDY d 142      30.302  -6.128 -23.143  0.00  0.00     0.091 H 
ATOM     56  H   IDY d 142      28.396  -6.727 -28.912  0.00  0.00     0.066 H 
ATOM     57  H   IDY d 142      28.720  -5.260 -28.018  0.00  0.00     0.066 H 
ATOM     58  H   IDY d 142      27.085  -5.861 -28.148  0.00  0.00     0.066 H 
ATOM     59  H   IDY d 142      29.757  -4.444 -25.429  0.00  0.00     0.210 HD
ENDROOT
TORSDOF 18
ENDMDL
MODEL 54
REMARK VINA RESULT:      -5.5      3.022      6.481
REMARK  0 active torsions:
REMARK  status: ('A' for Active; 'I' for Inactive)
REMARK       I    between atoms: S1_1  and  N_36 
REMARK       I    between atoms: S1_1  and  O1S_20 
REMARK       I    between atoms: S1_1  and  O2S_7 
REMARK       I    between atoms: S1_1  and  O3S_31 
REMARK       I    between atoms: C1_2  and  O4_21 
REMARK       I    between atoms: O6_4  and  C6_9 
REMARK       I    between atoms: C2_5  and  O2_18 
REMARK       I    between atoms: C5_6  and  C6_15 
REMARK       I    between atoms: C1_8  and  O1_27 
REMARK       I    between atoms: C6_9  and  C5_16 
REMARK       I    between atoms: S12_12  and  O3_28 
REMARK       I    between atoms: C4_17  and  O4_21 
REMARK       I    between atoms: O2_18  and  S_33 
REMARK       I    between atoms: C3_19  and  O3_28 
REMARK       I    between atoms: C4_23  and  O4_34 
REMARK       I    between atoms: C2_26  and  N_36 
REMARK       I    between atoms: O1_27  and  C7_35 
REMARK       I    between atoms: C3_32  and  O3_37 
ROOT
ATOM      1  S1  GNX d 141      22.151  -5.511 -22.936  0.00  0.00     0.156 S 
ATOM      2  C1  GNX d 141      24.910  -3.224 -22.810  0.00  0.00     0.150 C 
ATOM      3  O32 GNX d 141      24.197  -6.933 -26.276  0.00  0.00    -0.572 OA
ATOM      4  O6  GNX d 141      26.672   0.040 -23.914  0.00  0.00    -0.398 OA
ATOM      5  O2S GNX d 141      21.988  -6.926 -22.612  0.00  0.00    -0.296 OA
ATOM      6  C6  GNX d 141      26.940  -0.964 -24.868  0.00  0.00     0.043 C 
ATOM      7  S12 GNX d 141      24.331  -5.751 -27.134  0.00  0.00     0.252 S 
ATOM      8  C5  GNX d 141      26.336  -2.282 -24.401  0.00  0.00     0.089 C 
ATOM      9  C3  GNX d 141      25.003  -4.301 -25.077  0.00  0.00     0.107 C 
ATOM     10  O1S GNX d 141      21.401  -5.125 -24.128  0.00  0.00    -0.296 OA
ATOM     11  C4  GNX d 141      25.677  -3.022 -25.559  0.00  0.00     0.090 C 
ATOM     12  O5  GNX d 141      25.378  -2.031 -23.397  0.00  0.00    -0.349 OA
ATOM     13  O12 GNX d 141      23.147  -5.720 -28.058  0.00  0.00    -0.572 OA
ATOM     14  C2  GNX d 141      24.142  -4.034 -23.848  0.00  0.00     0.083 C 
ATOM     15  O3  GNX d 141      24.198  -4.825 -26.110  0.00  0.00    -0.247 OA
ATOM     16  O22 GNX d 141      25.523  -5.970 -27.954  0.00  0.00    -0.572 OA
ATOM     17  O3S GNX d 141      21.838  -4.653 -21.796  0.00  0.00    -0.296 OA
ATOM     18  O4  GNX d 141      26.652  -3.341 -26.528  0.00  0.00    -0.390 OA
ATOM     19  N   GNX d 141      23.699  -5.288 -23.271  0.00  0.00    -0.210 NA
ATOM     20  H   GNX d 141      24.262  -2.988 -21.991  0.00  0.00     0.131 H 
ATOM     21  H   GNX d 141      27.057   0.879 -24.210  0.00  0.00     0.209 HD
ATOM     22  H   GNX d 141      22.204  -7.462 -23.391  0.00  0.00     0.231 HD
ATOM     23  H   GNX d 141      27.998  -1.076 -24.980  0.00  0.00     0.078 H 
ATOM     24  H   GNX d 141      26.510  -0.686 -25.808  0.00  0.00     0.078 H 
ATOM     25  H   GNX d 141      27.121  -2.896 -24.012  0.00  0.00     0.090 H 
ATOM     26  H   GNX d 141      25.763  -5.006 -24.811  0.00  0.00     0.092 H 
ATOM     27  H   GNX d 141      21.634  -5.715 -24.861  0.00  0.00     0.231 HD
ATOM     28  H   GNX d 141      24.931  -2.386 -25.987  0.00  0.00     0.091 H 
ATOM     29  H   GNX d 141      23.288  -3.466 -24.152  0.00  0.00     0.076 H 
ATOM     30  H   GNX d 141      21.957  -3.724 -22.048  0.00  0.00     0.231 HD
ATOM     31  H   GNX d 141      27.324  -3.917 -26.133  0.00  0.00     0.210 HD
ATOM     32  H   GNX d 141      23.968  -6.025 -23.924  0.00  0.00     0.140 HD
ATOM     33  C2  IDY d 142      25.867  -6.513 -20.380  0.00  0.00     0.134 C 
ATOM     34  C5  IDY d 142      27.585  -4.042 -20.497  0.00  0.00     0.152 C 
ATOM     35  C1  IDY d 142      27.371  -6.446 -20.105  0.00  0.00     0.160 C 
ATOM     36  O5  IDY d 142      28.078  -5.364 -20.718  0.00  0.00    -0.340 OA
ATOM     37  O61 IDY d 142      28.745  -2.017 -21.167  0.00  0.00    -0.646 OA
ATOM     38  OS3 IDY d 142      26.744  -9.332 -21.183  0.00  0.00    -0.572 OA
ATOM     39  OS1 IDY d 142      25.647  -8.961 -23.309  0.00  0.00    -0.572 OA
ATOM     40  C6  IDY d 142      28.306  -3.196 -21.512  0.00  0.00     0.206 C 
ATOM     41  C4  IDY d 142      26.074  -3.950 -20.738  0.00  0.00     0.103 C 
ATOM     42  O2  IDY d 142      25.544  -7.137 -21.644  0.00  0.00    -0.244 OA
ATOM     43  O4  IDY d 142      26.004  -3.978 -22.341  0.00  0.00    -0.348 OA
ATOM     44  O62 IDY d 142      28.520  -3.653 -22.672  0.00  0.00    -0.646 OA
ATOM     45  O1  IDY d 142      27.951  -7.329 -18.915  0.00  0.00    -0.363 OA
ATOM     46  OS2 IDY d 142      24.312  -9.307 -21.370  0.00  0.00    -0.572 OA
ATOM     47  C3  IDY d 142      25.240  -5.124 -20.200  0.00  0.00     0.094 C 
ATOM     48  S   IDY d 142      25.562  -8.682 -21.860  0.00  0.00     0.252 S 
ATOM     49  C7  IDY d 142      28.419  -7.343 -18.059  0.00  0.00     0.007 C 
ATOM     50  O3  IDY d 142      24.989  -4.930 -18.793  0.00  0.00    -0.390 OA
ATOM     51  H   IDY d 142      25.426  -7.163 -19.654  0.00  0.00     0.097 H 
ATOM     52  H   IDY d 142      27.751  -3.732 -19.486  0.00  0.00     0.104 H 
ATOM     53  H   IDY d 142      27.916  -7.136 -20.716  0.00  0.00     0.133 H 
ATOM     54  H   IDY d 142      25.667  -3.095 -20.240  0.00  0.00     0.092 H 
ATOM     55  H   IDY d 142      24.344  -5.116 -20.784  0.00  0.00     0.091 H 
ATOM     56  H   IDY d 142      28.519  -8.355 -17.725  0.00  0.00     0.066 H 
ATOM     57  H   IDY d 142      27.861  -6.783 -17.338  0.00  0.00     0.066 H 
ATOM     58  H   IDY d 142      29.389  -6.908 -18.175  0.00  0.00     0.066 H 
ATOM     59  H   IDY d 142      25.830  -4.946 -18.309  0.00  0.00     0.210 HD
ENDROOT
TORSDOF 18
ENDMDL
MODEL 55
REMARK VINA RESULT:      -5.5      3.628      5.360
REMARK  0 active torsions:
REMARK  status: ('A' for Active; 'I' for Inactive)
REMARK       I    between atoms: S1_1  and  N_36 
REMARK       I    between atoms: S1_1  and  O1S_20 
REMARK       I    between atoms: S1_1  and  O2S_7 
REMARK       I    between atoms: S1_1  and  O3S_31 
REMARK       I    between atoms: C1_2  and  O4_21 
REMARK       I    between atoms: O6_4  and  C6_9 
REMARK       I    between atoms: C2_5  and  O2_18 
REMARK       I    between atoms: C5_6  and  C6_15 
REMARK       I    between atoms: C1_8  and  O1_27 
REMARK       I    between atoms: C6_9  and  C5_16 
REMARK       I    between atoms: S12_12  and  O3_28 
REMARK       I    between atoms: C4_17  and  O4_21 
REMARK       I    between atoms: O2_18  and  S_33 
REMARK       I    between atoms: C3_19  and  O3_28 
REMARK       I    between atoms: C4_23  and  O4_34 
REMARK       I    between atoms: C2_26  and  N_36 
REMARK       I    between atoms: O1_27  and  C7_35 
REMARK       I    between atoms: C3_32  and  O3_37 
ROOT
ATOM      1  S1  GNX d 141      27.410  -6.557 -17.002  0.00  0.00     0.156 S 
ATOM      2  C1  GNX d 141      25.855  -5.788 -20.140  0.00  0.00     0.150 C 
ATOM      3  O32 GNX d 141      28.919  -9.781 -19.170  0.00  0.00    -0.572 OA
ATOM      4  O6  GNX d 141      22.996  -6.219 -22.713  0.00  0.00    -0.398 OA
ATOM      5  O2S GNX d 141      28.773  -6.449 -16.491  0.00  0.00    -0.296 OA
ATOM      6  C6  GNX d 141      23.931  -7.259 -22.898  0.00  0.00     0.043 C 
ATOM      7  S12 GNX d 141      27.720 -10.450 -19.684  0.00  0.00     0.252 S 
ATOM      8  C5  GNX d 141      25.114  -7.051 -21.959  0.00  0.00     0.089 C 
ATOM      9  C3  GNX d 141      26.685  -8.150 -20.337  0.00  0.00     0.107 C 
ATOM     10  O1S GNX d 141      26.740  -7.770 -16.542  0.00  0.00    -0.296 OA
ATOM     11  C4  GNX d 141      25.556  -8.370 -21.338  0.00  0.00     0.090 C 
ATOM     12  O5  GNX d 141      24.750  -6.148 -20.939  0.00  0.00    -0.349 OA
ATOM     13  O12 GNX d 141      27.319 -11.500 -18.688  0.00  0.00    -0.572 OA
ATOM     14  C2  GNX d 141      26.353  -7.011 -19.380  0.00  0.00     0.083 C 
ATOM     15  O3  GNX d 141      26.899  -9.335 -19.603  0.00  0.00    -0.247 OA
ATOM     16  O22 GNX d 141      28.125 -11.139 -20.909  0.00  0.00    -0.572 OA
ATOM     17  O3S GNX d 141      26.625  -5.360 -16.715  0.00  0.00    -0.296 OA
ATOM     18  O4  GNX d 141      25.992  -9.245 -22.354  0.00  0.00    -0.390 OA
ATOM     19  N   GNX d 141      27.522  -6.667 -18.595  0.00  0.00    -0.210 NA
ATOM     20  H   GNX d 141      25.559  -5.031 -19.444  0.00  0.00     0.131 H 
ATOM     21  H   GNX d 141      22.244  -6.351 -23.311  0.00  0.00     0.209 HD
ATOM     22  H   GNX d 141      29.262  -7.260 -16.699  0.00  0.00     0.231 HD
ATOM     23  H   GNX d 141      24.275  -7.254 -23.911  0.00  0.00     0.078 H 
ATOM     24  H   GNX d 141      23.466  -8.199 -22.684  0.00  0.00     0.078 H 
ATOM     25  H   GNX d 141      25.930  -6.654 -22.525  0.00  0.00     0.090 H 
ATOM     26  H   GNX d 141      27.572  -7.890 -20.878  0.00  0.00     0.092 H 
ATOM     27  H   GNX d 141      27.290  -8.542 -16.749  0.00  0.00     0.231 HD
ATOM     28  H   GNX d 141      24.723  -8.797 -20.820  0.00  0.00     0.091 H 
ATOM     29  H   GNX d 141      25.573  -7.340 -18.725  0.00  0.00     0.076 H 
ATOM     30  H   GNX d 141      25.729  -5.469 -17.069  0.00  0.00     0.231 HD
ATOM     31  H   GNX d 141      26.747  -8.851 -22.818  0.00  0.00     0.210 HD
ATOM     32  H   GNX d 141      28.229  -7.375 -18.793  0.00  0.00     0.140 HD
ATOM     33  C2  IDY d 142      29.508  -3.722 -19.987  0.00  0.00     0.134 C 
ATOM     34  C5  IDY d 142      27.508  -3.294 -22.196  0.00  0.00     0.152 C 
ATOM     35  C1  IDY d 142      29.822  -3.257 -21.411  0.00  0.00     0.160 C 
ATOM     36  O5  IDY d 142      28.878  -3.628 -22.419  0.00  0.00    -0.340 OA
ATOM     37  O61 IDY d 142      25.750  -3.539 -23.854  0.00  0.00    -0.646 OA
ATOM     38  OS3 IDY d 142      32.356  -4.782 -20.342  0.00  0.00    -0.572 OA
ATOM     39  OS1 IDY d 142      31.524  -6.957 -19.683  0.00  0.00    -0.572 OA
ATOM     40  C6  IDY d 142      26.753  -4.090 -23.228  0.00  0.00     0.206 C 
ATOM     41  C4  IDY d 142      27.041  -3.705 -20.795  0.00  0.00     0.103 C 
ATOM     42  O2  IDY d 142      29.906  -5.088 -19.729  0.00  0.00    -0.244 OA
ATOM     43  O4  IDY d 142      26.888  -5.293 -20.962  0.00  0.00    -0.348 OA
ATOM     44  O62 IDY d 142      27.125  -5.266 -23.510  0.00  0.00    -0.646 OA
ATOM     45  O1  IDY d 142      30.933  -2.135 -21.600  0.00  0.00    -0.363 OA
ATOM     46  OS2 IDY d 142      31.746  -5.261 -18.030  0.00  0.00    -0.572 OA
ATOM     47  C3  IDY d 142      28.037  -3.435 -19.655  0.00  0.00     0.094 C 
ATOM     48  S   IDY d 142      31.382  -5.505 -19.445  0.00  0.00     0.252 S 
ATOM     49  C7  IDY d 142      31.145  -1.237 -21.919  0.00  0.00     0.007 C 
ATOM     50  O3  IDY d 142      27.935  -2.057 -19.244  0.00  0.00    -0.390 OA
ATOM     51  H   IDY d 142      30.109  -3.150 -19.311  0.00  0.00     0.097 H 
ATOM     52  H   IDY d 142      27.350  -2.238 -22.272  0.00  0.00     0.104 H 
ATOM     53  H   IDY d 142      30.554  -3.883 -21.878  0.00  0.00     0.133 H 
ATOM     54  H   IDY d 142      26.171  -3.151 -20.513  0.00  0.00     0.092 H 
ATOM     55  H   IDY d 142      27.761  -4.119 -18.881  0.00  0.00     0.091 H 
ATOM     56  H   IDY d 142      32.180  -1.032 -21.747  0.00  0.00     0.066 H 
ATOM     57  H   IDY d 142      30.546  -0.521 -21.395  0.00  0.00     0.066 H 
ATOM     58  H   IDY d 142      30.938  -1.174 -22.967  0.00  0.00     0.066 H 
ATOM     59  H   IDY d 142      28.196  -1.480 -19.979  0.00  0.00     0.210 HD
ENDROOT
TORSDOF 18
ENDMDL
MODEL 56
REMARK VINA RESULT:      -5.5      4.675      8.143
REMARK  0 active torsions:
REMARK  status: ('A' for Active; 'I' for Inactive)
REMARK       I    between atoms: S1_1  and  N_36 
REMARK       I    between atoms: S1_1  and  O1S_20 
REMARK       I    between atoms: S1_1  and  O2S_7 
REMARK       I    between atoms: S1_1  and  O3S_31 
REMARK       I    between atoms: C1_2  and  O4_21 
REMARK       I    between atoms: O6_4  and  C6_9 
REMARK       I    between atoms: C2_5  and  O2_18 
REMARK       I    between atoms: C5_6  and  C6_15 
REMARK       I    between atoms: C1_8  and  O1_27 
REMARK       I    between atoms: C6_9  and  C5_16 
REMARK       I    between atoms: S12_12  and  O3_28 
REMARK       I    between atoms: C4_17  and  O4_21 
REMARK       I    between atoms: O2_18  and  S_33 
REMARK       I    between atoms: C3_19  and  O3_28 
REMARK       I    between atoms: C4_23  and  O4_34 
REMARK       I    between atoms: C2_26  and  N_36 
REMARK       I    between atoms: O1_27  and  C7_35 
REMARK       I    between atoms: C3_32  and  O3_37 
ROOT
ATOM      1  S1  GNX d 141      31.211  -7.567 -18.183  0.00  0.00     0.156 S 
ATOM      2  C1  GNX d 141      28.689  -5.034 -18.474  0.00  0.00     0.150 C 
ATOM      3  O32 GNX d 141      28.735  -8.900 -15.108  0.00  0.00    -0.572 OA
ATOM      4  O6  GNX d 141      27.123  -1.659 -17.410  0.00  0.00    -0.398 OA
ATOM      5  O2S GNX d 141      31.279  -8.979 -18.546  0.00  0.00    -0.296 OA
ATOM      6  C6  GNX d 141      26.677  -2.664 -16.526  0.00  0.00     0.043 C 
ATOM      7  S12 GNX d 141      28.624  -7.739 -14.219  0.00  0.00     0.252 S 
ATOM      8  C5  GNX d 141      27.205  -4.017 -16.986  0.00  0.00     0.089 C 
ATOM      9  C3  GNX d 141      28.284  -6.169 -16.270  0.00  0.00     0.107 C 
ATOM     10  O1S GNX d 141      31.873  -7.289 -16.912  0.00  0.00    -0.296 OA
ATOM     11  C4  GNX d 141      27.681  -4.849 -15.802  0.00  0.00     0.090 C 
ATOM     12  O5  GNX d 141      28.273  -3.823 -17.886  0.00  0.00    -0.349 OA
ATOM     13  O12 GNX d 141      29.711  -7.845 -13.188  0.00  0.00    -0.572 OA
ATOM     14  C2  GNX d 141      29.279  -5.944 -17.402  0.00  0.00     0.083 C 
ATOM     15  O3  GNX d 141      28.935  -6.797 -15.189  0.00  0.00    -0.247 OA
ATOM     16  O22 GNX d 141      27.344  -7.873 -13.523  0.00  0.00    -0.572 OA
ATOM     17  O3S GNX d 141      31.706  -6.706 -19.254  0.00  0.00    -0.296 OA
ATOM     18  O4  GNX d 141      26.593  -5.108 -14.942  0.00  0.00    -0.390 OA
ATOM     19  N   GNX d 141      29.663  -7.214 -17.985  0.00  0.00    -0.210 NA
ATOM     20  H   GNX d 141      29.431  -4.833 -19.219  0.00  0.00     0.131 H 
ATOM     21  H   GNX d 141      26.787  -0.798 -17.117  0.00  0.00     0.209 HD
ATOM     22  H   GNX d 141      30.943  -9.518 -17.813  0.00  0.00     0.231 HD
ATOM     23  H   GNX d 141      25.607  -2.683 -16.517  0.00  0.00     0.078 H 
ATOM     24  H   GNX d 141      27.037  -2.457 -15.539  0.00  0.00     0.078 H 
ATOM     25  H   GNX d 141      26.410  -4.544 -17.472  0.00  0.00     0.090 H 
ATOM     26  H   GNX d 141      27.494  -6.793 -16.634  0.00  0.00     0.092 H 
ATOM     27  H   GNX d 141      31.520  -7.878 -16.227  0.00  0.00     0.231 HD
ATOM     28  H   GNX d 141      28.435  -4.298 -15.281  0.00  0.00     0.091 H 
ATOM     29  H   GNX d 141      30.146  -5.465 -16.997  0.00  0.00     0.076 H 
ATOM     30  H   GNX d 141      31.646  -5.778 -18.977  0.00  0.00     0.231 HD
ATOM     31  H   GNX d 141      25.914  -5.608 -15.421  0.00  0.00     0.210 HD
ATOM     32  H   GNX d 141      29.269  -7.943 -17.390  0.00  0.00     0.140 HD
ATOM     33  C2  IDY d 142      27.685  -8.144 -21.112  0.00  0.00     0.134 C 
ATOM     34  C5  IDY d 142      26.188  -5.532 -21.057  0.00  0.00     0.152 C 
ATOM     35  C1  IDY d 142      26.226  -7.931 -21.523  0.00  0.00     0.160 C 
ATOM     36  O5  IDY d 142      25.562  -6.809 -20.936  0.00  0.00    -0.340 OA
ATOM     37  O61 IDY d 142      25.152  -3.431 -20.418  0.00  0.00    -0.646 OA
ATOM     38  OS3 IDY d 142      26.490 -10.895 -20.507  0.00  0.00    -0.572 OA
ATOM     39  OS1 IDY d 142      27.405 -10.693 -18.276  0.00  0.00    -0.572 OA
ATOM     40  C6  IDY d 142      25.449  -4.656 -20.081  0.00  0.00     0.206 C 
ATOM     41  C4  IDY d 142      27.671  -5.586 -20.672  0.00  0.00     0.103 C 
ATOM     42  O2  IDY d 142      27.828  -8.834 -19.849  0.00  0.00    -0.244 OA
ATOM     43  O4  IDY d 142      27.583  -5.671 -19.073  0.00  0.00    -0.348 OA
ATOM     44  O62 IDY d 142      25.085  -5.127 -18.964  0.00  0.00    -0.646 OA
ATOM     45  O1  IDY d 142      25.688  -8.719 -22.796  0.00  0.00    -0.363 OA
ATOM     46  OS2 IDY d 142      28.885 -11.098 -20.094  0.00  0.00    -0.572 OA
ATOM     47  C3  IDY d 142      28.446  -6.813 -21.178  0.00  0.00     0.094 C 
ATOM     48  S   IDY d 142      27.653 -10.377 -19.698  0.00  0.00     0.252 S 
ATOM     49  C7  IDY d 142      25.306  -8.664 -23.692  0.00  0.00     0.007 C 
ATOM     50  O3  IDY d 142      28.848  -6.599 -22.546  0.00  0.00    -0.390 OA
ATOM     51  H   IDY d 142      28.135  -8.809 -21.819  0.00  0.00     0.097 H 
ATOM     52  H   IDY d 142      26.148  -5.176 -22.066  0.00  0.00     0.104 H 
ATOM     53  H   IDY d 142      25.566  -8.587 -20.994  0.00  0.00     0.133 H 
ATOM     54  H   IDY d 142      28.198  -4.756 -21.096  0.00  0.00     0.092 H 
ATOM     55  H   IDY d 142      29.278  -6.906 -20.512  0.00  0.00     0.091 H 
ATOM     56  H   IDY d 142      25.149  -9.651 -24.074  0.00  0.00     0.066 H 
ATOM     57  H   IDY d 142      25.977  -8.135 -24.335  0.00  0.00     0.066 H 
ATOM     58  H   IDY d 142      24.370  -8.146 -23.650  0.00  0.00     0.066 H 
ATOM     59  H   IDY d 142      28.059  -6.522 -23.106  0.00  0.00     0.210 HD
ENDROOT
TORSDOF 18
ENDMDL
MODEL 57
REMARK VINA RESULT:      -5.4      4.130      7.256
REMARK  0 active torsions:
REMARK  status: ('A' for Active; 'I' for Inactive)
REMARK       I    between atoms: S1_1  and  N_36 
REMARK       I    between atoms: S1_1  and  O1S_20 
REMARK       I    between atoms: S1_1  and  O2S_7 
REMARK       I    between atoms: S1_1  and  O3S_31 
REMARK       I    between atoms: C1_2  and  O4_21 
REMARK       I    between atoms: O6_4  and  C6_9 
REMARK       I    between atoms: C2_5  and  O2_18 
REMARK       I    between atoms: C5_6  and  C6_15 
REMARK       I    between atoms: C1_8  and  O1_27 
REMARK       I    between atoms: C6_9  and  C5_16 
REMARK       I    between atoms: S12_12  and  O3_28 
REMARK       I    between atoms: C4_17  and  O4_21 
REMARK       I    between atoms: O2_18  and  S_33 
REMARK       I    between atoms: C3_19  and  O3_28 
REMARK       I    between atoms: C4_23  and  O4_34 
REMARK       I    between atoms: C2_26  and  N_36 
REMARK       I    between atoms: O1_27  and  C7_35 
REMARK       I    between atoms: C3_32  and  O3_37 
ROOT
ATOM      1  S1  GNX d 141      26.250  -7.693 -19.154  0.00  0.00     0.156 S 
ATOM      2  C1  GNX d 141      29.310  -9.489 -19.675  0.00  0.00     0.150 C 
ATOM      3  O32 GNX d 141      28.812  -4.961 -17.328  0.00  0.00    -0.572 OA
ATOM      4  O6  GNX d 141      32.075 -11.915 -18.471  0.00  0.00    -0.398 OA
ATOM      5  O2S GNX d 141      25.652  -6.508 -19.762  0.00  0.00    -0.296 OA
ATOM      6  C6  GNX d 141      32.368 -10.621 -17.992  0.00  0.00     0.043 C 
ATOM      7  S12 GNX d 141      29.491  -5.752 -16.297  0.00  0.00     0.252 S 
ATOM      8  C5  GNX d 141      31.344  -9.634 -18.538  0.00  0.00     0.089 C 
ATOM      9  C3  GNX d 141      29.830  -7.707 -17.985  0.00  0.00     0.107 C 
ATOM     10  O1S GNX d 141      26.025  -7.751 -17.713  0.00  0.00    -0.296 OA
ATOM     11  C4  GNX d 141      30.914  -8.643 -17.463  0.00  0.00     0.090 C 
ATOM     12  O5  GNX d 141      30.215 -10.338 -19.007  0.00  0.00    -0.349 OA
ATOM     13  O12 GNX d 141      28.697  -5.629 -15.028  0.00  0.00    -0.572 OA
ATOM     14  C2  GNX d 141      28.725  -8.489 -18.686  0.00  0.00     0.083 C 
ATOM     15  O3  GNX d 141      29.281  -6.978 -16.909  0.00  0.00    -0.247 OA
ATOM     16  O22 GNX d 141      30.785  -5.108 -16.069  0.00  0.00    -0.572 OA
ATOM     17  O3S GNX d 141      25.822  -8.920 -19.821  0.00  0.00    -0.296 OA
ATOM     18  O4  GNX d 141      32.030  -7.885 -17.049  0.00  0.00    -0.390 OA
ATOM     19  N   GNX d 141      27.831  -7.576 -19.372  0.00  0.00    -0.210 NA
ATOM     20  H   GNX d 141      28.520 -10.075 -20.099  0.00  0.00     0.131 H 
ATOM     21  H   GNX d 141      32.727 -12.544 -18.125  0.00  0.00     0.209 HD
ATOM     22  H   GNX d 141      25.958  -5.716 -19.293  0.00  0.00     0.231 HD
ATOM     23  H   GNX d 141      33.347 -10.334 -18.316  0.00  0.00     0.078 H 
ATOM     24  H   GNX d 141      32.332 -10.620 -16.923  0.00  0.00     0.078 H 
ATOM     25  H   GNX d 141      31.793  -9.087 -19.340  0.00  0.00     0.090 H 
ATOM     26  H   GNX d 141      30.272  -7.037 -18.692  0.00  0.00     0.092 H 
ATOM     27  H   GNX d 141      26.320  -6.922 -17.306  0.00  0.00     0.231 HD
ATOM     28  H   GNX d 141      30.518  -9.192 -16.634  0.00  0.00     0.091 H 
ATOM     29  H   GNX d 141      28.175  -9.031 -17.946  0.00  0.00     0.076 H 
ATOM     30  H   GNX d 141      26.239  -9.684 -19.391  0.00  0.00     0.231 HD
ATOM     31  H   GNX d 141      32.383  -7.391 -17.805  0.00  0.00     0.210 HD
ATOM     32  H   GNX d 141      28.098  -6.633 -19.088  0.00  0.00     0.140 HD
ATOM     33  C2  IDY d 142      28.627  -7.120 -23.075  0.00  0.00     0.134 C 
ATOM     34  C5  IDY d 142      30.851  -9.146 -22.945  0.00  0.00     0.152 C 
ATOM     35  C1  IDY d 142      29.940  -7.070 -23.860  0.00  0.00     0.160 C 
ATOM     36  O5  IDY d 142      31.045  -7.774 -23.286  0.00  0.00    -0.340 OA
ATOM     37  O61 IDY d 142      32.622 -10.648 -22.235  0.00  0.00    -0.646 OA
ATOM     38  OS3 IDY d 142      28.985  -4.103 -23.444  0.00  0.00    -0.572 OA
ATOM     39  OS1 IDY d 142      28.726  -3.878 -21.048  0.00  0.00    -0.572 OA
ATOM     40  C6  IDY d 142      32.035  -9.492 -22.082  0.00  0.00     0.206 C 
ATOM     41  C4  IDY d 142      29.560  -9.356 -22.144  0.00  0.00     0.103 C 
ATOM     42  O2  IDY d 142      28.567  -6.155 -21.999  0.00  0.00    -0.244 OA
ATOM     43  O4  IDY d 142      29.984  -8.797 -20.701  0.00  0.00    -0.348 OA
ATOM     44  O62 IDY d 142      32.478  -8.645 -21.253  0.00  0.00    -0.646 OA
ATOM     45  O1  IDY d 142      29.887  -6.572 -25.369  0.00  0.00    -0.363 OA
ATOM     46  OS2 IDY d 142      26.816  -4.394 -22.368  0.00  0.00    -0.572 OA
ATOM     47  C3  IDY d 142      28.338  -8.559 -22.629  0.00  0.00     0.094 C 
ATOM     48  S   IDY d 142      28.269  -4.641 -22.229  0.00  0.00     0.252 S 
ATOM     49  C7  IDY d 142      30.049  -6.784 -26.308  0.00  0.00     0.007 C 
ATOM     50  O3  IDY d 142      27.720  -9.250 -23.734  0.00  0.00    -0.390 OA
ATOM     51  H   IDY d 142      27.837  -6.819 -23.731  0.00  0.00     0.097 H 
ATOM     52  H   IDY d 142      30.767  -9.755 -23.821  0.00  0.00     0.104 H 
ATOM     53  H   IDY d 142      30.459  -6.147 -23.704  0.00  0.00     0.133 H 
ATOM     54  H   IDY d 142      29.243 -10.376 -22.206  0.00  0.00     0.092 H 
ATOM     55  H   IDY d 142      27.698  -8.490 -21.775  0.00  0.00     0.091 H 
ATOM     56  H   IDY d 142      29.789  -5.942 -26.914  0.00  0.00     0.066 H 
ATOM     57  H   IDY d 142      29.452  -7.626 -26.591  0.00  0.00     0.066 H 
ATOM     58  H   IDY d 142      31.084  -7.018 -26.448  0.00  0.00     0.066 H 
ATOM     59  H   IDY d 142      28.339  -9.285 -24.480  0.00  0.00     0.210 HD
ENDROOT
TORSDOF 18
ENDMDL
MODEL 58
REMARK VINA RESULT:      -5.4      3.384      6.858
REMARK  0 active torsions:
REMARK  status: ('A' for Active; 'I' for Inactive)
REMARK       I    between atoms: S1_1  and  N_36 
REMARK       I    between atoms: S1_1  and  O1S_20 
REMARK       I    between atoms: S1_1  and  O2S_7 
REMARK       I    between atoms: S1_1  and  O3S_31 
REMARK       I    between atoms: C1_2  and  O4_21 
REMARK       I    between atoms: O6_4  and  C6_9 
REMARK       I    between atoms: C2_5  and  O2_18 
REMARK       I    between atoms: C5_6  and  C6_15 
REMARK       I    between atoms: C1_8  and  O1_27 
REMARK       I    between atoms: C6_9  and  C5_16 
REMARK       I    between atoms: S12_12  and  O3_28 
REMARK       I    between atoms: C4_17  and  O4_21 
REMARK       I    between atoms: O2_18  and  S_33 
REMARK       I    between atoms: C3_19  and  O3_28 
REMARK       I    between atoms: C4_23  and  O4_34 
REMARK       I    between atoms: C2_26  and  N_36 
REMARK       I    between atoms: O1_27  and  C7_35 
REMARK       I    between atoms: C3_32  and  O3_37 
ROOT
ATOM      1  S1  GNX d 141      25.116  -8.664 -21.135  0.00  0.00     0.156 S 
ATOM      2  C1  GNX d 141      26.714  -5.454 -21.097  0.00  0.00     0.150 C 
ATOM      3  O32 GNX d 141      26.627  -8.754 -25.017  0.00  0.00    -0.572 OA
ATOM      4  O6  GNX d 141      26.739  -1.660 -21.860  0.00  0.00    -0.398 OA
ATOM      5  O2S GNX d 141      25.599 -10.039 -21.069  0.00  0.00    -0.296 OA
ATOM      6  C6  GNX d 141      27.120  -2.358 -23.025  0.00  0.00     0.043 C 
ATOM      7  S12 GNX d 141      26.072  -7.548 -25.638  0.00  0.00     0.252 S 
ATOM      8  C5  GNX d 141      27.211  -3.847 -22.717  0.00  0.00     0.089 C 
ATOM      9  C3  GNX d 141      26.634  -6.161 -23.505  0.00  0.00     0.107 C 
ATOM     10  O1S GNX d 141      23.998  -8.512 -22.063  0.00  0.00    -0.296 OA
ATOM     11  C4  GNX d 141      26.617  -4.676 -23.849  0.00  0.00     0.090 C 
ATOM     12  O5  GNX d 141      26.520  -4.123 -21.519  0.00  0.00    -0.349 OA
ATOM     13  O12 GNX d 141      24.775  -7.925 -26.294  0.00  0.00    -0.572 OA
ATOM     14  C2  GNX d 141      26.080  -6.404 -22.106  0.00  0.00     0.083 C 
ATOM     15  O3  GNX d 141      25.859  -6.870 -24.447  0.00  0.00    -0.247 OA
ATOM     16  O22 GNX d 141      27.004  -7.163 -26.698  0.00  0.00    -0.572 OA
ATOM     17  O3S GNX d 141      24.799  -8.134 -19.811  0.00  0.00    -0.296 OA
ATOM     18  O4  GNX d 141      27.357  -4.458 -25.030  0.00  0.00    -0.390 OA
ATOM     19  N   GNX d 141      26.318  -7.779 -21.711  0.00  0.00    -0.210 NA
ATOM     20  H   GNX d 141      26.258  -5.594 -20.139  0.00  0.00     0.131 H 
ATOM     21  H   GNX d 141      26.681  -0.711 -22.055  0.00  0.00     0.209 HD
ATOM     22  H   GNX d 141      25.797 -10.355 -21.964  0.00  0.00     0.231 HD
ATOM     23  H   GNX d 141      28.073  -2.004 -23.357  0.00  0.00     0.078 H 
ATOM     24  H   GNX d 141      26.392  -2.195 -23.792  0.00  0.00     0.078 H 
ATOM     25  H   GNX d 141      28.243  -4.110 -22.613  0.00  0.00     0.090 H 
ATOM     26  H   GNX d 141      27.647  -6.504 -23.533  0.00  0.00     0.092 H 
ATOM     27  H   GNX d 141      24.245  -8.874 -22.928  0.00  0.00     0.231 HD
ATOM     28  H   GNX d 141      25.601  -4.374 -23.994  0.00  0.00     0.091 H 
ATOM     29  H   GNX d 141      25.027  -6.220 -22.124  0.00  0.00     0.076 H 
ATOM     30  H   GNX d 141      24.482  -7.221 -19.896  0.00  0.00     0.231 HD
ATOM     31  H   GNX d 141      28.276  -4.735 -24.891  0.00  0.00     0.210 HD
ATOM     32  H   GNX d 141      26.673  -8.265 -22.534  0.00  0.00     0.140 HD
ATOM     33  C2  IDY d 142      29.449  -8.259 -19.585  0.00  0.00     0.134 C 
ATOM     34  C5  IDY d 142      29.992  -5.297 -19.544  0.00  0.00     0.152 C 
ATOM     35  C1  IDY d 142      30.828  -7.594 -19.595  0.00  0.00     0.160 C 
ATOM     36  O5  IDY d 142      30.881  -6.260 -20.109  0.00  0.00    -0.340 OA
ATOM     37  O61 IDY d 142      30.070  -2.917 -20.016  0.00  0.00    -0.646 OA
ATOM     38  OS3 IDY d 142      31.107 -10.354 -21.075  0.00  0.00    -0.572 OA
ATOM     39  OS1 IDY d 142      29.450 -10.270 -22.837  0.00  0.00    -0.572 OA
ATOM     40  C6  IDY d 142      30.047  -4.131 -20.494  0.00  0.00     0.206 C 
ATOM     41  C4  IDY d 142      28.554  -5.825 -19.469  0.00  0.00     0.103 C 
ATOM     42  O2  IDY d 142      29.081  -8.832 -20.860  0.00  0.00    -0.244 OA
ATOM     43  O4  IDY d 142      28.095  -5.721 -21.003  0.00  0.00    -0.348 OA
ATOM     44  O62 IDY d 142      30.117  -4.337 -21.740  0.00  0.00    -0.646 OA
ATOM     45  O1  IDY d 142      31.985  -8.265 -18.734  0.00  0.00    -0.363 OA
ATOM     46  OS2 IDY d 142      28.894 -11.335 -20.784  0.00  0.00    -0.572 OA
ATOM     47  C3  IDY d 142      28.404  -7.288 -19.020  0.00  0.00     0.094 C 
ATOM     48  S   IDY d 142      29.637 -10.197 -21.373  0.00  0.00     0.252 S 
ATOM     49  C7  IDY d 142      32.624  -8.167 -18.003  0.00  0.00     0.007 C 
ATOM     50  O3  IDY d 142      28.465  -7.358 -17.581  0.00  0.00    -0.390 OA
ATOM     51  H   IDY d 142      29.494  -9.103 -18.929  0.00  0.00     0.097 H 
ATOM     52  H   IDY d 142      30.277  -5.048 -18.543  0.00  0.00     0.104 H 
ATOM     53  H   IDY d 142      31.421  -7.927 -20.422  0.00  0.00     0.133 H 
ATOM     54  H   IDY d 142      27.991  -5.274 -18.745  0.00  0.00     0.092 H 
ATOM     55  H   IDY d 142      27.458  -7.599 -19.409  0.00  0.00     0.091 H 
ATOM     56  H   IDY d 142      33.188  -9.070 -17.898  0.00  0.00     0.066 H 
ATOM     57  H   IDY d 142      32.097  -7.967 -17.093  0.00  0.00     0.066 H 
ATOM     58  H   IDY d 142      33.288  -7.355 -18.216  0.00  0.00     0.066 H 
ATOM     59  H   IDY d 142      29.340  -7.067 -17.280  0.00  0.00     0.210 HD
ENDROOT
TORSDOF 18
ENDMDL
MODEL 59
REMARK VINA RESULT:      -5.4      2.565      4.039
REMARK  0 active torsions:
REMARK  status: ('A' for Active; 'I' for Inactive)
REMARK       I    between atoms: S1_1  and  N_36 
REMARK       I    between atoms: S1_1  and  O1S_20 
REMARK       I    between atoms: S1_1  and  O2S_7 
REMARK       I    between atoms: S1_1  and  O3S_31 
REMARK       I    between atoms: C1_2  and  O4_21 
REMARK       I    between atoms: O6_4  and  C6_9 
REMARK       I    between atoms: C2_5  and  O2_18 
REMARK       I    between atoms: C5_6  and  C6_15 
REMARK       I    between atoms: C1_8  and  O1_27 
REMARK       I    between atoms: C6_9  and  C5_16 
REMARK       I    between atoms: S12_12  and  O3_28 
REMARK       I    between atoms: C4_17  and  O4_21 
REMARK       I    between atoms: O2_18  and  S_33 
REMARK       I    between atoms: C3_19  and  O3_28 
REMARK       I    between atoms: C4_23  and  O4_34 
REMARK       I    between atoms: C2_26  and  N_36 
REMARK       I    between atoms: O1_27  and  C7_35 
REMARK       I    between atoms: C3_32  and  O3_37 
ROOT
ATOM      1  S1  GNX d 141      24.882  -8.473 -21.835  0.00  0.00     0.156 S 
ATOM      2  C1  GNX d 141      25.789  -5.447 -23.533  0.00  0.00     0.150 C 
ATOM      3  O32 GNX d 141      29.011  -9.038 -21.801  0.00  0.00    -0.572 OA
ATOM      4  O6  GNX d 141      26.724  -3.501 -26.745  0.00  0.00    -0.398 OA
ATOM      5  O2S GNX d 141      24.955  -8.920 -20.447  0.00  0.00    -0.296 OA
ATOM      6  C6  GNX d 141      27.886  -4.117 -26.235  0.00  0.00     0.043 C 
ATOM      7  S12 GNX d 141      29.386  -8.966 -23.217  0.00  0.00     0.252 S 
ATOM      8  C5  GNX d 141      27.557  -4.807 -24.916  0.00  0.00     0.089 C 
ATOM      9  C3  GNX d 141      27.842  -6.894 -23.547  0.00  0.00     0.107 C 
ATOM     10  O1S GNX d 141      25.204  -9.540 -22.779  0.00  0.00    -0.296 OA
ATOM     11  C4  GNX d 141      28.236  -6.169 -24.829  0.00  0.00     0.090 C 
ATOM     12  O5  GNX d 141      26.161  -4.969 -24.806  0.00  0.00    -0.349 OA
ATOM     13  O12 GNX d 141      29.350 -10.361 -23.772  0.00  0.00    -0.572 OA
ATOM     14  C2  GNX d 141      26.332  -6.858 -23.342  0.00  0.00     0.083 C 
ATOM     15  O3  GNX d 141      28.276  -8.234 -23.613  0.00  0.00    -0.247 OA
ATOM     16  O22 GNX d 141      30.778  -8.514 -23.252  0.00  0.00    -0.572 OA
ATOM     17  O3S GNX d 141      23.598  -7.848 -22.139  0.00  0.00    -0.296 OA
ATOM     18  O4  GNX d 141      29.635  -6.000 -24.863  0.00  0.00    -0.390 OA
ATOM     19  N   GNX d 141      26.000  -7.343 -22.016  0.00  0.00    -0.210 NA
ATOM     20  H   GNX d 141      24.721  -5.462 -23.456  0.00  0.00     0.131 H 
ATOM     21  H   GNX d 141      26.932  -3.062 -27.584  0.00  0.00     0.209 HD
ATOM     22  H   GNX d 141      25.819  -9.328 -20.284  0.00  0.00     0.231 HD
ATOM     23  H   GNX d 141      28.640  -3.376 -26.071  0.00  0.00     0.078 H 
ATOM     24  H   GNX d 141      28.244  -4.840 -26.937  0.00  0.00     0.078 H 
ATOM     25  H   GNX d 141      27.919  -4.198 -24.115  0.00  0.00     0.090 H 
ATOM     26  H   GNX d 141      28.307  -6.398 -22.720  0.00  0.00     0.092 H 
ATOM     27  H   GNX d 141      26.061  -9.930 -22.545  0.00  0.00     0.231 HD
ATOM     28  H   GNX d 141      27.919  -6.760 -25.663  0.00  0.00     0.091 H 
ATOM     29  H   GNX d 141      25.878  -7.494 -24.073  0.00  0.00     0.076 H 
ATOM     30  H   GNX d 141      23.587  -7.565 -23.066  0.00  0.00     0.231 HD
ATOM     31  H   GNX d 141      29.914  -5.464 -24.104  0.00  0.00     0.210 HD
ATOM     32  H   GNX d 141      26.862  -7.714 -21.614  0.00  0.00     0.140 HD
ATOM     33  C2  IDY d 142      25.516  -4.577 -19.433  0.00  0.00     0.134 C 
ATOM     34  C5  IDY d 142      25.921  -2.435 -21.511  0.00  0.00     0.152 C 
ATOM     35  C1  IDY d 142      26.199  -3.225 -19.214  0.00  0.00     0.160 C 
ATOM     36  O5  IDY d 142      26.766  -2.609 -20.374  0.00  0.00    -0.340 OA
ATOM     37  O61 IDY d 142      26.530  -1.168 -23.491  0.00  0.00    -0.646 OA
ATOM     38  OS3 IDY d 142      27.460  -5.254 -17.170  0.00  0.00    -0.572 OA
ATOM     39  OS1 IDY d 142      28.270  -7.076 -18.543  0.00  0.00    -0.572 OA
ATOM     40  C6  IDY d 142      26.865  -2.093 -22.633  0.00  0.00     0.206 C 
ATOM     41  C4  IDY d 142      25.162  -3.722 -21.858  0.00  0.00     0.103 C 
ATOM     42  O2  IDY d 142      26.441  -5.688 -19.460  0.00  0.00    -0.244 OA
ATOM     43  O4  IDY d 142      26.319  -4.601 -22.538  0.00  0.00    -0.348 OA
ATOM     44  O62 IDY d 142      27.988  -2.669 -22.707  0.00  0.00    -0.646 OA
ATOM     45  O1  IDY d 142      25.921  -2.463 -17.846  0.00  0.00    -0.363 OA
ATOM     46  OS2 IDY d 142      26.125  -7.263 -17.531  0.00  0.00    -0.572 OA
ATOM     47  C3  IDY d 142      24.600  -4.507 -20.663  0.00  0.00     0.094 C 
ATOM     48  S   IDY d 142      27.061  -6.311 -18.171  0.00  0.00     0.252 S 
ATOM     49  C7  IDY d 142      25.571  -1.663 -17.410  0.00  0.00     0.007 C 
ATOM     50  O3  IDY d 142      23.347  -3.924 -20.250  0.00  0.00    -0.390 OA
ATOM     51  H   IDY d 142      24.900  -4.779 -18.582  0.00  0.00     0.097 H 
ATOM     52  H   IDY d 142      25.180  -1.684 -21.331  0.00  0.00     0.104 H 
ATOM     53  H   IDY d 142      27.181  -3.341 -18.805  0.00  0.00     0.133 H 
ATOM     54  H   IDY d 142      24.298  -3.498 -22.449  0.00  0.00     0.092 H 
ATOM     55  H   IDY d 142      24.492  -5.510 -21.019  0.00  0.00     0.091 H 
ATOM     56  H   IDY d 142      25.677  -1.759 -16.350  0.00  0.00     0.066 H 
ATOM     57  H   IDY d 142      24.536  -1.546 -17.656  0.00  0.00     0.066 H 
ATOM     58  H   IDY d 142      26.116  -0.806 -17.747  0.00  0.00     0.066 H 
ATOM     59  H   IDY d 142      23.499  -3.019 -19.937  0.00  0.00     0.210 HD
ENDROOT
TORSDOF 18
ENDMDL
MODEL 60
REMARK VINA RESULT:      -5.4      3.192      4.255
REMARK  0 active torsions:
REMARK  status: ('A' for Active; 'I' for Inactive)
REMARK       I    between atoms: S1_1  and  N_36 
REMARK       I    between atoms: S1_1  and  O1S_20 
REMARK       I    between atoms: S1_1  and  O2S_7 
REMARK       I    between atoms: S1_1  and  O3S_31 
REMARK       I    between atoms: C1_2  and  O4_21 
REMARK       I    between atoms: O6_4  and  C6_9 
REMARK       I    between atoms: C2_5  and  O2_18 
REMARK       I    between atoms: C5_6  and  C6_15 
REMARK       I    between atoms: C1_8  and  O1_27 
REMARK       I    between atoms: C6_9  and  C5_16 
REMARK       I    between atoms: S12_12  and  O3_28 
REMARK       I    between atoms: C4_17  and  O4_21 
REMARK       I    between atoms: O2_18  and  S_33 
REMARK       I    between atoms: C3_19  and  O3_28 
REMARK       I    between atoms: C4_23  and  O4_34 
REMARK       I    between atoms: C2_26  and  N_36 
REMARK       I    between atoms: O1_27  and  C7_35 
REMARK       I    between atoms: C3_32  and  O3_37 
ROOT
ATOM      1  S1  GNX d 141      28.427  -9.709 -18.519  0.00  0.00     0.156 S 
ATOM      2  C1  GNX d 141      27.061  -8.320 -21.530  0.00  0.00     0.150 C 
ATOM      3  O32 GNX d 141      31.990  -9.424 -20.662  0.00  0.00    -0.572 OA
ATOM      4  O6  GNX d 141      25.675  -8.698 -25.124  0.00  0.00    -0.398 OA
ATOM      5  O2S GNX d 141      29.215  -9.165 -17.417  0.00  0.00    -0.296 OA
ATOM      6  C6  GNX d 141      27.083  -8.651 -25.185  0.00  0.00     0.043 C 
ATOM      7  S12 GNX d 141      31.728 -10.195 -21.882  0.00  0.00     0.252 S 
ATOM      8  C5  GNX d 141      27.644  -8.404 -23.789  0.00  0.00     0.089 C 
ATOM      9  C3  GNX d 141      29.382  -9.085 -22.109  0.00  0.00     0.107 C 
ATOM     10  O1S GNX d 141      28.846 -11.058 -18.888  0.00  0.00    -0.296 OA
ATOM     11  C4  GNX d 141      28.870  -9.272 -23.532  0.00  0.00     0.090 C 
ATOM     12  O5  GNX d 141      26.653  -8.692 -22.827  0.00  0.00    -0.349 OA
ATOM     13  O12 GNX d 141      32.165 -11.610 -21.633  0.00  0.00    -0.572 OA
ATOM     14  C2  GNX d 141      28.242  -9.182 -21.101  0.00  0.00     0.083 C 
ATOM     15  O3  GNX d 141      30.348 -10.072 -21.824  0.00  0.00    -0.247 OA
ATOM     16  O22 GNX d 141      32.603  -9.640 -22.916  0.00  0.00    -0.572 OA
ATOM     17  O3S GNX d 141      26.994  -9.639 -18.249  0.00  0.00    -0.296 OA
ATOM     18  O4  GNX d 141      29.888  -8.929 -24.447  0.00  0.00    -0.390 OA
ATOM     19  N   GNX d 141      28.704  -8.775 -19.789  0.00  0.00    -0.210 NA
ATOM     20  H   GNX d 141      26.249  -8.463 -20.848  0.00  0.00     0.131 H 
ATOM     21  H   GNX d 141      25.317  -8.855 -26.011  0.00  0.00     0.209 HD
ATOM     22  H   GNX d 141      30.159  -9.229 -17.632  0.00  0.00     0.231 HD
ATOM     23  H   GNX d 141      27.386  -7.858 -25.836  0.00  0.00     0.078 H 
ATOM     24  H   GNX d 141      27.455  -9.582 -25.560  0.00  0.00     0.078 H 
ATOM     25  H   GNX d 141      27.935  -7.378 -23.718  0.00  0.00     0.090 H 
ATOM     26  H   GNX d 141      29.820  -8.111 -22.031  0.00  0.00     0.092 H 
ATOM     27  H   GNX d 141      29.801 -11.065 -19.059  0.00  0.00     0.231 HD
ATOM     28  H   GNX d 141      28.593 -10.297 -23.661  0.00  0.00     0.091 H 
ATOM     29  H   GNX d 141      27.916 -10.201 -21.060  0.00  0.00     0.076 H 
ATOM     30  H   GNX d 141      26.505 -10.008 -19.002  0.00  0.00     0.231 HD
ATOM     31  H   GNX d 141      30.133  -7.999 -24.324  0.00  0.00     0.210 HD
ATOM     32  H   GNX d 141      29.716  -8.660 -19.855  0.00  0.00     0.140 HD
ATOM     33  C2  IDY d 142      27.946  -5.133 -18.943  0.00  0.00     0.134 C 
ATOM     34  C5  IDY d 142      26.466  -4.739 -21.535  0.00  0.00     0.152 C 
ATOM     35  C1  IDY d 142      27.920  -3.853 -19.781  0.00  0.00     0.160 C 
ATOM     36  O5  IDY d 142      27.643  -4.016 -21.175  0.00  0.00    -0.340 OA
ATOM     37  O61 IDY d 142      25.605  -4.915 -23.799  0.00  0.00    -0.646 OA
ATOM     38  OS3 IDY d 142      30.656  -3.902 -18.233  0.00  0.00    -0.572 OA
ATOM     39  OS1 IDY d 142      31.667  -6.012 -18.853  0.00  0.00    -0.572 OA
ATOM     40  C6  IDY d 142      26.634  -5.024 -23.004  0.00  0.00     0.206 C 
ATOM     41  C4  IDY d 142      26.354  -6.063 -20.770  0.00  0.00     0.103 C 
ATOM     42  O2  IDY d 142      29.206  -5.839 -19.017  0.00  0.00    -0.244 OA
ATOM     43  O4  IDY d 142      27.444  -6.964 -21.528  0.00  0.00    -0.348 OA
ATOM     44  O62 IDY d 142      27.776  -5.321 -23.461  0.00  0.00    -0.646 OA
ATOM     45  O1  IDY d 142      27.840  -2.461 -19.014  0.00  0.00    -0.363 OA
ATOM     46  OS2 IDY d 142      30.429  -5.880 -16.826  0.00  0.00    -0.572 OA
ATOM     47  C3  IDY d 142      26.730  -6.004 -19.280  0.00  0.00     0.094 C 
ATOM     48  S   IDY d 142      30.477  -5.400 -18.226  0.00  0.00     0.252 S 
ATOM     49  C7  IDY d 142      27.339  -1.638 -18.860  0.00  0.00     0.007 C 
ATOM     50  O3  IDY d 142      25.607  -5.513 -18.520  0.00  0.00    -0.390 OA
ATOM     51  H   IDY d 142      27.870  -4.856 -17.912  0.00  0.00     0.097 H 
ATOM     52  H   IDY d 142      25.583  -4.179 -21.306  0.00  0.00     0.104 H 
ATOM     53  H   IDY d 142      28.907  -3.519 -20.025  0.00  0.00     0.133 H 
ATOM     54  H   IDY d 142      25.342  -6.408 -20.767  0.00  0.00     0.092 H 
ATOM     55  H   IDY d 142      26.994  -7.009 -19.024  0.00  0.00     0.091 H 
ATOM     56  H   IDY d 142      27.863  -1.028 -18.154  0.00  0.00     0.066 H 
ATOM     57  H   IDY d 142      26.369  -1.877 -18.475  0.00  0.00     0.066 H 
ATOM     58  H   IDY d 142      27.234  -1.106 -19.783  0.00  0.00     0.066 H 
ATOM     59  H   IDY d 142      25.409  -4.602 -18.789  0.00  0.00     0.210 HD
ENDROOT
TORSDOF 18
ENDMDL
MODEL 61
REMARK VINA RESULT:      -5.3      3.055      5.996
REMARK  0 active torsions:
REMARK  status: ('A' for Active; 'I' for Inactive)
REMARK       I    between atoms: S1_1  and  N_36 
REMARK       I    between atoms: S1_1  and  O1S_20 
REMARK       I    between atoms: S1_1  and  O2S_7 
REMARK       I    between atoms: S1_1  and  O3S_31 
REMARK       I    between atoms: C1_2  and  O4_21 
REMARK       I    between atoms: O6_4  and  C6_9 
REMARK       I    between atoms: C2_5  and  O2_18 
REMARK       I    between atoms: C5_6  and  C6_15 
REMARK       I    between atoms: C1_8  and  O1_27 
REMARK       I    between atoms: C6_9  and  C5_16 
REMARK       I    between atoms: S12_12  and  O3_28 
REMARK       I    between atoms: C4_17  and  O4_21 
REMARK       I    between atoms: O2_18  and  S_33 
REMARK       I    between atoms: C3_19  and  O3_28 
REMARK       I    between atoms: C4_23  and  O4_34 
REMARK       I    between atoms: C2_26  and  N_36 
REMARK       I    between atoms: O1_27  and  C7_35 
REMARK       I    between atoms: C3_32  and  O3_37 
ROOT
ATOM      1  S1  GNX d 141      28.168  -8.561 -23.861  0.00  0.00     0.156 S 
ATOM      2  C1  GNX d 141      29.101  -6.122 -21.403  0.00  0.00     0.150 C 
ATOM      3  O32 GNX d 141      26.291 -10.330 -20.588  0.00  0.00    -0.572 OA
ATOM      4  O6  GNX d 141      31.425  -4.860 -18.578  0.00  0.00    -0.398 OA
ATOM      5  O2S GNX d 141      26.926  -8.875 -24.560  0.00  0.00    -0.296 OA
ATOM      6  C6  GNX d 141      30.476  -5.743 -18.022  0.00  0.00     0.043 C 
ATOM      7  S12 GNX d 141      27.375 -10.508 -19.616  0.00  0.00     0.252 S 
ATOM      8  C5  GNX d 141      29.491  -6.175 -19.102  0.00  0.00     0.089 C 
ATOM      9  C3  GNX d 141      28.258  -8.111 -20.123  0.00  0.00     0.107 C 
ATOM     10  O1S GNX d 141      28.919  -9.760 -23.498  0.00  0.00    -0.296 OA
ATOM     11  C4  GNX d 141      29.179  -7.662 -18.994  0.00  0.00     0.090 C 
ATOM     12  O5  GNX d 141      30.037  -5.900 -20.373  0.00  0.00    -0.349 OA
ATOM     13  O12 GNX d 141      27.960 -11.875 -19.829  0.00  0.00    -0.572 OA
ATOM     14  C2  GNX d 141      28.761  -7.606 -21.470  0.00  0.00     0.083 C 
ATOM     15  O3  GNX d 141      28.192  -9.519 -20.143  0.00  0.00    -0.247 OA
ATOM     16  O22 GNX d 141      26.749 -10.500 -18.294  0.00  0.00    -0.572 OA
ATOM     17  O3S GNX d 141      28.989  -7.612 -24.609  0.00  0.00    -0.296 OA
ATOM     18  O4  GNX d 141      28.563  -7.924 -17.752  0.00  0.00    -0.390 OA
ATOM     19  N   GNX d 141      27.759  -7.840 -22.492  0.00  0.00    -0.210 NA
ATOM     20  H   GNX d 141      29.519  -5.809 -22.338  0.00  0.00     0.131 H 
ATOM     21  H   GNX d 141      32.052  -4.585 -17.891  0.00  0.00     0.209 HD
ATOM     22  H   GNX d 141      26.410  -9.506 -24.035  0.00  0.00     0.231 HD
ATOM     23  H   GNX d 141      29.947  -5.250 -17.234  0.00  0.00     0.078 H 
ATOM     24  H   GNX d 141      30.977  -6.604 -17.631  0.00  0.00     0.078 H 
ATOM     25  H   GNX d 141      28.581  -5.629 -18.969  0.00  0.00     0.090 H 
ATOM     26  H   GNX d 141      27.285  -7.701 -19.949  0.00  0.00     0.092 H 
ATOM     27  H   GNX d 141      28.343 -10.365 -23.005  0.00  0.00     0.231 HD
ATOM     28  H   GNX d 141      30.097  -8.208 -19.068  0.00  0.00     0.091 H 
ATOM     29  H   GNX d 141      29.651  -8.143 -21.720  0.00  0.00     0.076 H 
ATOM     30  H   GNX d 141      29.803  -7.429 -24.114  0.00  0.00     0.231 HD
ATOM     31  H   GNX d 141      27.733  -7.427 -17.692  0.00  0.00     0.210 HD
ATOM     32  H   GNX d 141      27.030  -8.412 -22.065  0.00  0.00     0.140 HD
ATOM     33  C2  IDY d 142      25.534  -4.823 -23.201  0.00  0.00     0.134 C 
ATOM     34  C5  IDY d 142      27.080  -3.109 -21.267  0.00  0.00     0.152 C 
ATOM     35  C1  IDY d 142      24.955  -3.723 -22.308  0.00  0.00     0.160 C 
ATOM     36  O5  IDY d 142      25.694  -3.418 -21.122  0.00  0.00    -0.340 OA
ATOM     37  O61 IDY d 142      28.494  -2.276 -19.477  0.00  0.00    -0.646 OA
ATOM     38  OS3 IDY d 142      22.675  -5.833 -22.794  0.00  0.00    -0.572 OA
ATOM     39  OS1 IDY d 142      23.625  -7.935 -22.063  0.00  0.00    -0.572 OA
ATOM     40  C6  IDY d 142      27.630  -3.173 -19.867  0.00  0.00     0.206 C 
ATOM     41  C4  IDY d 142      27.804  -4.136 -22.145  0.00  0.00     0.103 C 
ATOM     42  O2  IDY d 142      25.197  -6.158 -22.756  0.00  0.00    -0.244 OA
ATOM     43  O4  IDY d 142      27.930  -5.382 -21.142  0.00  0.00    -0.348 OA
ATOM     44  O62 IDY d 142      27.216  -4.064 -19.069  0.00  0.00    -0.646 OA
ATOM     45  O1  IDY d 142      23.824  -2.787 -22.919  0.00  0.00    -0.363 OA
ATOM     46  OS2 IDY d 142      23.712  -7.375 -24.373  0.00  0.00    -0.572 OA
ATOM     47  C3  IDY d 142      27.040  -4.600 -23.396  0.00  0.00     0.094 C 
ATOM     48  S   IDY d 142      23.803  -6.812 -23.006  0.00  0.00     0.252 S 
ATOM     49  C7  IDY d 142      23.552  -1.881 -23.160  0.00  0.00     0.007 C 
ATOM     50  O3  IDY d 142      27.212  -3.632 -24.452  0.00  0.00    -0.390 OA
ATOM     51  H   IDY d 142      25.069  -4.750 -24.161  0.00  0.00     0.097 H 
ATOM     52  H   IDY d 142      27.216  -2.157 -21.737  0.00  0.00     0.104 H 
ATOM     53  H   IDY d 142      24.151  -4.088 -21.703  0.00  0.00     0.133 H 
ATOM     54  H   IDY d 142      28.710  -3.722 -22.536  0.00  0.00     0.092 H 
ATOM     55  H   IDY d 142      27.460  -5.554 -23.637  0.00  0.00     0.091 H 
ATOM     56  H   IDY d 142      22.567  -1.902 -23.575  0.00  0.00     0.066 H 
ATOM     57  H   IDY d 142      24.236  -1.483 -23.881  0.00  0.00     0.066 H 
ATOM     58  H   IDY d 142      23.557  -1.263 -22.286  0.00  0.00     0.066 H 
ATOM     59  H   IDY d 142      26.814  -2.789 -24.184  0.00  0.00     0.210 HD
ENDROOT
TORSDOF 18
ENDMDL
MODEL 62
REMARK VINA RESULT:      -5.3      6.110      9.355
REMARK  0 active torsions:
REMARK  status: ('A' for Active; 'I' for Inactive)
REMARK       I    between atoms: S1_1  and  N_36 
REMARK       I    between atoms: S1_1  and  O1S_20 
REMARK       I    between atoms: S1_1  and  O2S_7 
REMARK       I    between atoms: S1_1  and  O3S_31 
REMARK       I    between atoms: C1_2  and  O4_21 
REMARK       I    between atoms: O6_4  and  C6_9 
REMARK       I    between atoms: C2_5  and  O2_18 
REMARK       I    between atoms: C5_6  and  C6_15 
REMARK       I    between atoms: C1_8  and  O1_27 
REMARK       I    between atoms: C6_9  and  C5_16 
REMARK       I    between atoms: S12_12  and  O3_28 
REMARK       I    between atoms: C4_17  and  O4_21 
REMARK       I    between atoms: O2_18  and  S_33 
REMARK       I    between atoms: C3_19  and  O3_28 
REMARK       I    between atoms: C4_23  and  O4_34 
REMARK       I    between atoms: C2_26  and  N_36 
REMARK       I    between atoms: O1_27  and  C7_35 
REMARK       I    between atoms: C3_32  and  O3_37 
ROOT
ATOM      1  S1  GNX d 141      28.993  -4.682 -18.123  0.00  0.00     0.156 S 
ATOM      2  C1  GNX d 141      30.590  -7.798 -18.895  0.00  0.00     0.150 C 
ATOM      3  O32 GNX d 141      25.549  -6.878 -18.946  0.00  0.00    -0.572 OA
ATOM      4  O6  GNX d 141      32.044 -10.336 -21.430  0.00  0.00    -0.398 OA
ATOM      5  O2S GNX d 141      28.231  -4.187 -16.980  0.00  0.00    -0.296 OA
ATOM      6  C6  GNX d 141      30.651 -10.535 -21.339  0.00  0.00     0.043 C 
ATOM      7  S12 GNX d 141      25.769  -7.378 -20.307  0.00  0.00     0.252 S 
ATOM      8  C5  GNX d 141      30.074  -9.611 -20.273  0.00  0.00     0.089 C 
ATOM      9  C3  GNX d 141      28.222  -8.012 -19.704  0.00  0.00     0.107 C 
ATOM     10  O1S GNX d 141      28.450  -4.216 -19.396  0.00  0.00    -0.296 OA
ATOM     11  C4  GNX d 141      28.757  -8.999 -20.735  0.00  0.00     0.090 C 
ATOM     12  O5  GNX d 141      30.998  -8.583 -19.993  0.00  0.00    -0.349 OA
ATOM     13  O12 GNX d 141      25.181  -6.380 -21.263  0.00  0.00    -0.572 OA
ATOM     14  C2  GNX d 141      29.314  -7.047 -19.254  0.00  0.00     0.083 C 
ATOM     15  O3  GNX d 141      27.152  -7.284 -20.263  0.00  0.00    -0.247 OA
ATOM     16  O22 GNX d 141      24.989  -8.611 -20.424  0.00  0.00    -0.572 OA
ATOM     17  O3S GNX d 141      30.417  -4.382 -17.998  0.00  0.00    -0.296 OA
ATOM     18  O4  GNX d 141      27.810 -10.023 -20.942  0.00  0.00    -0.390 OA
ATOM     19  N   GNX d 141      28.855  -6.276 -18.116  0.00  0.00    -0.210 NA
ATOM     20  H   GNX d 141      31.361  -7.096 -18.654  0.00  0.00     0.131 H 
ATOM     21  H   GNX d 141      32.411 -10.925 -22.107  0.00  0.00     0.209 HD
ATOM     22  H   GNX d 141      27.293  -4.404 -17.099  0.00  0.00     0.231 HD
ATOM     23  H   GNX d 141      30.452 -11.553 -21.074  0.00  0.00     0.078 H 
ATOM     24  H   GNX d 141      30.197 -10.318 -22.283  0.00  0.00     0.078 H 
ATOM     25  H   GNX d 141      29.887 -10.186 -19.391  0.00  0.00     0.090 H 
ATOM     26  H   GNX d 141      27.885  -8.563 -18.851  0.00  0.00     0.092 H 
ATOM     27  H   GNX d 141      27.505  -4.432 -19.442  0.00  0.00     0.231 HD
ATOM     28  H   GNX d 141      28.931  -8.472 -21.650  0.00  0.00     0.091 H 
ATOM     29  H   GNX d 141      29.531  -6.384 -20.065  0.00  0.00     0.076 H 
ATOM     30  H   GNX d 141      30.889  -4.725 -18.773  0.00  0.00     0.231 HD
ATOM     31  H   GNX d 141      27.658 -10.495 -20.109  0.00  0.00     0.210 HD
ATOM     32  H   GNX d 141      27.862  -6.484 -17.999  0.00  0.00     0.140 HD
ATOM     33  C2  IDY d 142      29.956  -7.684 -14.745  0.00  0.00     0.134 C 
ATOM     34  C5  IDY d 142      31.550  -9.867 -16.071  0.00  0.00     0.152 C 
ATOM     35  C1  IDY d 142      30.141  -9.110 -14.223  0.00  0.00     0.160 C 
ATOM     36  O5  IDY d 142      30.443 -10.108 -15.202  0.00  0.00    -0.340 OA
ATOM     37  O61 IDY d 142      32.460 -11.504 -17.617  0.00  0.00    -0.646 OA
ATOM     38  OS3 IDY d 142      27.366  -8.078 -13.165  0.00  0.00    -0.572 OA
ATOM     39  OS1 IDY d 142      26.164  -7.415 -15.158  0.00  0.00    -0.572 OA
ATOM     40  C6  IDY d 142      31.401 -10.892 -17.165  0.00  0.00     0.206 C 
ATOM     41  C4  IDY d 142      31.501  -8.461 -16.681  0.00  0.00     0.103 C 
ATOM     42  O2  IDY d 142      28.633  -7.435 -15.275  0.00  0.00    -0.244 OA
ATOM     43  O4  IDY d 142      30.349  -8.631 -17.784  0.00  0.00    -0.348 OA
ATOM     44  O62 IDY d 142      30.249 -11.181 -17.601  0.00  0.00    -0.646 OA
ATOM     45  O1  IDY d 142      30.339  -9.310 -12.657  0.00  0.00    -0.363 OA
ATOM     46  OS2 IDY d 142      27.343  -5.760 -13.922  0.00  0.00    -0.572 OA
ATOM     47  C3  IDY d 142      31.087  -7.334 -15.722  0.00  0.00     0.094 C 
ATOM     48  S   IDY d 142      27.390  -7.171 -14.370  0.00  0.00     0.252 S 
ATOM     49  C7  IDY d 142      30.917  -9.630 -11.939  0.00  0.00     0.007 C 
ATOM     50  O3  IDY d 142      32.229  -6.917 -14.946  0.00  0.00    -0.390 OA
ATOM     51  H   IDY d 142      30.027  -7.015 -13.914  0.00  0.00     0.097 H 
ATOM     52  H   IDY d 142      32.478  -9.938 -15.543  0.00  0.00     0.104 H 
ATOM     53  H   IDY d 142      29.201  -9.589 -14.038  0.00  0.00     0.133 H 
ATOM     54  H   IDY d 142      32.472  -8.167 -17.020  0.00  0.00     0.092 H 
ATOM     55  H   IDY d 142      30.712  -6.558 -16.355  0.00  0.00     0.091 H 
ATOM     56  H   IDY d 142      30.437  -9.470 -10.996  0.00  0.00     0.066 H 
ATOM     57  H   IDY d 142      31.844  -9.096 -11.962  0.00  0.00     0.066 H 
ATOM     58  H   IDY d 142      31.105 -10.675 -12.070  0.00  0.00     0.066 H 
ATOM     59  H   IDY d 142      32.529  -7.654 -14.391  0.00  0.00     0.210 HD
ENDROOT
TORSDOF 18
ENDMDL
MODEL 63
REMARK VINA RESULT:      -5.3      3.245      7.495
REMARK  0 active torsions:
REMARK  status: ('A' for Active; 'I' for Inactive)
REMARK       I    between atoms: S1_1  and  N_36 
REMARK       I    between atoms: S1_1  and  O1S_20 
REMARK       I    between atoms: S1_1  and  O2S_7 
REMARK       I    between atoms: S1_1  and  O3S_31 
REMARK       I    between atoms: C1_2  and  O4_21 
REMARK       I    between atoms: O6_4  and  C6_9 
REMARK       I    between atoms: C2_5  and  O2_18 
REMARK       I    between atoms: C5_6  and  C6_15 
REMARK       I    between atoms: C1_8  and  O1_27 
REMARK       I    between atoms: C6_9  and  C5_16 
REMARK       I    between atoms: S12_12  and  O3_28 
REMARK       I    between atoms: C4_17  and  O4_21 
REMARK       I    between atoms: O2_18  and  S_33 
REMARK       I    between atoms: C3_19  and  O3_28 
REMARK       I    between atoms: C4_23  and  O4_34 
REMARK       I    between atoms: C2_26  and  N_36 
REMARK       I    between atoms: O1_27  and  C7_35 
REMARK       I    between atoms: C3_32  and  O3_37 
ROOT
ATOM      1  S1  GNX d 141      28.489  -3.531 -18.825  0.00  0.00     0.156 S 
ATOM      2  C1  GNX d 141      26.221  -4.746 -21.323  0.00  0.00     0.150 C 
ATOM      3  O32 GNX d 141      25.037  -3.513 -16.491  0.00  0.00    -0.572 OA
ATOM      4  O6  GNX d 141      23.583  -4.158 -24.092  0.00  0.00    -0.398 OA
ATOM      5  O2S GNX d 141      29.111  -4.123 -17.644  0.00  0.00    -0.296 OA
ATOM      6  C6  GNX d 141      22.935  -4.144 -22.840  0.00  0.00     0.043 C 
ATOM      7  S12 GNX d 141      24.109  -2.665 -17.245  0.00  0.00     0.252 S 
ATOM      8  C5  GNX d 141      23.941  -4.471 -21.743  0.00  0.00     0.089 C 
ATOM      9  C3  GNX d 141      24.791  -3.848 -19.463  0.00  0.00     0.107 C 
ATOM     10  O1S GNX d 141      28.094  -2.143 -18.607  0.00  0.00    -0.296 OA
ATOM     11  C4  GNX d 141      23.734  -3.577 -20.527  0.00  0.00     0.090 C 
ATOM     12  O5  GNX d 141      25.250  -4.296 -22.239  0.00  0.00    -0.349 OA
ATOM     13  O12 GNX d 141      24.270  -1.256 -16.752  0.00  0.00    -0.572 OA
ATOM     14  C2  GNX d 141      26.187  -3.871 -20.075  0.00  0.00     0.083 C 
ATOM     15  O3  GNX d 141      24.728  -2.847 -18.473  0.00  0.00    -0.247 OA
ATOM     16  O22 GNX d 141      22.761  -3.106 -16.883  0.00  0.00    -0.572 OA
ATOM     17  O3S GNX d 141      29.327  -3.678 -20.012  0.00  0.00    -0.296 OA
ATOM     18  O4  GNX d 141      22.452  -3.810 -19.986  0.00  0.00    -0.390 OA
ATOM     19  N   GNX d 141      27.147  -4.356 -19.102  0.00  0.00    -0.210 NA
ATOM     20  H   GNX d 141      27.190  -4.687 -21.773  0.00  0.00     0.131 H 
ATOM     21  H   GNX d 141      22.943  -3.951 -24.790  0.00  0.00     0.209 HD
ATOM     22  H   GNX d 141      28.528  -4.006 -16.878  0.00  0.00     0.231 HD
ATOM     23  H   GNX d 141      22.152  -4.874 -22.834  0.00  0.00     0.078 H 
ATOM     24  H   GNX d 141      22.518  -3.174 -22.665  0.00  0.00     0.078 H 
ATOM     25  H   GNX d 141      23.797  -5.488 -21.443  0.00  0.00     0.090 H 
ATOM     26  H   GNX d 141      24.597  -4.806 -19.028  0.00  0.00     0.092 H 
ATOM     27  H   GNX d 141      27.541  -2.085 -17.812  0.00  0.00     0.231 HD
ATOM     28  H   GNX d 141      23.819  -2.557 -20.838  0.00  0.00     0.091 H 
ATOM     29  H   GNX d 141      26.447  -2.873 -20.358  0.00  0.00     0.076 H 
ATOM     30  H   GNX d 141      28.882  -3.275 -20.773  0.00  0.00     0.231 HD
ATOM     31  H   GNX d 141      22.382  -4.736 -19.707  0.00  0.00     0.210 HD
ATOM     32  H   GNX d 141      26.654  -4.425 -18.211  0.00  0.00     0.140 HD
ATOM     33  C2  IDY d 142      27.922  -8.079 -19.415  0.00  0.00     0.134 C 
ATOM     34  C5  IDY d 142      26.163  -8.338 -21.845  0.00  0.00     0.152 C 
ATOM     35  C1  IDY d 142      27.068  -9.293 -19.785  0.00  0.00     0.160 C 
ATOM     36  O5  IDY d 142      25.937  -9.038 -20.622  0.00  0.00    -0.340 OA
ATOM     37  O61 IDY d 142      24.491  -8.029 -23.579  0.00  0.00    -0.646 OA
ATOM     38  OS3 IDY d 142      27.327  -9.249 -16.652  0.00  0.00    -0.572 OA
ATOM     39  OS1 IDY d 142      26.521  -7.060 -16.006  0.00  0.00    -0.572 OA
ATOM     40  C6  IDY d 142      24.789  -7.938 -22.312  0.00  0.00     0.206 C 
ATOM     41  C4  IDY d 142      27.014  -7.080 -21.632  0.00  0.00     0.103 C 
ATOM     42  O2  IDY d 142      27.387  -7.319 -18.307  0.00  0.00    -0.244 OA
ATOM     43  O4  IDY d 142      25.949  -6.083 -20.967  0.00  0.00    -0.348 OA
ATOM     44  O62 IDY d 142      23.923  -7.563 -21.469  0.00  0.00    -0.646 OA
ATOM     45  O1  IDY d 142      27.678 -10.740 -19.527  0.00  0.00    -0.363 OA
ATOM     46  OS2 IDY d 142      28.861  -7.391 -16.276  0.00  0.00    -0.572 OA
ATOM     47  C3  IDY d 142      28.200  -7.234 -20.666  0.00  0.00     0.094 C 
ATOM     48  S   IDY d 142      27.535  -7.764 -16.819  0.00  0.00     0.252 S 
ATOM     49  C7  IDY d 142      27.957 -11.591 -19.913  0.00  0.00     0.007 C 
ATOM     50  O3  IDY d 142      29.315  -7.825 -21.362  0.00  0.00    -0.390 OA
ATOM     51  H   IDY d 142      28.863  -8.434 -19.050  0.00  0.00     0.097 H 
ATOM     52  H   IDY d 142      26.693  -8.948 -22.548  0.00  0.00     0.104 H 
ATOM     53  H   IDY d 142      26.406  -9.568 -18.990  0.00  0.00     0.133 H 
ATOM     54  H   IDY d 142      27.470  -6.777 -22.552  0.00  0.00     0.092 H 
ATOM     55  H   IDY d 142      28.405  -6.241 -20.323  0.00  0.00     0.091 H 
ATOM     56  H   IDY d 142      28.325 -12.230 -19.138  0.00  0.00     0.066 H 
ATOM     57  H   IDY d 142      28.731 -11.420 -20.633  0.00  0.00     0.066 H 
ATOM     58  H   IDY d 142      27.122 -12.057 -20.393  0.00  0.00     0.066 H 
ATOM     59  H   IDY d 142      29.079  -8.721 -21.650  0.00  0.00     0.210 HD
ENDROOT
TORSDOF 18
ENDMDL
MODEL 64
REMARK VINA RESULT:      -5.3      2.248      3.306
REMARK  0 active torsions:
REMARK  status: ('A' for Active; 'I' for Inactive)
REMARK       I    between atoms: S1_1  and  N_36 
REMARK       I    between atoms: S1_1  and  O1S_20 
REMARK       I    between atoms: S1_1  and  O2S_7 
REMARK       I    between atoms: S1_1  and  O3S_31 
REMARK       I    between atoms: C1_2  and  O4_21 
REMARK       I    between atoms: O6_4  and  C6_9 
REMARK       I    between atoms: C2_5  and  O2_18 
REMARK       I    between atoms: C5_6  and  C6_15 
REMARK       I    between atoms: C1_8  and  O1_27 
REMARK       I    between atoms: C6_9  and  C5_16 
REMARK       I    between atoms: S12_12  and  O3_28 
REMARK       I    between atoms: C4_17  and  O4_21 
REMARK       I    between atoms: O2_18  and  S_33 
REMARK       I    between atoms: C3_19  and  O3_28 
REMARK       I    between atoms: C4_23  and  O4_34 
REMARK       I    between atoms: C2_26  and  N_36 
REMARK       I    between atoms: O1_27  and  C7_35 
REMARK       I    between atoms: C3_32  and  O3_37 
ROOT
ATOM      1  S1  GNX d 141      29.602  -9.699 -21.588  0.00  0.00     0.156 S 
ATOM      2  C1  GNX d 141      26.869  -8.910 -23.772  0.00  0.00     0.150 C 
ATOM      3  O32 GNX d 141      31.579  -6.896 -23.955  0.00  0.00    -0.572 OA
ATOM      4  O6  GNX d 141      24.917  -9.381 -27.081  0.00  0.00    -0.398 OA
ATOM      5  O2S GNX d 141      30.248  -9.004 -20.479  0.00  0.00    -0.296 OA
ATOM      6  C6  GNX d 141      25.971  -8.470 -27.303  0.00  0.00     0.043 C 
ATOM      7  S12 GNX d 141      31.432  -7.421 -25.317  0.00  0.00     0.252 S 
ATOM      8  C5  GNX d 141      26.691  -8.196 -25.988  0.00  0.00     0.089 C 
ATOM      9  C3  GNX d 141      28.925  -7.966 -24.863  0.00  0.00     0.107 C 
ATOM     10  O1S GNX d 141      30.559 -10.409 -22.431  0.00  0.00    -0.296 OA
ATOM     11  C4  GNX d 141      28.201  -8.158 -26.190  0.00  0.00     0.090 C 
ATOM     12  O5  GNX d 141      26.366  -9.204 -25.056  0.00  0.00    -0.349 OA
ATOM     13  O12 GNX d 141      32.625  -8.286 -25.606  0.00  0.00    -0.572 OA
ATOM     14  C2  GNX d 141      28.393  -8.927 -23.806  0.00  0.00     0.083 C 
ATOM     15  O3  GNX d 141      30.306  -8.185 -25.045  0.00  0.00    -0.247 OA
ATOM     16  O22 GNX d 141      31.498  -6.267 -26.213  0.00  0.00    -0.572 OA
ATOM     17  O3S GNX d 141      28.527 -10.575 -21.129  0.00  0.00    -0.296 OA
ATOM     18  O4  GNX d 141      28.531  -7.101 -27.063  0.00  0.00    -0.390 OA
ATOM     19  N   GNX d 141      28.923  -8.576 -22.504  0.00  0.00    -0.210 NA
ATOM     20  H   GNX d 141      26.520  -9.645 -23.077  0.00  0.00     0.131 H 
ATOM     21  H   GNX d 141      24.458  -9.555 -27.917  0.00  0.00     0.209 HD
ATOM     22  H   GNX d 141      30.954  -8.434 -20.822  0.00  0.00     0.231 HD
ATOM     23  H   GNX d 141      25.575  -7.554 -27.690  0.00  0.00     0.078 H 
ATOM     24  H   GNX d 141      26.660  -8.886 -28.008  0.00  0.00     0.078 H 
ATOM     25  H   GNX d 141      26.376  -7.243 -25.620  0.00  0.00     0.090 H 
ATOM     26  H   GNX d 141      28.755  -6.964 -24.525  0.00  0.00     0.092 H 
ATOM     27  H   GNX d 141      31.256  -9.797 -22.716  0.00  0.00     0.231 HD
ATOM     28  H   GNX d 141      28.511  -9.091 -26.613  0.00  0.00     0.091 H 
ATOM     29  H   GNX d 141      28.711  -9.916 -24.061  0.00  0.00     0.076 H 
ATOM     30  H   GNX d 141      28.123 -11.017 -21.891  0.00  0.00     0.231 HD
ATOM     31  H   GNX d 141      28.248  -6.259 -26.674  0.00  0.00     0.210 HD
ATOM     32  H   GNX d 141      29.629  -7.855 -22.658  0.00  0.00     0.140 HD
ATOM     33  C2  IDY d 142      26.584  -6.402 -20.416  0.00  0.00     0.134 C 
ATOM     34  C5  IDY d 142      24.435  -6.524 -22.521  0.00  0.00     0.152 C 
ATOM     35  C1  IDY d 142      25.608  -5.280 -20.774  0.00  0.00     0.160 C 
ATOM     36  O5  IDY d 142      25.063  -5.315 -22.097  0.00  0.00    -0.340 OA
ATOM     37  O61 IDY d 142      23.181  -6.766 -24.587  0.00  0.00    -0.646 OA
ATOM     38  OS3 IDY d 142      28.233  -3.928 -19.694  0.00  0.00    -0.572 OA
ATOM     39  OS1 IDY d 142      29.995  -4.813 -21.098  0.00  0.00    -0.572 OA
ATOM     40  C6  IDY d 142      24.282  -6.366 -24.011  0.00  0.00     0.206 C 
ATOM     41  C4  IDY d 142      25.306  -7.752 -22.227  0.00  0.00     0.103 C 
ATOM     42  O2  IDY d 142      27.932  -6.158 -20.879  0.00  0.00    -0.244 OA
ATOM     43  O4  IDY d 142      26.423  -7.634 -23.372  0.00  0.00    -0.348 OA
ATOM     44  O62 IDY d 142      25.198  -5.809 -24.682  0.00  0.00    -0.646 OA
ATOM     45  O1  IDY d 142      25.012  -4.404 -19.588  0.00  0.00    -0.363 OA
ATOM     46  OS2 IDY d 142      29.566  -5.848 -18.999  0.00  0.00    -0.572 OA
ATOM     47  C3  IDY d 142      26.014  -7.755 -20.862  0.00  0.00     0.094 C 
ATOM     48  S   IDY d 142      28.919  -5.189 -20.157  0.00  0.00     0.252 S 
ATOM     49  C7  IDY d 142      24.214  -4.108 -19.109  0.00  0.00     0.007 C 
ATOM     50  O3  IDY d 142      25.097  -8.207 -19.845  0.00  0.00    -0.390 OA
ATOM     51  H   IDY d 142      26.682  -6.428 -19.351  0.00  0.00     0.097 H 
ATOM     52  H   IDY d 142      23.508  -6.679 -22.010  0.00  0.00     0.104 H 
ATOM     53  H   IDY d 142      26.121  -4.373 -21.019  0.00  0.00     0.133 H 
ATOM     54  H   IDY d 142      24.707  -8.639 -22.208  0.00  0.00     0.092 H 
ATOM     55  H   IDY d 142      26.849  -8.411 -20.988  0.00  0.00     0.091 H 
ATOM     56  H   IDY d 142      24.499  -3.450 -18.315  0.00  0.00     0.066 H 
ATOM     57  H   IDY d 142      23.706  -4.958 -18.703  0.00  0.00     0.066 H 
ATOM     58  H   IDY d 142      23.564  -3.592 -19.784  0.00  0.00     0.066 H 
ATOM     59  H   IDY d 142      24.361  -7.580 -19.771  0.00  0.00     0.210 HD
ENDROOT
TORSDOF 18
ENDMDL
MODEL 65
REMARK VINA RESULT:      -5.3      3.082      6.274
REMARK  0 active torsions:
REMARK  status: ('A' for Active; 'I' for Inactive)
REMARK       I    between atoms: S1_1  and  N_36 
REMARK       I    between atoms: S1_1  and  O1S_20 
REMARK       I    between atoms: S1_1  and  O2S_7 
REMARK       I    between atoms: S1_1  and  O3S_31 
REMARK       I    between atoms: C1_2  and  O4_21 
REMARK       I    between atoms: O6_4  and  C6_9 
REMARK       I    between atoms: C2_5  and  O2_18 
REMARK       I    between atoms: C5_6  and  C6_15 
REMARK       I    between atoms: C1_8  and  O1_27 
REMARK       I    between atoms: C6_9  and  C5_16 
REMARK       I    between atoms: S12_12  and  O3_28 
REMARK       I    between atoms: C4_17  and  O4_21 
REMARK       I    between atoms: O2_18  and  S_33 
REMARK       I    between atoms: C3_19  and  O3_28 
REMARK       I    between atoms: C4_23  and  O4_34 
REMARK       I    between atoms: C2_26  and  N_36 
REMARK       I    between atoms: O1_27  and  C7_35 
REMARK       I    between atoms: C3_32  and  O3_37 
ROOT
ATOM      1  S1  GNX d 141      29.929  -7.444 -22.503  0.00  0.00     0.156 S 
ATOM      2  C1  GNX d 141      28.199  -5.506 -20.031  0.00  0.00     0.150 C 
ATOM      3  O32 GNX d 141      27.729 -10.551 -20.808  0.00  0.00    -0.572 OA
ATOM      4  O6  GNX d 141      27.833  -4.136 -16.431  0.00  0.00    -0.398 OA
ATOM      5  O2S GNX d 141      29.540  -8.054 -23.771  0.00  0.00    -0.296 OA
ATOM      6  C6  GNX d 141      27.279  -5.432 -16.480  0.00  0.00     0.043 C 
ATOM      7  S12 GNX d 141      28.095 -10.505 -19.388  0.00  0.00     0.252 S 
ATOM      8  C5  GNX d 141      27.326  -5.950 -17.912  0.00  0.00     0.089 C 
ATOM      9  C3  GNX d 141      27.867  -7.911 -19.386  0.00  0.00     0.107 C 
ATOM     10  O1S GNX d 141      30.845  -8.288 -21.740  0.00  0.00    -0.296 OA
ATOM     11  C4  GNX d 141      27.742  -7.416 -17.950  0.00  0.00     0.090 C 
ATOM     12  O5  GNX d 141      28.241  -5.181 -18.660  0.00  0.00    -0.349 OA
ATOM     13  O12 GNX d 141      29.265 -11.425 -19.188  0.00  0.00    -0.572 OA
ATOM     14  C2  GNX d 141      28.683  -6.938 -20.230  0.00  0.00     0.083 C 
ATOM     15  O3  GNX d 141      28.490  -9.176 -19.394  0.00  0.00    -0.247 OA
ATOM     16  O22 GNX d 141      26.963 -11.069 -18.652  0.00  0.00    -0.572 OA
ATOM     17  O3S GNX d 141      30.458  -6.096 -22.687  0.00  0.00    -0.296 OA
ATOM     18  O4  GNX d 141      26.785  -8.194 -17.266  0.00  0.00    -0.390 OA
ATOM     19  N   GNX d 141      28.596  -7.302 -21.630  0.00  0.00    -0.210 NA
ATOM     20  H   GNX d 141      28.832  -4.837 -20.575  0.00  0.00     0.131 H 
ATOM     21  H   GNX d 141      27.803  -3.806 -15.519  0.00  0.00     0.209 HD
ATOM     22  H   GNX d 141      29.195  -8.945 -23.609  0.00  0.00     0.231 HD
ATOM     23  H   GNX d 141      26.263  -5.400 -16.145  0.00  0.00     0.078 H 
ATOM     24  H   GNX d 141      27.842  -6.085 -15.845  0.00  0.00     0.078 H 
ATOM     25  H   GNX d 141      26.347  -5.867 -18.335  0.00  0.00     0.090 H 
ATOM     26  H   GNX d 141      26.886  -7.983 -19.807  0.00  0.00     0.092 H 
ATOM     27  H   GNX d 141      30.461  -9.173 -21.639  0.00  0.00     0.231 HD
ATOM     28  H   GNX d 141      28.696  -7.509 -17.475  0.00  0.00     0.091 H 
ATOM     29  H   GNX d 141      29.704  -6.993 -19.914  0.00  0.00     0.076 H 
ATOM     30  H   GNX d 141      30.705  -5.725 -21.826  0.00  0.00     0.231 HD
ATOM     31  H   GNX d 141      25.924  -8.104 -17.702  0.00  0.00     0.210 HD
ATOM     32  H   GNX d 141      28.119  -8.204 -21.671  0.00  0.00     0.140 HD
ATOM     33  C2  IDY d 142      25.944  -5.365 -23.572  0.00  0.00     0.134 C 
ATOM     34  C5  IDY d 142      25.263  -3.694 -21.161  0.00  0.00     0.152 C 
ATOM     35  C1  IDY d 142      24.555  -4.842 -23.199  0.00  0.00     0.160 C 
ATOM     36  O5  IDY d 142      24.336  -4.560 -21.814  0.00  0.00    -0.340 OA
ATOM     37  O61 IDY d 142      24.974  -2.820 -18.914  0.00  0.00    -0.646 OA
ATOM     38  OS3 IDY d 142      24.150  -7.506 -24.819  0.00  0.00    -0.572 OA
ATOM     39  OS1 IDY d 142      25.444  -9.156 -23.609  0.00  0.00    -0.572 OA
ATOM     40  C6  IDY d 142      24.971  -3.866 -19.694  0.00  0.00     0.206 C 
ATOM     41  C4  IDY d 142      26.716  -4.097 -21.442  0.00  0.00     0.103 C 
ATOM     42  O2  IDY d 142      26.099  -6.786 -23.352  0.00  0.00    -0.244 OA
ATOM     43  O4  IDY d 142      26.876  -5.388 -20.503  0.00  0.00    -0.348 OA
ATOM     44  O62 IDY d 142      24.682  -5.011 -19.241  0.00  0.00    -0.646 OA
ATOM     45  O1  IDY d 142      23.615  -4.324 -24.373  0.00  0.00    -0.363 OA
ATOM     46  OS2 IDY d 142      26.428  -8.070 -25.484  0.00  0.00    -0.572 OA
ATOM     47  C3  IDY d 142      27.023  -4.514 -22.889  0.00  0.00     0.094 C 
ATOM     48  S   IDY d 142      25.530  -7.865 -24.324  0.00  0.00     0.252 S 
ATOM     49  C7  IDY d 142      23.118  -3.575 -24.755  0.00  0.00     0.007 C 
ATOM     50  O3  IDY d 142      27.235  -3.336 -23.694  0.00  0.00    -0.390 OA
ATOM     51  H   IDY d 142      26.067  -5.256 -24.629  0.00  0.00     0.097 H 
ATOM     52  H   IDY d 142      25.156  -2.685 -21.503  0.00  0.00     0.104 H 
ATOM     53  H   IDY d 142      23.837  -5.634 -23.143  0.00  0.00     0.133 H 
ATOM     54  H   IDY d 142      27.374  -3.272 -21.266  0.00  0.00     0.092 H 
ATOM     55  H   IDY d 142      27.896  -5.128 -22.819  0.00  0.00     0.091 H 
ATOM     56  H   IDY d 142      22.632  -3.891 -25.654  0.00  0.00     0.066 H 
ATOM     57  H   IDY d 142      23.794  -2.775 -24.977  0.00  0.00     0.066 H 
ATOM     58  H   IDY d 142      22.385  -3.238 -24.053  0.00  0.00     0.066 H 
ATOM     59  H   IDY d 142      26.417  -2.815 -23.726  0.00  0.00     0.210 HD
ENDROOT
TORSDOF 18
ENDMDL
MODEL 66
REMARK VINA RESULT:      -5.3      3.024      6.930
REMARK  0 active torsions:
REMARK  status: ('A' for Active; 'I' for Inactive)
REMARK       I    between atoms: S1_1  and  N_36 
REMARK       I    between atoms: S1_1  and  O1S_20 
REMARK       I    between atoms: S1_1  and  O2S_7 
REMARK       I    between atoms: S1_1  and  O3S_31 
REMARK       I    between atoms: C1_2  and  O4_21 
REMARK       I    between atoms: O6_4  and  C6_9 
REMARK       I    between atoms: C2_5  and  O2_18 
REMARK       I    between atoms: C5_6  and  C6_15 
REMARK       I    between atoms: C1_8  and  O1_27 
REMARK       I    between atoms: C6_9  and  C5_16 
REMARK       I    between atoms: S12_12  and  O3_28 
REMARK       I    between atoms: C4_17  and  O4_21 
REMARK       I    between atoms: O2_18  and  S_33 
REMARK       I    between atoms: C3_19  and  O3_28 
REMARK       I    between atoms: C4_23  and  O4_34 
REMARK       I    between atoms: C2_26  and  N_36 
REMARK       I    between atoms: O1_27  and  C7_35 
REMARK       I    between atoms: C3_32  and  O3_37 
ROOT
ATOM      1  S1  GNX d 141      26.283  -5.611 -19.199  0.00  0.00     0.156 S 
ATOM      2  C1  GNX d 141      28.302  -5.018 -22.104  0.00  0.00     0.150 C 
ATOM      3  O32 GNX d 141      23.775  -7.419 -21.993  0.00  0.00    -0.572 OA
ATOM      4  O6  GNX d 141      29.228  -2.937 -25.232  0.00  0.00    -0.398 OA
ATOM      5  O2S GNX d 141      25.992  -6.790 -18.389  0.00  0.00    -0.296 OA
ATOM      6  C6  GNX d 141      28.173  -3.811 -25.567  0.00  0.00     0.043 C 
ATOM      7  S12 GNX d 141      23.520  -6.358 -22.973  0.00  0.00     0.252 S 
ATOM      8  C5  GNX d 141      27.860  -4.708 -24.375  0.00  0.00     0.089 C 
ATOM      9  C3  GNX d 141      26.041  -5.703 -22.957  0.00  0.00     0.107 C 
ATOM     10  O1S GNX d 141      25.112  -4.758 -19.380  0.00  0.00    -0.296 OA
ATOM     11  C4  GNX d 141      26.356  -4.873 -24.196  0.00  0.00     0.090 C 
ATOM     12  O5  GNX d 141      28.415  -4.147 -23.206  0.00  0.00    -0.349 OA
ATOM     13  O12 GNX d 141      22.276  -5.631 -22.549  0.00  0.00    -0.572 OA
ATOM     14  C2  GNX d 141      26.831  -5.205 -21.751  0.00  0.00     0.083 C 
ATOM     15  O3  GNX d 141      24.661  -5.626 -22.679  0.00  0.00    -0.247 OA
ATOM     16  O22 GNX d 141      23.226  -7.030 -24.240  0.00  0.00    -0.572 OA
ATOM     17  O3S GNX d 141      27.426  -4.864 -18.681  0.00  0.00    -0.296 OA
ATOM     18  O4  GNX d 141      25.814  -5.504 -25.335  0.00  0.00    -0.390 OA
ATOM     19  N   GNX d 141      26.698  -6.140 -20.651  0.00  0.00    -0.210 NA
ATOM     20  H   GNX d 141      28.819  -4.600 -21.265  0.00  0.00     0.131 H 
ATOM     21  H   GNX d 141      29.428  -2.366 -25.990  0.00  0.00     0.209 HD
ATOM     22  H   GNX d 141      25.229  -7.258 -18.763  0.00  0.00     0.231 HD
ATOM     23  H   GNX d 141      28.461  -4.415 -26.401  0.00  0.00     0.078 H 
ATOM     24  H   GNX d 141      27.304  -3.241 -25.823  0.00  0.00     0.078 H 
ATOM     25  H   GNX d 141      28.286  -5.673 -24.555  0.00  0.00     0.090 H 
ATOM     26  H   GNX d 141      26.320  -6.718 -23.148  0.00  0.00     0.092 H 
ATOM     27  H   GNX d 141      24.376  -5.287 -19.724  0.00  0.00     0.231 HD
ATOM     28  H   GNX d 141      25.920  -3.903 -24.074  0.00  0.00     0.091 H 
ATOM     29  H   GNX d 141      26.433  -4.256 -21.458  0.00  0.00     0.076 H 
ATOM     30  H   GNX d 141      27.589  -4.091 -19.243  0.00  0.00     0.231 HD
ATOM     31  H   GNX d 141      26.213  -6.382 -25.439  0.00  0.00     0.210 HD
ATOM     32  H   GNX d 141      25.993  -6.823 -20.929  0.00  0.00     0.140 HD
ATOM     33  C2  IDY d 142      29.576  -8.630 -20.380  0.00  0.00     0.134 C 
ATOM     34  C5  IDY d 142      31.038  -7.335 -22.672  0.00  0.00     0.152 C 
ATOM     35  C1  IDY d 142      30.434  -9.348 -21.424  0.00  0.00     0.160 C 
ATOM     36  O5  IDY d 142      30.581  -8.687 -22.684  0.00  0.00    -0.340 OA
ATOM     37  O61 IDY d 142      31.652  -6.078 -24.657  0.00  0.00    -0.646 OA
ATOM     38  OS3 IDY d 142      28.250 -11.386 -20.442  0.00  0.00    -0.572 OA
ATOM     39  OS1 IDY d 142      26.145 -10.257 -20.833  0.00  0.00    -0.572 OA
ATOM     40  C6  IDY d 142      30.767  -6.833 -24.066  0.00  0.00     0.206 C 
ATOM     41  C4  IDY d 142      30.262  -6.480 -21.663  0.00  0.00     0.103 C 
ATOM     42  O2  IDY d 142      28.157  -8.847 -20.557  0.00  0.00    -0.244 OA
ATOM     43  O4  IDY d 142      28.869  -6.266 -22.430  0.00  0.00    -0.348 OA
ATOM     44  O62 IDY d 142      29.710  -7.184 -24.666  0.00  0.00    -0.646 OA
ATOM     45  O1  IDY d 142      31.359 -10.545 -20.932  0.00  0.00    -0.363 OA
ATOM     46  OS2 IDY d 142      27.129 -10.143 -18.670  0.00  0.00    -0.572 OA
ATOM     47  C3  IDY d 142      29.969  -7.148 -20.310  0.00  0.00     0.094 C 
ATOM     48  S   IDY d 142      27.435 -10.158 -20.118  0.00  0.00     0.252 S 
ATOM     49  C7  IDY d 142      32.265 -10.897 -20.845  0.00  0.00     0.007 C 
ATOM     50  O3  IDY d 142      31.127  -7.036 -19.458  0.00  0.00    -0.390 OA
ATOM     51  H   IDY d 142      29.783  -9.065 -19.425  0.00  0.00     0.097 H 
ATOM     52  H   IDY d 142      32.069  -7.278 -22.390  0.00  0.00     0.104 H 
ATOM     53  H   IDY d 142      29.891 -10.133 -21.909  0.00  0.00     0.133 H 
ATOM     54  H   IDY d 142      30.823  -5.607 -21.403  0.00  0.00     0.092 H 
ATOM     55  H   IDY d 142      29.119  -6.626 -19.924  0.00  0.00     0.091 H 
ATOM     56  H   IDY d 142      32.230 -11.860 -20.379  0.00  0.00     0.066 H 
ATOM     57  H   IDY d 142      32.850 -10.231 -20.245  0.00  0.00     0.066 H 
ATOM     58  H   IDY d 142      32.709 -10.986 -21.814  0.00  0.00     0.066 H 
ATOM     59  H   IDY d 142      31.867  -7.525 -19.851  0.00  0.00     0.210 HD
ENDROOT
TORSDOF 18
ENDMDL
MODEL 67
REMARK VINA RESULT:      -5.3      3.910      7.032
REMARK  0 active torsions:
REMARK  status: ('A' for Active; 'I' for Inactive)
REMARK       I    between atoms: S1_1  and  N_36 
REMARK       I    between atoms: S1_1  and  O1S_20 
REMARK       I    between atoms: S1_1  and  O2S_7 
REMARK       I    between atoms: S1_1  and  O3S_31 
REMARK       I    between atoms: C1_2  and  O4_21 
REMARK       I    between atoms: O6_4  and  C6_9 
REMARK       I    between atoms: C2_5  and  O2_18 
REMARK       I    between atoms: C5_6  and  C6_15 
REMARK       I    between atoms: C1_8  and  O1_27 
REMARK       I    between atoms: C6_9  and  C5_16 
REMARK       I    between atoms: S12_12  and  O3_28 
REMARK       I    between atoms: C4_17  and  O4_21 
REMARK       I    between atoms: O2_18  and  S_33 
REMARK       I    between atoms: C3_19  and  O3_28 
REMARK       I    between atoms: C4_23  and  O4_34 
REMARK       I    between atoms: C2_26  and  N_36 
REMARK       I    between atoms: O1_27  and  C7_35 
REMARK       I    between atoms: C3_32  and  O3_37 
ROOT
ATOM      1  S1  GNX d 141      28.108  -4.346 -22.748  0.00  0.00     0.156 S 
ATOM      2  C1  GNX d 141      28.092  -7.035 -20.376  0.00  0.00     0.150 C 
ATOM      3  O32 GNX d 141      24.042  -5.238 -22.954  0.00  0.00    -0.572 OA
ATOM      4  O6  GNX d 141      28.223 -10.805 -19.510  0.00  0.00    -0.398 OA
ATOM      5  O2S GNX d 141      27.654  -2.959 -22.714  0.00  0.00    -0.296 OA
ATOM      6  C6  GNX d 141      26.894 -10.461 -19.836  0.00  0.00     0.043 C 
ATOM      7  S12 GNX d 141      24.013  -6.659 -23.315  0.00  0.00     0.252 S 
ATOM      8  C5  GNX d 141      26.804  -8.961 -20.085  0.00  0.00     0.089 C 
ATOM      9  C3  GNX d 141      25.895  -7.164 -21.587  0.00  0.00     0.107 C 
ATOM     10  O1S GNX d 141      27.846  -4.984 -24.035  0.00  0.00    -0.296 OA
ATOM     11  C4  GNX d 141      25.920  -8.659 -21.289  0.00  0.00     0.090 C 
ATOM     12  O5  GNX d 141      28.097  -8.443 -20.308  0.00  0.00    -0.349 OA
ATOM     13  O12 GNX d 141      23.956  -6.749 -24.814  0.00  0.00    -0.572 OA
ATOM     14  C2  GNX d 141      27.306  -6.587 -21.603  0.00  0.00     0.083 C 
ATOM     15  O3  GNX d 141      25.284  -6.945 -22.839  0.00  0.00    -0.247 OA
ATOM     16  O22 GNX d 141      22.753  -7.191 -22.795  0.00  0.00    -0.572 OA
ATOM     17  O3S GNX d 141      29.509  -4.470 -22.355  0.00  0.00    -0.296 OA
ATOM     18  O4  GNX d 141      24.608  -9.109 -21.033  0.00  0.00    -0.390 OA
ATOM     19  N   GNX d 141      27.250  -5.140 -21.656  0.00  0.00    -0.210 NA
ATOM     20  H   GNX d 141      29.098  -6.678 -20.447  0.00  0.00     0.131 H 
ATOM     21  H   GNX d 141      28.280 -11.760 -19.351  0.00  0.00     0.209 HD
ATOM     22  H   GNX d 141      26.723  -2.917 -22.980  0.00  0.00     0.231 HD
ATOM     23  H   GNX d 141      26.247 -10.728 -19.026  0.00  0.00     0.078 H 
ATOM     24  H   GNX d 141      26.596 -10.988 -20.718  0.00  0.00     0.078 H 
ATOM     25  H   GNX d 141      26.369  -8.499 -19.223  0.00  0.00     0.090 H 
ATOM     26  H   GNX d 141      25.338  -6.673 -20.816  0.00  0.00     0.092 H 
ATOM     27  H   GNX d 141      26.908  -4.881 -24.262  0.00  0.00     0.231 HD
ATOM     28  H   GNX d 141      26.321  -9.168 -22.140  0.00  0.00     0.091 H 
ATOM     29  H   GNX d 141      27.809  -6.952 -22.474  0.00  0.00     0.076 H 
ATOM     30  H   GNX d 141      29.773  -5.403 -22.390  0.00  0.00     0.231 HD
ATOM     31  H   GNX d 141      24.251  -8.643 -20.260  0.00  0.00     0.210 HD
ATOM     32  H   GNX d 141      26.272  -4.888 -21.809  0.00  0.00     0.140 HD
ATOM     33  C2  IDY d 142      27.562  -3.453 -18.248  0.00  0.00     0.134 C 
ATOM     34  C5  IDY d 142      27.976  -6.098 -16.870  0.00  0.00     0.152 C 
ATOM     35  C1  IDY d 142      27.067  -3.829 -16.850  0.00  0.00     0.160 C 
ATOM     36  O5  IDY d 142      26.880  -5.225 -16.601  0.00  0.00    -0.340 OA
ATOM     37  O61 IDY d 142      28.037  -8.450 -16.270  0.00  0.00    -0.646 OA
ATOM     38  OS3 IDY d 142      25.075  -1.687 -18.005  0.00  0.00    -0.572 OA
ATOM     39  OS1 IDY d 142      24.323  -2.627 -20.105  0.00  0.00    -0.572 OA
ATOM     40  C6  IDY d 142      27.376  -7.479 -16.838  0.00  0.00     0.206 C 
ATOM     41  C4  IDY d 142      28.584  -5.839 -18.254  0.00  0.00     0.103 C 
ATOM     42  O2  IDY d 142      26.505  -3.395 -19.233  0.00  0.00    -0.244 OA
ATOM     43  O4  IDY d 142      27.488  -6.510 -19.215  0.00  0.00    -0.348 OA
ATOM     44  O62 IDY d 142      26.223  -7.674 -17.320  0.00  0.00    -0.646 OA
ATOM     45  O1  IDY d 142      27.143  -2.723 -15.709  0.00  0.00    -0.363 OA
ATOM     46  OS2 IDY d 142      26.127  -1.076 -20.118  0.00  0.00    -0.572 OA
ATOM     47  C3  IDY d 142      28.732  -4.361 -18.650  0.00  0.00     0.094 C 
ATOM     48  S   IDY d 142      25.520  -2.191 -19.355  0.00  0.00     0.252 S 
ATOM     49  C7  IDY d 142      27.505  -2.466 -14.840  0.00  0.00     0.007 C 
ATOM     50  O3  IDY d 142      29.934  -3.823 -18.063  0.00  0.00    -0.390 OA
ATOM     51  H   IDY d 142      27.931  -2.449 -18.210  0.00  0.00     0.097 H 
ATOM     52  H   IDY d 142      28.765  -5.958 -16.161  0.00  0.00     0.104 H 
ATOM     53  H   IDY d 142      26.011  -3.679 -16.751  0.00  0.00     0.133 H 
ATOM     54  H   IDY d 142      29.583  -6.219 -18.301  0.00  0.00     0.092 H 
ATOM     55  H   IDY d 142      28.760  -4.365 -19.720  0.00  0.00     0.091 H 
ATOM     56  H   IDY d 142      27.149  -1.492 -14.579  0.00  0.00     0.066 H 
ATOM     57  H   IDY d 142      28.575  -2.454 -14.889  0.00  0.00     0.066 H 
ATOM     58  H   IDY d 142      27.191  -3.172 -14.100  0.00  0.00     0.066 H 
ATOM     59  H   IDY d 142      29.858  -3.842 -17.096  0.00  0.00     0.210 HD
ENDROOT
TORSDOF 18
ENDMDL
MODEL 68
REMARK VINA RESULT:      -5.2      3.949      7.612
REMARK  0 active torsions:
REMARK  status: ('A' for Active; 'I' for Inactive)
REMARK       I    between atoms: S1_1  and  N_36 
REMARK       I    between atoms: S1_1  and  O1S_20 
REMARK       I    between atoms: S1_1  and  O2S_7 
REMARK       I    between atoms: S1_1  and  O3S_31 
REMARK       I    between atoms: C1_2  and  O4_21 
REMARK       I    between atoms: O6_4  and  C6_9 
REMARK       I    between atoms: C2_5  and  O2_18 
REMARK       I    between atoms: C5_6  and  C6_15 
REMARK       I    between atoms: C1_8  and  O1_27 
REMARK       I    between atoms: C6_9  and  C5_16 
REMARK       I    between atoms: S12_12  and  O3_28 
REMARK       I    between atoms: C4_17  and  O4_21 
REMARK       I    between atoms: O2_18  and  S_33 
REMARK       I    between atoms: C3_19  and  O3_28 
REMARK       I    between atoms: C4_23  and  O4_34 
REMARK       I    between atoms: C2_26  and  N_36 
REMARK       I    between atoms: O1_27  and  C7_35 
REMARK       I    between atoms: C3_32  and  O3_37 
ROOT
ATOM      1  S1  GNX d 141      30.345  -5.852 -23.259  0.00  0.00     0.156 S 
ATOM      2  C1  GNX d 141      28.014  -8.280 -22.021  0.00  0.00     0.150 C 
ATOM      3  O32 GNX d 141      27.836  -3.219 -21.224  0.00  0.00    -0.572 OA
ATOM      4  O6  GNX d 141      24.687 -10.239 -22.282  0.00  0.00    -0.398 OA
ATOM      5  O2S GNX d 141      31.418  -5.072 -22.651  0.00  0.00    -0.296 OA
ATOM      6  C6  GNX d 141      24.431  -8.993 -21.673  0.00  0.00     0.043 C 
ATOM      7  S12 GNX d 141      26.516  -3.470 -21.810  0.00  0.00     0.252 S 
ATOM      8  C5  GNX d 141      25.744  -8.247 -21.473  0.00  0.00     0.089 C 
ATOM      9  C3  GNX d 141      26.924  -6.040 -21.694  0.00  0.00     0.107 C 
ATOM     10  O1S GNX d 141      29.592  -5.084 -24.247  0.00  0.00    -0.296 OA
ATOM     11  C4  GNX d 141      25.591  -6.770 -21.816  0.00  0.00     0.090 C 
ATOM     12  O5  GNX d 141      26.740  -8.820 -22.291  0.00  0.00    -0.349 OA
ATOM     13  O12 GNX d 141      26.335  -2.519 -22.957  0.00  0.00    -0.572 OA
ATOM     14  C2  GNX d 141      28.033  -6.805 -22.407  0.00  0.00     0.083 C 
ATOM     15  O3  GNX d 141      26.807  -4.751 -22.254  0.00  0.00    -0.247 OA
ATOM     16  O22 GNX d 141      25.535  -3.112 -20.784  0.00  0.00    -0.572 OA
ATOM     17  O3S GNX d 141      30.833  -7.114 -23.809  0.00  0.00    -0.296 OA
ATOM     18  O4  GNX d 141      24.651  -6.180 -20.946  0.00  0.00    -0.390 OA
ATOM     19  N   GNX d 141      29.322  -6.224 -22.086  0.00  0.00    -0.210 NA
ATOM     20  H   GNX d 141      28.752  -8.807 -22.589  0.00  0.00     0.131 H 
ATOM     21  H   GNX d 141      23.851 -10.715 -22.409  0.00  0.00     0.209 HD
ATOM     22  H   GNX d 141      31.057  -4.244 -22.298  0.00  0.00     0.231 HD
ATOM     23  H   GNX d 141      23.961  -9.148 -20.725  0.00  0.00     0.078 H 
ATOM     24  H   GNX d 141      23.784  -8.416 -22.301  0.00  0.00     0.078 H 
ATOM     25  H   GNX d 141      26.026  -8.326 -20.444  0.00  0.00     0.090 H 
ATOM     26  H   GNX d 141      27.177  -5.967 -20.657  0.00  0.00     0.092 H 
ATOM     27  H   GNX d 141      29.285  -4.255 -23.847  0.00  0.00     0.231 HD
ATOM     28  H   GNX d 141      25.253  -6.690 -22.828  0.00  0.00     0.091 H 
ATOM     29  H   GNX d 141      27.867  -6.733 -23.462  0.00  0.00     0.076 H 
ATOM     30  H   GNX d 141      30.094  -7.602 -24.203  0.00  0.00     0.231 HD
ATOM     31  H   GNX d 141      24.964  -6.256 -20.032  0.00  0.00     0.210 HD
ATOM     32  H   GNX d 141      29.137  -5.363 -21.572  0.00  0.00     0.140 HD
ATOM     33  C2  IDY d 142      31.154  -7.995 -19.247  0.00  0.00     0.134 C 
ATOM     34  C5  IDY d 142      28.992 -10.079 -19.023  0.00  0.00     0.152 C 
ATOM     35  C1  IDY d 142      30.676  -8.664 -17.956  0.00  0.00     0.160 C 
ATOM     36  O5  IDY d 142      29.343  -9.182 -17.969  0.00  0.00    -0.340 OA
ATOM     37  O61 IDY d 142      26.910 -11.324 -19.127  0.00  0.00    -0.646 OA
ATOM     38  OS3 IDY d 142      31.738  -5.805 -17.191  0.00  0.00    -0.572 OA
ATOM     39  OS1 IDY d 142      30.468  -4.291 -18.588  0.00  0.00    -0.572 OA
ATOM     40  C6  IDY d 142      27.490 -10.168 -18.958  0.00  0.00     0.206 C 
ATOM     41  C4  IDY d 142      29.410  -9.537 -20.395  0.00  0.00     0.103 C 
ATOM     42  O2  IDY d 142      30.719  -6.622 -19.374  0.00  0.00    -0.244 OA
ATOM     43  O4  IDY d 142      28.298  -8.409 -20.646  0.00  0.00    -0.348 OA
ATOM     44  O62 IDY d 142      26.810  -9.134 -18.695  0.00  0.00    -0.646 OA
ATOM     45  O1  IDY d 142      31.770  -9.047 -16.866  0.00  0.00    -0.363 OA
ATOM     46  OS2 IDY d 142      32.624  -4.988 -19.311  0.00  0.00    -0.572 OA
ATOM     47  C3  IDY d 142      30.794  -8.871 -20.454  0.00  0.00     0.094 C 
ATOM     48  S   IDY d 142      31.397  -5.440 -18.615  0.00  0.00     0.252 S 
ATOM     49  C7  IDY d 142      32.197  -9.755 -16.348  0.00  0.00     0.007 C 
ATOM     50  O3  IDY d 142      31.811  -9.885 -20.586  0.00  0.00    -0.390 OA
ATOM     51  H   IDY d 142      32.220  -7.922 -19.206  0.00  0.00     0.097 H 
ATOM     52  H   IDY d 142      29.482 -11.023 -18.906  0.00  0.00     0.104 H 
ATOM     53  H   IDY d 142      30.379  -7.943 -17.223  0.00  0.00     0.133 H 
ATOM     54  H   IDY d 142      29.477 -10.333 -21.107  0.00  0.00     0.092 H 
ATOM     55  H   IDY d 142      30.749  -8.218 -21.301  0.00  0.00     0.091 H 
ATOM     56  H   IDY d 142      32.946  -9.331 -15.714  0.00  0.00     0.066 H 
ATOM     57  H   IDY d 142      32.649 -10.461 -17.013  0.00  0.00     0.066 H 
ATOM     58  H   IDY d 142      31.462 -10.251 -15.748  0.00  0.00     0.066 H 
ATOM     59  H   IDY d 142      31.811 -10.447 -19.796  0.00  0.00     0.210 HD
ENDROOT
TORSDOF 18
ENDMDL
MODEL 69
REMARK VINA RESULT:      -5.2      2.972      5.853
REMARK  0 active torsions:
REMARK  status: ('A' for Active; 'I' for Inactive)
REMARK       I    between atoms: S1_1  and  N_36 
REMARK       I    between atoms: S1_1  and  O1S_20 
REMARK       I    between atoms: S1_1  and  O2S_7 
REMARK       I    between atoms: S1_1  and  O3S_31 
REMARK       I    between atoms: C1_2  and  O4_21 
REMARK       I    between atoms: O6_4  and  C6_9 
REMARK       I    between atoms: C2_5  and  O2_18 
REMARK       I    between atoms: C5_6  and  C6_15 
REMARK       I    between atoms: C1_8  and  O1_27 
REMARK       I    between atoms: C6_9  and  C5_16 
REMARK       I    between atoms: S12_12  and  O3_28 
REMARK       I    between atoms: C4_17  and  O4_21 
REMARK       I    between atoms: O2_18  and  S_33 
REMARK       I    between atoms: C3_19  and  O3_28 
REMARK       I    between atoms: C4_23  and  O4_34 
REMARK       I    between atoms: C2_26  and  N_36 
REMARK       I    between atoms: O1_27  and  C7_35 
REMARK       I    between atoms: C3_32  and  O3_37 
ROOT
ATOM      1  S1  GNX d 141      26.280  -8.750 -20.073  0.00  0.00     0.156 S 
ATOM      2  C1  GNX d 141      29.009  -7.114 -21.726  0.00  0.00     0.150 C 
ATOM      3  O32 GNX d 141      25.563  -4.902 -18.642  0.00  0.00    -0.572 OA
ATOM      4  O6  GNX d 141      32.625  -5.735 -21.766  0.00  0.00    -0.398 OA
ATOM      5  O2S GNX d 141      24.836  -8.784 -20.286  0.00  0.00    -0.296 OA
ATOM      6  C6  GNX d 141      31.777  -4.765 -21.191  0.00  0.00     0.043 C 
ATOM      7  S12 GNX d 141      26.822  -4.531 -17.989  0.00  0.00     0.252 S 
ATOM      8  C5  GNX d 141      30.334  -5.250 -21.255  0.00  0.00     0.089 C 
ATOM      9  C3  GNX d 141      28.177  -5.498 -19.993  0.00  0.00     0.107 C 
ATOM     10  O1S GNX d 141      26.630  -8.718 -18.655  0.00  0.00    -0.296 OA
ATOM     11  C4  GNX d 141      29.596  -4.941 -19.959  0.00  0.00     0.090 C 
ATOM     12  O5  GNX d 141      30.315  -6.641 -21.489  0.00  0.00    -0.349 OA
ATOM     13  O12 GNX d 141      26.721  -4.926 -16.543  0.00  0.00    -0.572 OA
ATOM     14  C2  GNX d 141      28.170  -6.947 -20.464  0.00  0.00     0.083 C 
ATOM     15  O3  GNX d 141      27.611  -5.420 -18.703  0.00  0.00    -0.247 OA
ATOM     16  O22 GNX d 141      26.899  -3.071 -18.041  0.00  0.00    -0.572 OA
ATOM     17  O3S GNX d 141      26.960  -9.835 -20.776  0.00  0.00    -0.296 OA
ATOM     18  O4  GNX d 141      29.548  -3.545 -19.766  0.00  0.00    -0.390 OA
ATOM     19  N   GNX d 141      26.809  -7.382 -20.711  0.00  0.00    -0.210 NA
ATOM     20  H   GNX d 141      29.048  -8.149 -21.994  0.00  0.00     0.131 H 
ATOM     21  H   GNX d 141      33.543  -5.427 -21.725  0.00  0.00     0.209 HD
ATOM     22  H   GNX d 141      24.421  -8.052 -19.805  0.00  0.00     0.231 HD
ATOM     23  H   GNX d 141      31.869  -3.846 -21.730  0.00  0.00     0.078 H 
ATOM     24  H   GNX d 141      32.056  -4.609 -20.169  0.00  0.00     0.078 H 
ATOM     25  H   GNX d 141      29.840  -4.739 -22.055  0.00  0.00     0.090 H 
ATOM     26  H   GNX d 141      27.600  -4.915 -20.681  0.00  0.00     0.092 H 
ATOM     27  H   GNX d 141      26.161  -7.988 -18.223  0.00  0.00     0.231 HD
ATOM     28  H   GNX d 141      30.122  -5.404 -19.150  0.00  0.00     0.091 H 
ATOM     29  H   GNX d 141      28.600  -7.553 -19.694  0.00  0.00     0.076 H 
ATOM     30  H   GNX d 141      27.914  -9.779 -20.611  0.00  0.00     0.231 HD
ATOM     31  H   GNX d 141      29.070  -3.133 -20.502  0.00  0.00     0.210 HD
ATOM     32  H   GNX d 141      26.197  -6.641 -20.369  0.00  0.00     0.140 HD
ATOM     33  C2  IDY d 142      25.741  -7.127 -24.365  0.00  0.00     0.134 C 
ATOM     34  C5  IDY d 142      28.482  -6.203 -25.201  0.00  0.00     0.152 C 
ATOM     35  C1  IDY d 142      26.055  -6.120 -25.474  0.00  0.00     0.160 C 
ATOM     36  O5  IDY d 142      27.298  -5.422 -25.360  0.00  0.00    -0.340 OA
ATOM     37  O61 IDY d 142      30.737  -5.305 -25.276  0.00  0.00    -0.646 OA
ATOM     38  OS3 IDY d 142      23.213  -5.404 -24.334  0.00  0.00    -0.572 OA
ATOM     39  OS1 IDY d 142      23.570  -5.095 -21.960  0.00  0.00    -0.572 OA
ATOM     40  C6  IDY d 142      29.534  -5.211 -24.780  0.00  0.00     0.206 C 
ATOM     41  C4  IDY d 142      28.320  -7.267 -24.109  0.00  0.00     0.103 C 
ATOM     42  O2  IDY d 142      25.186  -6.516 -23.177  0.00  0.00    -0.244 OA
ATOM     43  O4  IDY d 142      28.426  -6.378 -22.778  0.00  0.00    -0.348 OA
ATOM     44  O62 IDY d 142      29.231  -4.272 -23.988  0.00  0.00    -0.646 OA
ATOM     45  O1  IDY d 142      25.187  -6.185 -26.806  0.00  0.00    -0.363 OA
ATOM     46  OS2 IDY d 142      22.813  -7.210 -22.745  0.00  0.00    -0.572 OA
ATOM     47  C3  IDY d 142      26.971  -8.003 -24.091  0.00  0.00     0.094 C 
ATOM     48  S   IDY d 142      23.697  -6.066 -23.068  0.00  0.00     0.252 S 
ATOM     49  C7  IDY d 142      25.180  -6.315 -27.773  0.00  0.00     0.007 C 
ATOM     50  O3  IDY d 142      26.988  -9.063 -25.069  0.00  0.00    -0.390 OA
ATOM     51  H   IDY d 142      24.958  -7.768 -24.711  0.00  0.00     0.097 H 
ATOM     52  H   IDY d 142      28.725  -6.727 -26.102  0.00  0.00     0.104 H 
ATOM     53  H   IDY d 142      25.533  -5.197 -25.328  0.00  0.00     0.133 H 
ATOM     54  H   IDY d 142      29.038  -8.049 -24.240  0.00  0.00     0.092 H 
ATOM     55  H   IDY d 142      26.869  -8.366 -23.089  0.00  0.00     0.091 H 
ATOM     56  H   IDY d 142      24.178  -6.230 -28.137  0.00  0.00     0.066 H 
ATOM     57  H   IDY d 142      25.562  -7.288 -28.004  0.00  0.00     0.066 H 
ATOM     58  H   IDY d 142      25.793  -5.572 -28.238  0.00  0.00     0.066 H 
ATOM     59  H   IDY d 142      27.081  -8.682 -25.956  0.00  0.00     0.210 HD
ENDROOT
TORSDOF 18
ENDMDL
MODEL 70
REMARK VINA RESULT:      -5.2      3.768      7.295
REMARK  0 active torsions:
REMARK  status: ('A' for Active; 'I' for Inactive)
REMARK       I    between atoms: S1_1  and  N_36 
REMARK       I    between atoms: S1_1  and  O1S_20 
REMARK       I    between atoms: S1_1  and  O2S_7 
REMARK       I    between atoms: S1_1  and  O3S_31 
REMARK       I    between atoms: C1_2  and  O4_21 
REMARK       I    between atoms: O6_4  and  C6_9 
REMARK       I    between atoms: C2_5  and  O2_18 
REMARK       I    between atoms: C5_6  and  C6_15 
REMARK       I    between atoms: C1_8  and  O1_27 
REMARK       I    between atoms: C6_9  and  C5_16 
REMARK       I    between atoms: S12_12  and  O3_28 
REMARK       I    between atoms: C4_17  and  O4_21 
REMARK       I    between atoms: O2_18  and  S_33 
REMARK       I    between atoms: C3_19  and  O3_28 
REMARK       I    between atoms: C4_23  and  O4_34 
REMARK       I    between atoms: C2_26  and  N_36 
REMARK       I    between atoms: O1_27  and  C7_35 
REMARK       I    between atoms: C3_32  and  O3_37 
ROOT
ATOM      1  S1  GNX d 141      28.506  -3.086 -20.678  0.00  0.00     0.156 S 
ATOM      2  C1  GNX d 141      27.707  -6.447 -21.637  0.00  0.00     0.150 C 
ATOM      3  O32 GNX d 141      24.381  -2.847 -20.138  0.00  0.00    -0.572 OA
ATOM      4  O6  GNX d 141      26.569  -9.054 -24.262  0.00  0.00    -0.398 OA
ATOM      5  O2S GNX d 141      28.569  -2.382 -19.400  0.00  0.00    -0.296 OA
ATOM      6  C6  GNX d 141      25.426  -8.442 -23.708  0.00  0.00     0.043 C 
ATOM      7  S12 GNX d 141      23.834  -3.225 -21.446  0.00  0.00     0.252 S 
ATOM      8  C5  GNX d 141      25.849  -7.482 -22.602  0.00  0.00     0.089 C 
ATOM      9  C3  GNX d 141      25.530  -5.195 -21.613  0.00  0.00     0.107 C 
ATOM     10  O1S GNX d 141      27.955  -2.254 -21.743  0.00  0.00    -0.296 OA
ATOM     11  C4  GNX d 141      25.050  -6.187 -22.668  0.00  0.00     0.090 C 
ATOM     12  O5  GNX d 141      27.224  -7.195 -22.731  0.00  0.00    -0.349 OA
ATOM     13  O12 GNX d 141      23.651  -1.968 -22.247  0.00  0.00    -0.572 OA
ATOM     14  C2  GNX d 141      27.049  -5.073 -21.631  0.00  0.00     0.083 C 
ATOM     15  O3  GNX d 141      24.953  -3.932 -21.860  0.00  0.00    -0.247 OA
ATOM     16  O22 GNX d 141      22.504  -3.781 -21.191  0.00  0.00    -0.572 OA
ATOM     17  O3S GNX d 141      29.798  -3.657 -21.048  0.00  0.00    -0.296 OA
ATOM     18  O4  GNX d 141      23.683  -6.467 -22.462  0.00  0.00    -0.390 OA
ATOM     19  N   GNX d 141      27.498  -4.312 -20.481  0.00  0.00    -0.210 NA
ATOM     20  H   GNX d 141      28.768  -6.335 -21.723  0.00  0.00     0.131 H 
ATOM     21  H   GNX d 141      26.300  -9.665 -24.966  0.00  0.00     0.209 HD
ATOM     22  H   GNX d 141      27.695  -2.017 -19.189  0.00  0.00     0.231 HD
ATOM     23  H   GNX d 141      24.781  -9.192 -23.301  0.00  0.00     0.078 H 
ATOM     24  H   GNX d 141      24.906  -7.901 -24.471  0.00  0.00     0.078 H 
ATOM     25  H   GNX d 141      25.660  -7.948 -21.658  0.00  0.00     0.090 H 
ATOM     26  H   GNX d 141      25.230  -5.553 -20.650  0.00  0.00     0.092 H 
ATOM     27  H   GNX d 141      27.099  -1.893 -21.462  0.00  0.00     0.231 HD
ATOM     28  H   GNX d 141      25.192  -5.749 -23.633  0.00  0.00     0.091 H 
ATOM     29  H   GNX d 141      27.335  -4.560 -22.525  0.00  0.00     0.076 H 
ATOM     30  H   GNX d 141      29.717  -4.115 -21.899  0.00  0.00     0.231 HD
ATOM     31  H   GNX d 141      23.563  -6.863 -21.585  0.00  0.00     0.210 HD
ATOM     32  H   GNX d 141      26.662  -3.938 -20.030  0.00  0.00     0.140 HD
ATOM     33  C2  IDY d 142      28.601  -6.470 -17.534  0.00  0.00     0.134 C 
ATOM     34  C5  IDY d 142      28.154  -9.004 -19.099  0.00  0.00     0.152 C 
ATOM     35  C1  IDY d 142      28.097  -7.801 -16.971  0.00  0.00     0.160 C 
ATOM     36  O5  IDY d 142      27.451  -8.676 -17.901  0.00  0.00    -0.340 OA
ATOM     37  O61 IDY d 142      27.428 -10.679 -20.699  0.00  0.00    -0.646 OA
ATOM     38  OS3 IDY d 142      26.909  -5.513 -15.171  0.00  0.00    -0.572 OA
ATOM     39  OS1 IDY d 142      25.741  -4.066 -16.720  0.00  0.00    -0.572 OA
ATOM     40  C6  IDY d 142      27.113  -9.632 -19.987  0.00  0.00     0.206 C 
ATOM     41  C4  IDY d 142      28.723  -7.756 -19.785  0.00  0.00     0.103 C 
ATOM     42  O2  IDY d 142      27.569  -5.461 -17.627  0.00  0.00    -0.244 OA
ATOM     43  O4  IDY d 142      27.402  -7.120 -20.436  0.00  0.00    -0.348 OA
ATOM     44  O62 IDY d 142      25.936  -9.171 -19.999  0.00  0.00    -0.646 OA
ATOM     45  O1  IDY d 142      28.629  -8.255 -15.542  0.00  0.00    -0.363 OA
ATOM     46  OS2 IDY d 142      27.968  -3.518 -16.089  0.00  0.00    -0.572 OA
ATOM     47  C3  IDY d 142      29.351  -6.709 -18.851  0.00  0.00     0.094 C 
ATOM     48  S   IDY d 142      27.061  -4.647 -16.397  0.00  0.00     0.252 S 
ATOM     49  C7  IDY d 142      29.114  -8.925 -15.024  0.00  0.00     0.007 C 
ATOM     50  O3  IDY d 142      30.701  -7.101 -18.529  0.00  0.00    -0.390 OA
ATOM     51  H   IDY d 142      29.298  -6.058 -16.835  0.00  0.00     0.097 H 
ATOM     52  H   IDY d 142      28.987  -9.645 -18.895  0.00  0.00     0.104 H 
ATOM     53  H   IDY d 142      27.170  -7.684 -16.450  0.00  0.00     0.133 H 
ATOM     54  H   IDY d 142      29.521  -8.024 -20.446  0.00  0.00     0.092 H 
ATOM     55  H   IDY d 142      29.306  -5.791 -19.398  0.00  0.00     0.091 H 
ATOM     56  H   IDY d 142      29.138  -8.631 -13.995  0.00  0.00     0.066 H 
ATOM     57  H   IDY d 142      30.115  -9.007 -15.395  0.00  0.00     0.066 H 
ATOM     58  H   IDY d 142      28.622  -9.870 -15.113  0.00  0.00     0.066 H 
ATOM     59  H   IDY d 142      30.686  -7.936 -18.035  0.00  0.00     0.210 HD
ENDROOT
TORSDOF 18
ENDMDL
MODEL 71
REMARK VINA RESULT:      -5.2      2.645      5.567
REMARK  0 active torsions:
REMARK  status: ('A' for Active; 'I' for Inactive)
REMARK       I    between atoms: S1_1  and  N_36 
REMARK       I    between atoms: S1_1  and  O1S_20 
REMARK       I    between atoms: S1_1  and  O2S_7 
REMARK       I    between atoms: S1_1  and  O3S_31 
REMARK       I    between atoms: C1_2  and  O4_21 
REMARK       I    between atoms: O6_4  and  C6_9 
REMARK       I    between atoms: C2_5  and  O2_18 
REMARK       I    between atoms: C5_6  and  C6_15 
REMARK       I    between atoms: C1_8  and  O1_27 
REMARK       I    between atoms: C6_9  and  C5_16 
REMARK       I    between atoms: S12_12  and  O3_28 
REMARK       I    between atoms: C4_17  and  O4_21 
REMARK       I    between atoms: O2_18  and  S_33 
REMARK       I    between atoms: C3_19  and  O3_28 
REMARK       I    between atoms: C4_23  and  O4_34 
REMARK       I    between atoms: C2_26  and  N_36 
REMARK       I    between atoms: O1_27  and  C7_35 
REMARK       I    between atoms: C3_32  and  O3_37 
ROOT
ATOM      1  S1  GNX d 141      29.427  -5.987 -20.036  0.00  0.00     0.156 S 
ATOM      2  C1  GNX d 141      26.624  -5.988 -22.273  0.00  0.00     0.150 C 
ATOM      3  O32 GNX d 141      28.682 -10.087 -19.984  0.00  0.00    -0.572 OA
ATOM      4  O6  GNX d 141      22.813  -5.952 -22.947  0.00  0.00    -0.398 OA
ATOM      5  O2S GNX d 141      30.825  -6.389 -20.160  0.00  0.00    -0.296 OA
ATOM      6  C6  GNX d 141      23.216  -7.281 -22.702  0.00  0.00     0.043 C 
ATOM      7  S12 GNX d 141      27.283 -10.183 -19.555  0.00  0.00     0.252 S 
ATOM      8  C5  GNX d 141      24.730  -7.329 -22.531  0.00  0.00     0.089 C 
ATOM      9  C3  GNX d 141      26.629  -8.242 -21.164  0.00  0.00     0.107 C 
ATOM     10  O1S GNX d 141      28.864  -6.332 -18.734  0.00  0.00    -0.296 OA
ATOM     11  C4  GNX d 141      25.121  -8.257 -21.388  0.00  0.00     0.090 C 
ATOM     12  O5  GNX d 141      25.215  -6.031 -22.271  0.00  0.00    -0.349 OA
ATOM     13  O12 GNX d 141      27.270 -10.314 -18.059  0.00  0.00    -0.572 OA
ATOM     14  C2  GNX d 141      27.159  -6.814 -21.108  0.00  0.00     0.083 C 
ATOM     15  O3  GNX d 141      26.931  -8.903 -19.956  0.00  0.00    -0.247 OA
ATOM     16  O22 GNX d 141      26.767 -11.436 -20.109  0.00  0.00    -0.572 OA
ATOM     17  O3S GNX d 141      29.237  -4.575 -20.355  0.00  0.00    -0.296 OA
ATOM     18  O4  GNX d 141      24.703  -9.571 -21.684  0.00  0.00    -0.390 OA
ATOM     19  N   GNX d 141      28.608  -6.821 -21.129  0.00  0.00    -0.210 NA
ATOM     20  H   GNX d 141      26.950  -4.974 -22.171  0.00  0.00     0.131 H 
ATOM     21  H   GNX d 141      21.850  -5.921 -23.056  0.00  0.00     0.209 HD
ATOM     22  H   GNX d 141      30.911  -7.330 -19.941  0.00  0.00     0.231 HD
ATOM     23  H   GNX d 141      22.931  -7.898 -23.528  0.00  0.00     0.078 H 
ATOM     24  H   GNX d 141      22.745  -7.638 -21.810  0.00  0.00     0.078 H 
ATOM     25  H   GNX d 141      25.161  -7.706 -23.434  0.00  0.00     0.090 H 
ATOM     26  H   GNX d 141      27.099  -8.745 -21.984  0.00  0.00     0.092 H 
ATOM     27  H   GNX d 141      29.009  -7.274 -18.558  0.00  0.00     0.231 HD
ATOM     28  H   GNX d 141      24.643  -7.914 -20.494  0.00  0.00     0.091 H 
ATOM     29  H   GNX d 141      26.822  -6.365 -20.197  0.00  0.00     0.076 H 
ATOM     30  H   GNX d 141      28.299  -4.346 -20.262  0.00  0.00     0.231 HD
ATOM     31  H   GNX d 141      25.140  -9.874 -22.495  0.00  0.00     0.210 HD
ATOM     32  H   GNX d 141      28.899  -7.795 -21.035  0.00  0.00     0.140 HD
ATOM     33  C2  IDY d 142      30.110  -6.290 -24.596  0.00  0.00     0.134 C 
ATOM     34  C5  IDY d 142      27.386  -5.907 -25.822  0.00  0.00     0.152 C 
ATOM     35  C1  IDY d 142      29.680  -6.733 -25.996  0.00  0.00     0.160 C 
ATOM     36  O5  IDY d 142      28.280  -6.958 -26.186  0.00  0.00    -0.340 OA
ATOM     37  O61 IDY d 142      25.006  -5.903 -26.303  0.00  0.00    -0.646 OA
ATOM     38  OS3 IDY d 142      31.942  -8.699 -25.045  0.00  0.00    -0.572 OA
ATOM     39  OS1 IDY d 142      31.136  -9.581 -22.940  0.00  0.00    -0.572 OA
ATOM     40  C6  IDY d 142      26.026  -6.554 -25.815  0.00  0.00     0.206 C 
ATOM     41  C4  IDY d 142      27.694  -5.356 -24.424  0.00  0.00     0.103 C 
ATOM     42  O2  IDY d 142      30.253  -7.389 -23.667  0.00  0.00    -0.244 OA
ATOM     43  O4  IDY d 142      27.109  -6.518 -23.486  0.00  0.00    -0.348 OA
ATOM     44  O62 IDY d 142      25.894  -7.734 -25.380  0.00  0.00    -0.646 OA
ATOM     45  O1  IDY d 142      30.724  -6.565 -27.184  0.00  0.00    -0.363 OA
ATOM     46  OS2 IDY d 142      32.624  -7.725 -22.916  0.00  0.00    -0.572 OA
ATOM     47  C3  IDY d 142      29.184  -5.174 -24.094  0.00  0.00     0.094 C 
ATOM     48  S   IDY d 142      31.493  -8.335 -23.651  0.00  0.00     0.252 S 
ATOM     49  C7  IDY d 142      30.925  -6.153 -28.047  0.00  0.00     0.007 C 
ATOM     50  O3  IDY d 142      29.652  -3.927 -24.648  0.00  0.00    -0.390 OA
ATOM     51  H   IDY d 142      31.097  -5.885 -24.665  0.00  0.00     0.097 H 
ATOM     52  H   IDY d 142      27.464  -5.081 -26.498  0.00  0.00     0.104 H 
ATOM     53  H   IDY d 142      29.860  -7.777 -26.153  0.00  0.00     0.133 H 
ATOM     54  H   IDY d 142      27.284  -4.374 -24.311  0.00  0.00     0.092 H 
ATOM     55  H   IDY d 142      29.233  -5.196 -23.025  0.00  0.00     0.091 H 
ATOM     56  H   IDY d 142      31.896  -6.463 -28.372  0.00  0.00     0.066 H 
ATOM     57  H   IDY d 142      30.904  -5.088 -27.947  0.00  0.00     0.066 H 
ATOM     58  H   IDY d 142      30.194  -6.458 -28.766  0.00  0.00     0.066 H 
ATOM     59  H   IDY d 142      29.587  -3.959 -25.615  0.00  0.00     0.210 HD
ENDROOT
TORSDOF 18
ENDMDL
MODEL 72
REMARK VINA RESULT:      -5.2      3.579      7.581
REMARK  0 active torsions:
REMARK  status: ('A' for Active; 'I' for Inactive)
REMARK       I    between atoms: S1_1  and  N_36 
REMARK       I    between atoms: S1_1  and  O1S_20 
REMARK       I    between atoms: S1_1  and  O2S_7 
REMARK       I    between atoms: S1_1  and  O3S_31 
REMARK       I    between atoms: C1_2  and  O4_21 
REMARK       I    between atoms: O6_4  and  C6_9 
REMARK       I    between atoms: C2_5  and  O2_18 
REMARK       I    between atoms: C5_6  and  C6_15 
REMARK       I    between atoms: C1_8  and  O1_27 
REMARK       I    between atoms: C6_9  and  C5_16 
REMARK       I    between atoms: S12_12  and  O3_28 
REMARK       I    between atoms: C4_17  and  O4_21 
REMARK       I    between atoms: O2_18  and  S_33 
REMARK       I    between atoms: C3_19  and  O3_28 
REMARK       I    between atoms: C4_23  and  O4_34 
REMARK       I    between atoms: C2_26  and  N_36 
REMARK       I    between atoms: O1_27  and  C7_35 
REMARK       I    between atoms: C3_32  and  O3_37 
ROOT
ATOM      1  S1  GNX d 141      25.042  -4.253 -21.315  0.00  0.00     0.156 S 
ATOM      2  C1  GNX d 141      26.072  -6.954 -19.193  0.00  0.00     0.150 C 
ATOM      3  O32 GNX d 141      28.381  -2.401 -19.646  0.00  0.00    -0.572 OA
ATOM      4  O6  GNX d 141      26.145  -8.744 -15.763  0.00  0.00    -0.398 OA
ATOM      5  O2S GNX d 141      25.542  -3.700 -22.570  0.00  0.00    -0.296 OA
ATOM      6  C6  GNX d 141      27.148  -7.753 -15.777  0.00  0.00     0.043 C 
ATOM      7  S12 GNX d 141      28.130  -2.460 -18.202  0.00  0.00     0.252 S 
ATOM      8  C5  GNX d 141      27.200  -7.103 -17.154  0.00  0.00     0.089 C 
ATOM      9  C3  GNX d 141      27.345  -4.935 -18.414  0.00  0.00     0.107 C 
ATOM     10  O1S GNX d 141      24.577  -3.216 -20.398  0.00  0.00    -0.296 OA
ATOM     11  C4  GNX d 141      27.375  -5.593 -17.039  0.00  0.00     0.090 C 
ATOM     12  O5  GNX d 141      26.008  -7.387 -17.853  0.00  0.00    -0.349 OA
ATOM     13  O12 GNX d 141      27.419  -1.196 -17.809  0.00  0.00    -0.572 OA
ATOM     14  C2  GNX d 141      26.160  -5.433 -19.233  0.00  0.00     0.083 C 
ATOM     15  O3  GNX d 141      27.257  -3.535 -18.262  0.00  0.00    -0.247 OA
ATOM     16  O22 GNX d 141      29.442  -2.445 -17.554  0.00  0.00    -0.572 OA
ATOM     17  O3S GNX d 141      24.024  -5.276 -21.538  0.00  0.00    -0.296 OA
ATOM     18  O4  GNX d 141      28.604  -5.310 -16.409  0.00  0.00    -0.390 OA
ATOM     19  N   GNX d 141      26.279  -4.978 -20.604  0.00  0.00    -0.210 NA
ATOM     20  H   GNX d 141      25.193  -7.274 -19.712  0.00  0.00     0.131 H 
ATOM     21  H   GNX d 141      26.112  -9.158 -14.886  0.00  0.00     0.209 HD
ATOM     22  H   GNX d 141      26.213  -3.026 -22.381  0.00  0.00     0.231 HD
ATOM     23  H   GNX d 141      28.095  -8.200 -15.558  0.00  0.00     0.078 H 
ATOM     24  H   GNX d 141      26.926  -7.010 -15.039  0.00  0.00     0.078 H 
ATOM     25  H   GNX d 141      28.039  -7.500 -17.685  0.00  0.00     0.090 H 
ATOM     26  H   GNX d 141      28.246  -5.190 -18.932  0.00  0.00     0.092 H 
ATOM     27  H   GNX d 141      25.277  -2.556 -20.274  0.00  0.00     0.231 HD
ATOM     28  H   GNX d 141      26.567  -5.201 -16.458  0.00  0.00     0.091 H 
ATOM     29  H   GNX d 141      25.264  -5.034 -18.805  0.00  0.00     0.076 H 
ATOM     30  H   GNX d 141      23.718  -5.619 -20.684  0.00  0.00     0.231 HD
ATOM     31  H   GNX d 141      29.331  -5.668 -16.941  0.00  0.00     0.210 HD
ATOM     32  H   GNX d 141      27.060  -4.322 -20.630  0.00  0.00     0.140 HD
ATOM     33  C2  IDY d 142      27.837  -7.545 -22.958  0.00  0.00     0.134 C 
ATOM     34  C5  IDY d 142      27.999  -9.600 -20.764  0.00  0.00     0.152 C 
ATOM     35  C1  IDY d 142      28.943  -8.587 -22.778  0.00  0.00     0.160 C 
ATOM     36  O5  IDY d 142      29.137  -9.078 -21.448  0.00  0.00    -0.340 OA
ATOM     37  O61 IDY d 142      28.093 -10.757 -18.631  0.00  0.00    -0.646 OA
ATOM     38  OS3 IDY d 142      30.219  -6.109 -24.233  0.00  0.00    -0.572 OA
ATOM     39  OS1 IDY d 142      29.747  -4.237 -22.773  0.00  0.00    -0.572 OA
ATOM     40  C6  IDY d 142      28.440  -9.710 -19.328  0.00  0.00     0.206 C 
ATOM     41  C4  IDY d 142      26.796  -8.654 -20.855  0.00  0.00     0.103 C 
ATOM     42  O2  IDY d 142      28.255  -6.202 -22.619  0.00  0.00    -0.244 OA
ATOM     43  O4  IDY d 142      27.211  -7.507 -19.812  0.00  0.00    -0.348 OA
ATOM     44  O62 IDY d 142      29.178  -8.813 -18.827  0.00  0.00    -0.646 OA
ATOM     45  O1  IDY d 142      29.525  -9.288 -24.081  0.00  0.00    -0.363 OA
ATOM     46  OS2 IDY d 142      28.289  -4.665 -24.604  0.00  0.00    -0.572 OA
ATOM     47  C3  IDY d 142      26.567  -7.998 -22.226  0.00  0.00     0.094 C 
ATOM     48  S   IDY d 142      29.122  -5.316 -23.566  0.00  0.00     0.252 S 
ATOM     49  C7  IDY d 142      29.668 -10.122 -24.568  0.00  0.00     0.007 C 
ATOM     50  O3  IDY d 142      25.862  -8.916 -23.087  0.00  0.00    -0.390 OA
ATOM     51  H   IDY d 142      27.606  -7.484 -24.000  0.00  0.00     0.097 H 
ATOM     52  H   IDY d 142      27.686 -10.532 -21.188  0.00  0.00     0.104 H 
ATOM     53  H   IDY d 142      29.912  -8.133 -22.742  0.00  0.00     0.133 H 
ATOM     54  H   IDY d 142      25.886  -9.186 -20.669  0.00  0.00     0.092 H 
ATOM     55  H   IDY d 142      26.004  -7.113 -22.017  0.00  0.00     0.091 H 
ATOM     56  H   IDY d 142      30.171  -9.915 -25.489  0.00  0.00     0.066 H 
ATOM     57  H   IDY d 142      28.723 -10.582 -24.773  0.00  0.00     0.066 H 
ATOM     58  H   IDY d 142      30.265 -10.784 -23.976  0.00  0.00     0.066 H 
ATOM     59  H   IDY d 142      26.414  -9.698 -23.246  0.00  0.00     0.210 HD
ENDROOT
TORSDOF 18
ENDMDL
MODEL 73
REMARK VINA RESULT:      -5.2      3.616      6.998
REMARK  0 active torsions:
REMARK  status: ('A' for Active; 'I' for Inactive)
REMARK       I    between atoms: S1_1  and  N_36 
REMARK       I    between atoms: S1_1  and  O1S_20 
REMARK       I    between atoms: S1_1  and  O2S_7 
REMARK       I    between atoms: S1_1  and  O3S_31 
REMARK       I    between atoms: C1_2  and  O4_21 
REMARK       I    between atoms: O6_4  and  C6_9 
REMARK       I    between atoms: C2_5  and  O2_18 
REMARK       I    between atoms: C5_6  and  C6_15 
REMARK       I    between atoms: C1_8  and  O1_27 
REMARK       I    between atoms: C6_9  and  C5_16 
REMARK       I    between atoms: S12_12  and  O3_28 
REMARK       I    between atoms: C4_17  and  O4_21 
REMARK       I    between atoms: O2_18  and  S_33 
REMARK       I    between atoms: C3_19  and  O3_28 
REMARK       I    between atoms: C4_23  and  O4_34 
REMARK       I    between atoms: C2_26  and  N_36 
REMARK       I    between atoms: O1_27  and  C7_35 
REMARK       I    between atoms: C3_32  and  O3_37 
ROOT
ATOM      1  S1  GNX d 141      29.031  -6.858 -21.401  0.00  0.00     0.156 S 
ATOM      2  C1  GNX d 141      27.681  -4.301 -19.280  0.00  0.00     0.150 C 
ATOM      3  O32 GNX d 141      27.309  -9.361 -18.549  0.00  0.00    -0.572 OA
ATOM      4  O6  GNX d 141      27.897  -1.985 -16.187  0.00  0.00    -0.398 OA
ATOM      5  O2S GNX d 141      28.452  -7.792 -22.361  0.00  0.00    -0.296 OA
ATOM      6  C6  GNX d 141      27.402  -3.241 -15.778  0.00  0.00     0.043 C 
ATOM      7  S12 GNX d 141      27.919  -8.926 -17.288  0.00  0.00     0.252 S 
ATOM      8  C5  GNX d 141      27.218  -4.136 -16.998  0.00  0.00     0.089 C 
ATOM      9  C3  GNX d 141      27.578  -6.431 -17.953  0.00  0.00     0.107 C 
ATOM     10  O1S GNX d 141      30.105  -7.462 -20.618  0.00  0.00    -0.296 OA
ATOM     11  C4  GNX d 141      27.687  -5.557 -16.709  0.00  0.00     0.090 C 
ATOM     12  O5  GNX d 141      27.950  -3.609 -18.082  0.00  0.00    -0.349 OA
ATOM     13  O12 GNX d 141      29.146  -9.761 -17.061  0.00  0.00    -0.572 OA
ATOM     14  C2  GNX d 141      28.186  -5.734 -19.165  0.00  0.00     0.083 C 
ATOM     15  O3  GNX d 141      28.246  -7.652 -17.728  0.00  0.00    -0.247 OA
ATOM     16  O22 GNX d 141      26.961  -9.257 -16.232  0.00  0.00    -0.572 OA
ATOM     17  O3S GNX d 141      29.458  -5.616 -22.040  0.00  0.00    -0.296 OA
ATOM     18  O4  GNX d 141      26.902  -6.109 -15.676  0.00  0.00    -0.390 OA
ATOM     19  N   GNX d 141      27.869  -6.472 -20.372  0.00  0.00    -0.210 NA
ATOM     20  H   GNX d 141      28.177  -3.812 -20.093  0.00  0.00     0.131 H 
ATOM     21  H   GNX d 141      28.014  -1.415 -15.411  0.00  0.00     0.209 HD
ATOM     22  H   GNX d 141      28.182  -8.602 -21.901  0.00  0.00     0.231 HD
ATOM     23  H   GNX d 141      26.462  -3.111 -15.285  0.00  0.00     0.078 H 
ATOM     24  H   GNX d 141      28.098  -3.696 -15.103  0.00  0.00     0.078 H 
ATOM     25  H   GNX d 141      26.176  -4.167 -17.241  0.00  0.00     0.090 H 
ATOM     26  H   GNX d 141      26.542  -6.611 -18.152  0.00  0.00     0.092 H 
ATOM     27  H   GNX d 141      29.785  -8.282 -20.210  0.00  0.00     0.231 HD
ATOM     28  H   GNX d 141      28.713  -5.521 -16.409  0.00  0.00     0.091 H 
ATOM     29  H   GNX d 141      29.248  -5.706 -19.038  0.00  0.00     0.076 H 
ATOM     30  H   GNX d 141      29.837  -5.022 -21.373  0.00  0.00     0.231 HD
ATOM     31  H   GNX d 141      25.974  -6.139 -15.955  0.00  0.00     0.210 HD
ATOM     32  H   GNX d 141      27.434  -7.347 -20.077  0.00  0.00     0.140 HD
ATOM     33  C2  IDY d 142      24.830  -5.132 -22.250  0.00  0.00     0.134 C 
ATOM     34  C5  IDY d 142      24.512  -2.855 -20.306  0.00  0.00     0.152 C 
ATOM     35  C1  IDY d 142      23.507  -4.519 -21.788  0.00  0.00     0.160 C 
ATOM     36  O5  IDY d 142      23.524  -3.864 -20.517  0.00  0.00    -0.340 OA
ATOM     37  O61 IDY d 142      24.587  -1.392 -18.370  0.00  0.00    -0.646 OA
ATOM     38  OS3 IDY d 142      22.942  -7.526 -22.516  0.00  0.00    -0.572 OA
ATOM     39  OS1 IDY d 142      24.503  -8.783 -21.159  0.00  0.00    -0.572 OA
ATOM     40  C6  IDY d 142      24.493  -2.613 -18.820  0.00  0.00     0.206 C 
ATOM     41  C4  IDY d 142      25.909  -3.329 -20.726  0.00  0.00     0.103 C 
ATOM     42  O2  IDY d 142      25.086  -6.438 -21.683  0.00  0.00    -0.244 OA
ATOM     43  O4  IDY d 142      26.291  -4.311 -19.516  0.00  0.00    -0.348 OA
ATOM     44  O62 IDY d 142      24.341  -3.586 -18.026  0.00  0.00    -0.646 OA
ATOM     45  O1  IDY d 142      22.351  -4.341 -22.866  0.00  0.00    -0.363 OA
ATOM     46  OS2 IDY d 142      25.089  -8.264 -23.405  0.00  0.00    -0.572 OA
ATOM     47  C3  IDY d 142      25.974  -4.132 -22.036  0.00  0.00     0.094 C 
ATOM     48  S   IDY d 142      24.402  -7.741 -22.202  0.00  0.00     0.252 S 
ATOM     49  C7  IDY d 142      21.761  -3.725 -23.341  0.00  0.00     0.007 C 
ATOM     50  O3  IDY d 142      25.986  -3.224 -23.156  0.00  0.00    -0.390 OA
ATOM     51  H   IDY d 142      24.759  -5.321 -23.301  0.00  0.00     0.097 H 
ATOM     52  H   IDY d 142      24.301  -1.980 -20.885  0.00  0.00     0.104 H 
ATOM     53  H   IDY d 142      22.846  -5.260 -21.387  0.00  0.00     0.133 H 
ATOM     54  H   IDY d 142      26.550  -2.492 -20.906  0.00  0.00     0.092 H 
ATOM     55  H   IDY d 142      26.872  -4.708 -21.960  0.00  0.00     0.091 H 
ATOM     56  H   IDY d 142      21.139  -4.275 -24.015  0.00  0.00     0.066 H 
ATOM     57  H   IDY d 142      22.350  -3.021 -23.892  0.00  0.00     0.066 H 
ATOM     58  H   IDY d 142      21.150  -3.202 -22.636  0.00  0.00     0.066 H 
ATOM     59  H   IDY d 142      25.152  -2.729 -23.179  0.00  0.00     0.210 HD
ENDROOT
TORSDOF 18
ENDMDL
MODEL 74
REMARK VINA RESULT:      -5.2      2.440      5.647
REMARK  0 active torsions:
REMARK  status: ('A' for Active; 'I' for Inactive)
REMARK       I    between atoms: S1_1  and  N_36 
REMARK       I    between atoms: S1_1  and  O1S_20 
REMARK       I    between atoms: S1_1  and  O2S_7 
REMARK       I    between atoms: S1_1  and  O3S_31 
REMARK       I    between atoms: C1_2  and  O4_21 
REMARK       I    between atoms: O6_4  and  C6_9 
REMARK       I    between atoms: C2_5  and  O2_18 
REMARK       I    between atoms: C5_6  and  C6_15 
REMARK       I    between atoms: C1_8  and  O1_27 
REMARK       I    between atoms: C6_9  and  C5_16 
REMARK       I    between atoms: S12_12  and  O3_28 
REMARK       I    between atoms: C4_17  and  O4_21 
REMARK       I    between atoms: O2_18  and  S_33 
REMARK       I    between atoms: C3_19  and  O3_28 
REMARK       I    between atoms: C4_23  and  O4_34 
REMARK       I    between atoms: C2_26  and  N_36 
REMARK       I    between atoms: O1_27  and  C7_35 
REMARK       I    between atoms: C3_32  and  O3_37 
ROOT
ATOM      1  S1  GNX d 141      30.266  -6.322 -24.343  0.00  0.00     0.156 S 
ATOM      2  C1  GNX d 141      27.629  -5.418 -22.087  0.00  0.00     0.150 C 
ATOM      3  O32 GNX d 141      29.279 -10.168 -23.079  0.00  0.00    -0.572 OA
ATOM      4  O6  GNX d 141      26.323  -4.605 -18.536  0.00  0.00    -0.398 OA
ATOM      5  O2S GNX d 141      30.303  -6.924 -25.672  0.00  0.00    -0.296 OA
ATOM      6  C6  GNX d 141      26.334  -6.006 -18.704  0.00  0.00     0.043 C 
ATOM      7  S12 GNX d 141      29.424 -10.106 -21.621  0.00  0.00     0.252 S 
ATOM      8  C5  GNX d 141      26.753  -6.342 -20.130  0.00  0.00     0.089 C 
ATOM      9  C3  GNX d 141      28.195  -7.810 -21.571  0.00  0.00     0.107 C 
ATOM     10  O1S GNX d 141      31.341  -6.809 -23.483  0.00  0.00    -0.296 OA
ATOM     11  C4  GNX d 141      27.713  -7.525 -20.153  0.00  0.00     0.090 C 
ATOM     12  O5  GNX d 141      27.374  -5.219 -20.715  0.00  0.00    -0.349 OA
ATOM     13  O12 GNX d 141      30.828 -10.517 -21.282  0.00  0.00    -0.572 OA
ATOM     14  C2  GNX d 141      28.657  -6.530 -22.258  0.00  0.00     0.083 C 
ATOM     15  O3  GNX d 141      29.261  -8.732 -21.528  0.00  0.00    -0.247 OA
ATOM     16  O22 GNX d 141      28.525 -11.123 -21.073  0.00  0.00    -0.572 OA
ATOM     17  O3S GNX d 141      30.240  -4.863 -24.407  0.00  0.00    -0.296 OA
ATOM     18  O4  GNX d 141      27.065  -8.667 -19.639  0.00  0.00    -0.390 OA
ATOM     19  N   GNX d 141      28.890  -6.780 -23.667  0.00  0.00    -0.210 NA
ATOM     20  H   GNX d 141      28.008  -4.512 -22.513  0.00  0.00     0.131 H 
ATOM     21  H   GNX d 141      26.057  -4.391 -17.628  0.00  0.00     0.209 HD
ATOM     22  H   GNX d 141      30.320  -7.890 -25.589  0.00  0.00     0.231 HD
ATOM     23  H   GNX d 141      25.356  -6.396 -18.518  0.00  0.00     0.078 H 
ATOM     24  H   GNX d 141      27.028  -6.442 -18.016  0.00  0.00     0.078 H 
ATOM     25  H   GNX d 141      25.879  -6.607 -20.687  0.00  0.00     0.090 H 
ATOM     26  H   GNX d 141      27.380  -8.219 -22.131  0.00  0.00     0.092 H 
ATOM     27  H   GNX d 141      31.327  -7.779 -23.465  0.00  0.00     0.231 HD
ATOM     28  H   GNX d 141      28.563  -7.284 -19.549  0.00  0.00     0.091 H 
ATOM     29  H   GNX d 141      29.572  -6.214 -21.801  0.00  0.00     0.076 H 
ATOM     30  H   GNX d 141      30.215  -4.501 -23.508  0.00  0.00     0.231 HD
ATOM     31  H   GNX d 141      26.297  -8.879 -20.191  0.00  0.00     0.210 HD
ATOM     32  H   GNX d 141      28.815  -7.788 -23.804  0.00  0.00     0.140 HD
ATOM     33  C2  IDY d 142      25.944  -5.856 -25.909  0.00  0.00     0.134 C 
ATOM     34  C5  IDY d 142      24.376  -4.788 -23.571  0.00  0.00     0.152 C 
ATOM     35  C1  IDY d 142      24.427  -5.943 -25.724  0.00  0.00     0.160 C 
ATOM     36  O5  IDY d 142      23.951  -5.886 -24.377  0.00  0.00    -0.340 OA
ATOM     37  O61 IDY d 142      23.498  -4.287 -21.362  0.00  0.00    -0.646 OA
ATOM     38  OS3 IDY d 142      25.301  -8.410 -27.467  0.00  0.00    -0.572 OA
ATOM     39  OS1 IDY d 142      26.984  -9.529 -26.136  0.00  0.00    -0.572 OA
ATOM     40  C6  IDY d 142      24.001  -5.183 -22.167  0.00  0.00     0.206 C 
ATOM     41  C4  IDY d 142      25.892  -4.575 -23.652  0.00  0.00     0.103 C 
ATOM     42  O2  IDY d 142      26.618  -7.121 -25.713  0.00  0.00    -0.244 OA
ATOM     43  O4  IDY d 142      26.433  -5.780 -22.740  0.00  0.00    -0.348 OA
ATOM     44  O62 IDY d 142      24.134  -6.385 -21.796  0.00  0.00    -0.646 OA
ATOM     45  O1  IDY d 142      23.508  -5.730 -27.005  0.00  0.00    -0.363 OA
ATOM     46  OS2 IDY d 142      27.679  -7.993 -27.814  0.00  0.00    -0.572 OA
ATOM     47  C3  IDY d 142      26.511  -4.717 -25.052  0.00  0.00     0.094 C 
ATOM     48  S   IDY d 142      26.640  -8.250 -26.790  0.00  0.00     0.252 S 
ATOM     49  C7  IDY d 142      22.807  -5.201 -27.431  0.00  0.00     0.007 C 
ATOM     50  O3  IDY d 142      26.337  -3.484 -25.782  0.00  0.00    -0.390 OA
ATOM     51  H   IDY d 142      26.140  -5.619 -26.933  0.00  0.00     0.097 H 
ATOM     52  H   IDY d 142      23.923  -3.873 -23.893  0.00  0.00     0.104 H 
ATOM     53  H   IDY d 142      24.077  -6.952 -25.796  0.00  0.00     0.133 H 
ATOM     54  H   IDY d 142      26.147  -3.579 -23.358  0.00  0.00     0.092 H 
ATOM     55  H   IDY d 142      27.539  -4.951 -24.876  0.00  0.00     0.091 H 
ATOM     56  H   IDY d 142      22.596  -5.602 -28.400  0.00  0.00     0.066 H 
ATOM     57  H   IDY d 142      23.134  -4.186 -27.528  0.00  0.00     0.066 H 
ATOM     58  H   IDY d 142      21.921  -5.233 -26.831  0.00  0.00     0.066 H 
ATOM     59  H   IDY d 142      25.390  -3.319 -25.915  0.00  0.00     0.210 HD
ENDROOT
TORSDOF 18
ENDMDL
MODEL 75
REMARK VINA RESULT:      -5.2      5.283      8.103
REMARK  0 active torsions:
REMARK  status: ('A' for Active; 'I' for Inactive)
REMARK       I    between atoms: S1_1  and  N_36 
REMARK       I    between atoms: S1_1  and  O1S_20 
REMARK       I    between atoms: S1_1  and  O2S_7 
REMARK       I    between atoms: S1_1  and  O3S_31 
REMARK       I    between atoms: C1_2  and  O4_21 
REMARK       I    between atoms: O6_4  and  C6_9 
REMARK       I    between atoms: C2_5  and  O2_18 
REMARK       I    between atoms: C5_6  and  C6_15 
REMARK       I    between atoms: C1_8  and  O1_27 
REMARK       I    between atoms: C6_9  and  C5_16 
REMARK       I    between atoms: S12_12  and  O3_28 
REMARK       I    between atoms: C4_17  and  O4_21 
REMARK       I    between atoms: O2_18  and  S_33 
REMARK       I    between atoms: C3_19  and  O3_28 
REMARK       I    between atoms: C4_23  and  O4_34 
REMARK       I    between atoms: C2_26  and  N_36 
REMARK       I    between atoms: O1_27  and  C7_35 
REMARK       I    between atoms: C3_32  and  O3_37 
ROOT
ATOM      1  S1  GNX d 141      27.660  -9.996 -20.181  0.00  0.00     0.156 S 
ATOM      2  C1  GNX d 141      27.381  -6.526 -19.319  0.00  0.00     0.150 C 
ATOM      3  O32 GNX d 141      31.582  -8.893 -21.056  0.00  0.00    -0.572 OA
ATOM      4  O6  GNX d 141      26.802  -2.822 -20.276  0.00  0.00    -0.398 OA
ATOM      5  O2S GNX d 141      28.280 -11.154 -19.545  0.00  0.00    -0.296 OA
ATOM      6  C6  GNX d 141      28.158  -3.140 -20.500  0.00  0.00     0.043 C 
ATOM      7  S12 GNX d 141      31.432  -7.809 -22.032  0.00  0.00     0.252 S 
ATOM      8  C5  GNX d 141      28.427  -4.566 -20.036  0.00  0.00     0.089 C 
ATOM      9  C3  GNX d 141      29.527  -6.752 -20.603  0.00  0.00     0.107 C 
ATOM     10  O1S GNX d 141      27.824 -10.007 -21.632  0.00  0.00    -0.296 OA
ATOM     11  C4  GNX d 141      29.324  -5.301 -21.025  0.00  0.00     0.090 C 
ATOM     12  O5  GNX d 141      27.205  -5.257 -19.906  0.00  0.00    -0.349 OA
ATOM     13  O12 GNX d 141      31.456  -8.420 -23.404  0.00  0.00    -0.572 OA
ATOM     14  C2  GNX d 141      28.197  -7.411 -20.254  0.00  0.00     0.083 C 
ATOM     15  O3  GNX d 141      30.143  -7.465 -21.653  0.00  0.00    -0.247 OA
ATOM     16  O22 GNX d 141      32.625  -6.970 -21.904  0.00  0.00    -0.572 OA
ATOM     17  O3S GNX d 141      26.260  -9.847 -19.793  0.00  0.00    -0.296 OA
ATOM     18  O4  GNX d 141      30.575  -4.653 -21.096  0.00  0.00    -0.390 OA
ATOM     19  N   GNX d 141      28.430  -8.703 -19.639  0.00  0.00    -0.210 NA
ATOM     20  H   GNX d 141      26.425  -6.975 -19.148  0.00  0.00     0.131 H 
ATOM     21  H   GNX d 141      26.630  -1.914 -20.571  0.00  0.00     0.209 HD
ATOM     22  H   GNX d 141      29.206 -11.220 -19.826  0.00  0.00     0.231 HD
ATOM     23  H   GNX d 141      28.779  -2.463 -19.951  0.00  0.00     0.078 H 
ATOM     24  H   GNX d 141      28.377  -3.056 -21.544  0.00  0.00     0.078 H 
ATOM     25  H   GNX d 141      28.928  -4.527 -19.092  0.00  0.00     0.090 H 
ATOM     26  H   GNX d 141      30.152  -6.769 -19.734  0.00  0.00     0.092 H 
ATOM     27  H   GNX d 141      28.763 -10.107 -21.851  0.00  0.00     0.231 HD
ATOM     28  H   GNX d 141      28.852  -5.291 -21.985  0.00  0.00     0.091 H 
ATOM     29  H   GNX d 141      27.641  -7.546 -21.158  0.00  0.00     0.076 H 
ATOM     30  H   GNX d 141      25.883  -9.069 -20.234  0.00  0.00     0.231 HD
ATOM     31  H   GNX d 141      30.997  -4.668 -20.223  0.00  0.00     0.210 HD
ATOM     32  H   GNX d 141      29.428  -8.895 -19.727  0.00  0.00     0.140 HD
ATOM     33  C2  IDY d 142      28.375  -8.634 -15.825  0.00  0.00     0.134 C 
ATOM     34  C5  IDY d 142      27.660  -5.709 -15.793  0.00  0.00     0.152 C 
ATOM     35  C1  IDY d 142      28.841  -7.602 -14.795  0.00  0.00     0.160 C 
ATOM     36  O5  IDY d 142      28.859  -6.240 -15.229  0.00  0.00    -0.340 OA
ATOM     37  O61 IDY d 142      27.322  -3.367 -16.339  0.00  0.00    -0.646 OA
ATOM     38  OS3 IDY d 142      31.063  -9.821 -14.970  0.00  0.00    -0.572 OA
ATOM     39  OS1 IDY d 142      31.664  -9.894 -17.314  0.00  0.00    -0.572 OA
ATOM     40  C6  IDY d 142      28.087  -4.419 -16.441  0.00  0.00     0.206 C 
ATOM     41  C4  IDY d 142      27.069  -6.642 -16.856  0.00  0.00     0.103 C 
ATOM     42  O2  IDY d 142      29.417  -9.036 -16.744  0.00  0.00    -0.244 OA
ATOM     43  O4  IDY d 142      28.061  -6.387 -18.092  0.00  0.00    -0.348 OA
ATOM     44  O62 IDY d 142      29.201  -4.354 -17.038  0.00  0.00    -0.646 OA
ATOM     45  O1  IDY d 142      28.917  -8.053 -13.271  0.00  0.00    -0.363 OA
ATOM     46  OS2 IDY d 142      30.063 -11.448 -16.487  0.00  0.00    -0.572 OA
ATOM     47  C3  IDY d 142      27.098  -8.141 -16.517  0.00  0.00     0.094 C 
ATOM     48  S   IDY d 142      30.540 -10.051 -16.367  0.00  0.00     0.252 S 
ATOM     49  C7  IDY d 142      28.602  -7.912 -12.358  0.00  0.00     0.007 C 
ATOM     50  O3  IDY d 142      25.979  -8.463 -15.667  0.00  0.00    -0.390 OA
ATOM     51  H   IDY d 142      28.133  -9.536 -15.304  0.00  0.00     0.097 H 
ATOM     52  H   IDY d 142      26.905  -5.582 -15.045  0.00  0.00     0.104 H 
ATOM     53  H   IDY d 142      29.908  -7.581 -14.711  0.00  0.00     0.133 H 
ATOM     54  H   IDY d 142      26.031  -6.431 -17.003  0.00  0.00     0.092 H 
ATOM     55  H   IDY d 142      27.054  -8.637 -17.464  0.00  0.00     0.091 H 
ATOM     56  H   IDY d 142      29.079  -8.611 -11.704  0.00  0.00     0.066 H 
ATOM     57  H   IDY d 142      27.541  -8.054 -12.321  0.00  0.00     0.066 H 
ATOM     58  H   IDY d 142      28.838  -6.915 -12.049  0.00  0.00     0.066 H 
ATOM     59  H   IDY d 142      26.066  -7.990 -14.825  0.00  0.00     0.210 HD
ENDROOT
TORSDOF 18
ENDMDL
MODEL 76
REMARK VINA RESULT:      -5.1      3.174      6.227
REMARK  0 active torsions:
REMARK  status: ('A' for Active; 'I' for Inactive)
REMARK       I    between atoms: S1_1  and  N_36 
REMARK       I    between atoms: S1_1  and  O1S_20 
REMARK       I    between atoms: S1_1  and  O2S_7 
REMARK       I    between atoms: S1_1  and  O3S_31 
REMARK       I    between atoms: C1_2  and  O4_21 
REMARK       I    between atoms: O6_4  and  C6_9 
REMARK       I    between atoms: C2_5  and  O2_18 
REMARK       I    between atoms: C5_6  and  C6_15 
REMARK       I    between atoms: C1_8  and  O1_27 
REMARK       I    between atoms: C6_9  and  C5_16 
REMARK       I    between atoms: S12_12  and  O3_28 
REMARK       I    between atoms: C4_17  and  O4_21 
REMARK       I    between atoms: O2_18  and  S_33 
REMARK       I    between atoms: C3_19  and  O3_28 
REMARK       I    between atoms: C4_23  and  O4_34 
REMARK       I    between atoms: C2_26  and  N_36 
REMARK       I    between atoms: O1_27  and  C7_35 
REMARK       I    between atoms: C3_32  and  O3_37 
ROOT
ATOM      1  S1  GNX d 141      30.213  -9.656 -23.709  0.00  0.00     0.156 S 
ATOM      2  C1  GNX d 141      30.213  -6.355 -22.308  0.00  0.00     0.150 C 
ATOM      3  O32 GNX d 141      27.466 -10.353 -20.654  0.00  0.00    -0.572 OA
ATOM      4  O6  GNX d 141      31.463  -3.759 -19.724  0.00  0.00    -0.398 OA
ATOM      5  O2S GNX d 141      29.271 -10.410 -24.531  0.00  0.00    -0.296 OA
ATOM      6  C6  GNX d 141      30.424  -4.514 -19.140  0.00  0.00     0.043 C 
ATOM      7  S12 GNX d 141      28.191  -9.972 -19.437  0.00  0.00     0.252 S 
ATOM      8  C5  GNX d 141      29.853  -5.476 -20.175  0.00  0.00     0.089 C 
ATOM      9  C3  GNX d 141      29.089  -7.828 -20.613  0.00  0.00     0.107 C 
ATOM     10  O1S GNX d 141      30.857 -10.489 -22.698  0.00  0.00    -0.296 OA
ATOM     11  C4  GNX d 141      29.584  -6.844 -19.560  0.00  0.00     0.090 C 
ATOM     12  O5  GNX d 141      30.763  -5.611 -21.244  0.00  0.00    -0.349 OA
ATOM     13  O12 GNX d 141      28.869 -11.201 -18.904  0.00  0.00    -0.572 OA
ATOM     14  C2  GNX d 141      29.973  -7.790 -21.855  0.00  0.00     0.083 C 
ATOM     15  O3  GNX d 141      29.091  -9.132 -20.075  0.00  0.00    -0.247 OA
ATOM     16  O22 GNX d 141      27.176  -9.572 -18.461  0.00  0.00    -0.572 OA
ATOM     17  O3S GNX d 141      31.189  -8.935 -24.522  0.00  0.00    -0.296 OA
ATOM     18  O4  GNX d 141      28.616  -6.719 -18.542  0.00  0.00    -0.390 OA
ATOM     19  N   GNX d 141      29.360  -8.553 -22.924  0.00  0.00    -0.210 NA
ATOM     20  H   GNX d 141      30.894  -6.351 -23.134  0.00  0.00     0.131 H 
ATOM     21  H   GNX d 141      31.827  -3.147 -19.065  0.00  0.00     0.209 HD
ATOM     22  H   GNX d 141      28.642 -10.874 -23.958  0.00  0.00     0.231 HD
ATOM     23  H   GNX d 141      29.652  -3.856 -18.801  0.00  0.00     0.078 H 
ATOM     24  H   GNX d 141      30.809  -5.070 -18.311  0.00  0.00     0.078 H 
ATOM     25  H   GNX d 141      28.926  -5.078 -20.532  0.00  0.00     0.090 H 
ATOM     26  H   GNX d 141      28.095  -7.551 -20.897  0.00  0.00     0.092 H 
ATOM     27  H   GNX d 141      30.180 -10.951 -22.180  0.00  0.00     0.231 HD
ATOM     28  H   GNX d 141      30.499  -7.217 -19.150  0.00  0.00     0.091 H 
ATOM     29  H   GNX d 141      30.919  -8.226 -21.608  0.00  0.00     0.076 H 
ATOM     30  H   GNX d 141      31.795  -8.447 -23.942  0.00  0.00     0.231 HD
ATOM     31  H   GNX d 141      27.790  -6.380 -18.921  0.00  0.00     0.210 HD
ATOM     32  H   GNX d 141      28.557  -9.035 -22.519  0.00  0.00     0.140 HD
ATOM     33  C2  IDY d 142      27.354  -6.435 -25.383  0.00  0.00     0.134 C 
ATOM     34  C5  IDY d 142      28.132  -3.891 -23.974  0.00  0.00     0.152 C 
ATOM     35  C1  IDY d 142      26.476  -5.193 -25.213  0.00  0.00     0.160 C 
ATOM     36  O5  IDY d 142      26.786  -4.348 -24.102  0.00  0.00    -0.340 OA
ATOM     37  O61 IDY d 142      28.867  -2.226 -22.366  0.00  0.00    -0.646 OA
ATOM     38  OS3 IDY d 142      24.558  -7.678 -25.403  0.00  0.00    -0.572 OA
ATOM     39  OS1 IDY d 142      25.312  -9.163 -23.647  0.00  0.00    -0.572 OA
ATOM     40  C6  IDY d 142      28.209  -3.333 -22.577  0.00  0.00     0.206 C 
ATOM     41  C4  IDY d 142      29.139  -5.037 -24.120  0.00  0.00     0.103 C 
ATOM     42  O2  IDY d 142      26.948  -7.542 -24.544  0.00  0.00    -0.244 OA
ATOM     43  O4  IDY d 142      28.990  -5.776 -22.704  0.00  0.00    -0.348 OA
ATOM     44  O62 IDY d 142      27.600  -3.915 -21.633  0.00  0.00    -0.646 OA
ATOM     45  O1  IDY d 142      25.560  -4.755 -26.438  0.00  0.00    -0.363 OA
ATOM     46  OS2 IDY d 142      26.106  -9.504 -25.864  0.00  0.00    -0.572 OA
ATOM     47  C3  IDY d 142      28.832  -6.056 -25.230  0.00  0.00     0.094 C 
ATOM     48  S   IDY d 142      25.734  -8.463 -24.878  0.00  0.00     0.252 S 
ATOM     49  C7  IDY d 142      25.342  -4.064 -27.092  0.00  0.00     0.007 C 
ATOM     50  O3  IDY d 142      29.291  -5.540 -26.497  0.00  0.00    -0.390 OA
ATOM     51  H   IDY d 142      27.216  -6.805 -26.377  0.00  0.00     0.097 H 
ATOM     52  H   IDY d 142      28.371  -3.176 -24.734  0.00  0.00     0.104 H 
ATOM     53  H   IDY d 142      25.537  -5.432 -24.758  0.00  0.00     0.133 H 
ATOM     54  H   IDY d 142      30.104  -4.656 -24.381  0.00  0.00     0.092 H 
ATOM     55  H   IDY d 142      29.346  -6.946 -24.935  0.00  0.00     0.091 H 
ATOM     56  H   IDY d 142      24.542  -4.403 -27.716  0.00  0.00     0.066 H 
ATOM     57  H   IDY d 142      26.203  -3.859 -27.694  0.00  0.00     0.066 H 
ATOM     58  H   IDY d 142      25.044  -3.172 -26.582  0.00  0.00     0.066 H 
ATOM     59  H   IDY d 142      28.795  -4.736 -26.717  0.00  0.00     0.210 HD
ENDROOT
TORSDOF 18
ENDMDL
