MODEL 1
REMARK VINA RESULT:      -9.6      0.000      0.000
REMARK  0 active torsions:
REMARK  status: ('A' for Active; 'I' for Inactive)
REMARK       I    between atoms: C6_2  and  C5_55 
REMARK       I    between atoms: O4_3  and  C4_83 
REMARK       I    between atoms: O4_3  and  S_75 
REMARK       I    between atoms: C6_4  and  C5_67 
REMARK       I    between atoms: O4_5  and  C4_61 
REMARK       I    between atoms: O4_5  and  S_71 
REMARK       I    between atoms: O3_6  and  C3_32 
REMARK       I    between atoms: C1_8  and  O1_30 
REMARK       I    between atoms: C3_12  and  O3_62 
REMARK       I    between atoms: C5_13  and  C6_25 
REMARK       I    between atoms: O1_14  and  C4_39 
REMARK       I    between atoms: O1_14  and  C1_23 
REMARK       I    between atoms: C5_15  and  C6_27 
REMARK       I    between atoms: C5_18  and  C6_44 
REMARK       I    between atoms: C3_19  and  O1_82 
REMARK       I    between atoms: C2_20  and  N_89 
REMARK       I    between atoms: C2_21  and  O2_80 
REMARK       I    between atoms: C1_24  and  O1_45 
REMARK       I    between atoms: C6_25  and  O6_48 
REMARK       I    between atoms: C6_27  and  O6_77 
REMARK       I    between atoms: C7_28  and  C8_35 
REMARK       I    between atoms: C7_28  and  N_70 
REMARK       I    between atoms: O1_30  and  C3_43 
REMARK       I    between atoms: C4_33  and  O4_53 
REMARK       I    between atoms: S_34  and  O4_53 
REMARK       I    between atoms: O2_40  and  C2_87 
REMARK       I    between atoms: C7_41  and  C8_81 
REMARK       I    between atoms: C7_41  and  N_89 
REMARK       I    between atoms: O6_42  and  C6_88 
REMARK       I    between atoms: O1_45  and  C4_90 
REMARK       I    between atoms: C7_46  and  C8_69 
REMARK       I    between atoms: C7_46  and  N_85 
REMARK       I    between atoms: C2_47  and  N_85 
REMARK       I    between atoms: O1_50  and  C4_73 
REMARK       I    between atoms: O1_50  and  C1_76 
REMARK       I    between atoms: C1_52  and  O1_82 
REMARK       I    between atoms: C3_54  and  O3_72 
REMARK       I    between atoms: C5_57  and  C6_88 
REMARK       I    between atoms: O1_59  and  C1_78 
REMARK       I    between atoms: O2_63  and  C2_68 
REMARK       I    between atoms: N_70  and  C2_74 
ROOT
ATOM      1  O6B BDP d 216      28.388  -9.020  97.473  0.00  0.00    -0.646 OA
ATOM      2  C6  BDP d 216      28.849  -9.416  98.565  0.00  0.00     0.206 C 
ATOM      3  C3  BDP d 216      25.810  -8.918 100.908  0.00  0.00     0.092 C 
ATOM      4  O6A BDP d 216      29.898 -10.086  98.674  0.00  0.00    -0.646 OA
ATOM      5  O5  BDP d 216      28.241  -7.671 100.089  0.00  0.00    -0.340 OA
ATOM      6  C4  BDP d 216      26.614  -9.429  99.713  0.00  0.00     0.103 C 
ATOM      7  O2  BDP d 216      25.544  -7.064 102.418  0.00  0.00    -0.388 OA
ATOM      8  C5  BDP d 216      28.092  -9.056  99.840  0.00  0.00     0.152 C 
ATOM      9  O1  BDP d 216      27.958  -5.930 101.601  0.00  0.00    -0.368 OA
ATOM     10  O3  BDP d 216      24.429  -9.044 100.641  0.00  0.00    -0.390 OA
ATOM     11  C1  BDP d 216      27.656  -7.280 101.312  0.00  0.00     0.156 C 
ATOM     12  C2  BDP d 216      26.147  -7.459 101.207  0.00  0.00     0.110 C 
ATOM     13  H   BDP d 216      26.066  -9.506 101.764  0.00  0.00     0.091 H 
ATOM     14  H   BDP d 216      26.263  -8.971  98.812  0.00  0.00     0.092 H 
ATOM     15  H   BDP d 216      24.583  -7.177 102.352  0.00  0.00     0.210 HD
ATOM     16  H   BDP d 216      28.496  -9.609 100.663  0.00  0.00     0.104 H 
ATOM     17  H   BDP d 216      28.920  -5.821 101.668  0.00  0.00     0.212 HD
ATOM     18  H   BDP d 216      24.200  -8.510  99.864  0.00  0.00     0.210 HD
ATOM     19  H   BDP d 216      28.047  -7.887 102.103  0.00  0.00     0.133 H 
ATOM     20  H   BDP d 216      25.774  -6.852 100.409  0.00  0.00     0.094 H 
ATOM     21  O4  ASG d 217      23.275 -13.441  97.883  0.00  0.00    -0.246 OA
ATOM     22  O7  ASG d 217      27.115 -14.360 100.104  0.00  0.00    -0.274 OA
ATOM     23  O1  ASG d 217      26.442 -10.800  99.641  0.00  0.00    -0.348 OA
ATOM     24  C5  ASG d 217      23.781 -11.205  97.009  0.00  0.00     0.090 C 
ATOM     25  C1  ASG d 217      25.829 -11.213  98.430  0.00  0.00     0.154 C 
ATOM     26  C6  ASG d 217      22.329 -10.633  96.820  0.00  0.00     0.043 C 
ATOM     27  OSA ASG d 217      22.361 -15.129  96.217  0.00  0.00    -0.572 OA
ATOM     28  C3  ASG d 217      25.412 -13.068  96.747  0.00  0.00     0.094 C 
ATOM     29  C7  ASG d 217      27.917 -13.921  99.355  0.00  0.00     0.214 C 
ATOM     30  C2  ASG d 217      26.082 -12.712  98.068  0.00  0.00     0.087 C 
ATOM     31  O5  ASG d 217      24.375 -10.873  98.323  0.00  0.00    -0.349 OA
ATOM     32  OSB ASG d 217      20.810 -13.890  97.571  0.00  0.00    -0.572 OA
ATOM     33  OSC ASG d 217      22.187 -15.606  98.536  0.00  0.00    -0.572 OA
ATOM     34  C8  ASG d 217      29.383 -14.379  99.458  0.00  0.00    -0.003 C 
ATOM     35  S   ASG d 217      22.110 -14.549  97.536  0.00  0.00     0.252 S 
ATOM     36  O6  ASG d 217      22.188  -9.329  96.272  0.00  0.00    -0.398 OA
ATOM     37  C4  ASG d 217      23.922 -12.747  96.829  0.00  0.00     0.114 C 
ATOM     38  N   ASG d 217      27.490 -13.118  98.213  0.00  0.00    -0.349 N 
ATOM     39  H   ASG d 217      24.307 -10.717  96.215  0.00  0.00     0.090 H 
ATOM     40  H   ASG d 217      26.335 -10.623  97.693  0.00  0.00     0.132 H 
ATOM     41  H   ASG d 217      21.862 -10.625  97.783  0.00  0.00     0.078 H 
ATOM     42  H   ASG d 217      21.883 -11.276  96.090  0.00  0.00     0.078 H 
ATOM     43  H   ASG d 217      25.936 -12.557  95.967  0.00  0.00     0.091 H 
ATOM     44  H   ASG d 217      25.599 -13.326  98.800  0.00  0.00     0.084 H 
ATOM     45  H   ASG d 217      29.515 -14.952 100.351  0.00  0.00     0.040 H 
ATOM     46  H   ASG d 217      30.023 -13.522  99.486  0.00  0.00     0.040 H 
ATOM     47  H   ASG d 217      29.629 -14.981  98.608  0.00  0.00     0.040 H 
ATOM     48  H   ASG d 217      22.573  -8.679  96.882  0.00  0.00     0.209 HD
ATOM     49  H   ASG d 217      23.441 -13.071  95.929  0.00  0.00     0.093 H 
ATOM     50  H   ASG d 217      28.149 -12.845  97.535  0.00  0.00     0.163 HD
ATOM     51  C6  BDP d 218      26.383 -14.771  92.004  0.00  0.00     0.206 C 
ATOM     52  O3  BDP d 218      27.490 -18.446  95.069  0.00  0.00    -0.390 OA
ATOM     53  C1  BDP d 218      26.298 -14.977  95.704  0.00  0.00     0.160 C 
ATOM     54  C2  BDP d 218      26.435 -16.485  95.899  0.00  0.00     0.110 C 
ATOM     55  O6A BDP d 218      27.113 -13.975  91.371  0.00  0.00    -0.646 OA
ATOM     56  O1  BDP d 218      25.371 -14.455  96.638  0.00  0.00    -0.348 OA
ATOM     57  C3  BDP d 218      27.436 -17.050  94.908  0.00  0.00     0.092 C 
ATOM     58  O5  BDP d 218      25.860 -14.754  94.378  0.00  0.00    -0.340 OA
ATOM     59  C5  BDP d 218      26.811 -15.175  93.414  0.00  0.00     0.152 C 
ATOM     60  C4  BDP d 218      27.007 -16.687  93.490  0.00  0.00     0.103 C 
ATOM     61  O2  BDP d 218      26.857 -16.787  97.211  0.00  0.00    -0.388 OA
ATOM     62  O6B BDP d 218      25.334 -15.267  91.539  0.00  0.00    -0.646 OA
ATOM     63  H   BDP d 218      27.764 -18.656  95.976  0.00  0.00     0.210 HD
ATOM     64  H   BDP d 218      27.234 -14.485  95.865  0.00  0.00     0.133 H 
ATOM     65  H   BDP d 218      25.475 -16.928  95.735  0.00  0.00     0.094 H 
ATOM     66  H   BDP d 218      28.408 -16.638  95.083  0.00  0.00     0.091 H 
ATOM     67  H   BDP d 218      27.740 -14.692  93.632  0.00  0.00     0.104 H 
ATOM     68  H   BDP d 218      26.161 -17.293  93.243  0.00  0.00     0.092 H 
ATOM     69  H   BDP d 218      27.727 -16.390  97.371  0.00  0.00     0.210 HD
ATOM     70  O4  ASG d 221      29.440 -13.616  79.861  0.00  0.00    -0.249 OA
ATOM     71  OSB ASG d 221      29.267 -11.073  79.896  0.00  0.00    -0.572 OA
ATOM     72  OSC ASG d 221      31.155 -12.047  78.802  0.00  0.00    -0.572 OA
ATOM     73  C2  ASG d 221      28.588 -16.028  80.936  0.00  0.00     0.062 C 
ATOM     74  C1  ASG d 221      29.676 -16.053  82.063  0.00  0.00     0.151 C 
ATOM     75  C3  ASG d 221      29.222 -16.008  79.561  0.00  0.00    -0.014 C 
ATOM     76  O7  ASG d 221      26.584 -16.741  78.996  0.00  0.00    -0.274 OA
ATOM     77  C7  ASG d 221      26.700 -17.446  79.939  0.00  0.00     0.214 C 
ATOM     78  O6  ASG d 221      33.733 -14.607  80.992  0.00  0.00    -0.398 OA
ATOM     79  O1  ASG d 221      29.156 -15.864  83.376  0.00  0.00    -0.348 OA
ATOM     80  C5  ASG d 221      31.318 -15.204  80.346  0.00  0.00     0.088 C 
ATOM     81  C4  ASG d 221      30.114 -14.796  79.455  0.00  0.00     0.089 C 
ATOM     82  OSA ASG d 221      30.984 -12.080  81.186  0.00  0.00    -0.572 OA
ATOM     83  S   ASG d 221      30.235 -12.166  79.934  0.00  0.00     0.252 S 
ATOM     84  O5  ASG d 221      30.847 -15.166  81.748  0.00  0.00    -0.349 OA
ATOM     85  C8  ASG d 221      25.788 -18.677  80.076  0.00  0.00    -0.003 C 
ATOM     86  C6  ASG d 221      32.685 -14.489  80.041  0.00  0.00     0.043 C 
ATOM     87  N   ASG d 221      27.534 -17.049  81.073  0.00  0.00    -0.352 N 
ATOM     88  H   ASG d 221      28.059 -15.106  81.061  0.00  0.00     0.080 H 
ATOM     89  H   ASG d 221      30.055 -17.054  82.075  0.00  0.00     0.132 H 
ATOM     90  H   ASG d 221      28.458 -15.958  78.813  0.00  0.00     0.040 H 
ATOM     91  H   ASG d 221      29.798 -16.898  79.414  0.00  0.00     0.040 H 
ATOM     92  H   ASG d 221      34.511 -14.120  80.678  0.00  0.00     0.209 HD
ATOM     93  H   ASG d 221      31.621 -16.202  80.104  0.00  0.00     0.090 H 
ATOM     94  H   ASG d 221      30.424 -14.547  78.463  0.00  0.00     0.089 H 
ATOM     95  H   ASG d 221      25.251 -18.826  79.163  0.00  0.00     0.040 H 
ATOM     96  H   ASG d 221      25.095 -18.520  80.876  0.00  0.00     0.040 H 
ATOM     97  H   ASG d 221      26.383 -19.540  80.286  0.00  0.00     0.040 H 
ATOM     98  H   ASG d 221      33.051 -14.884  79.117  0.00  0.00     0.078 H 
ATOM     99  H   ASG d 221      32.443 -13.447  80.042  0.00  0.00     0.078 H 
ATOM    100  H   ASG d 221      27.388 -17.475  81.948  0.00  0.00     0.163 HD
ATOM    101  O5  BDP d 220      28.766 -18.068  86.110  0.00  0.00    -0.340 OA
ATOM    102  C5  BDP d 220      28.404 -17.223  85.036  0.00  0.00     0.152 C 
ATOM    103  C6  BDP d 220      27.439 -17.941  84.096  0.00  0.00     0.206 C 
ATOM    104  C1  BDP d 220      29.388 -17.341  87.147  0.00  0.00     0.160 C 
ATOM    105  C3  BDP d 220      30.538 -15.992  85.300  0.00  0.00     0.092 C 
ATOM    106  O2  BDP d 220      31.264 -15.930  87.602  0.00  0.00    -0.388 OA
ATOM    107  O6B BDP d 220      27.801 -19.032  83.594  0.00  0.00    -0.646 OA
ATOM    108  C2  BDP d 220      30.698 -16.764  86.616  0.00  0.00     0.110 C 
ATOM    109  O3  BDP d 220      31.812 -15.767  84.724  0.00  0.00    -0.390 OA
ATOM    110  O1  BDP d 220      29.669 -18.188  88.252  0.00  0.00    -0.348 OA
ATOM    111  O6A BDP d 220      26.331 -17.396  83.873  0.00  0.00    -0.646 OA
ATOM    112  C4  BDP d 220      29.662 -16.759  84.308  0.00  0.00     0.103 C 
ATOM    113  H   BDP d 220      27.897 -16.360  85.413  0.00  0.00     0.104 H 
ATOM    114  H   BDP d 220      28.734 -16.559  87.472  0.00  0.00     0.133 H 
ATOM    115  H   BDP d 220      30.062 -15.059  85.517  0.00  0.00     0.091 H 
ATOM    116  H   BDP d 220      31.360 -16.427  88.429  0.00  0.00     0.210 HD
ATOM    117  H   BDP d 220      31.343 -17.590  86.397  0.00  0.00     0.094 H 
ATOM    118  H   BDP d 220      32.235 -16.619  84.530  0.00  0.00     0.210 HD
ATOM    119  H   BDP d 220      30.240 -17.551  83.880  0.00  0.00     0.092 H 
ATOM    120  OSC ASG d 219      31.468 -22.050  90.649  0.00  0.00    -0.572 OA
ATOM    121  C5  ASG d 219      27.372 -19.856  90.612  0.00  0.00     0.090 C 
ATOM    122  C3  ASG d 219      28.628 -18.273  89.168  0.00  0.00     0.094 C 
ATOM    123  C6  ASG d 219      27.011 -21.340  90.959  0.00  0.00     0.043 C 
ATOM    124  C7  ASG d 219      30.250 -15.181  90.580  0.00  0.00     0.214 C 
ATOM    125  C4  ASG d 219      28.569 -19.721  89.632  0.00  0.00     0.114 C 
ATOM    126  S   ASG d 219      30.414 -21.644  89.721  0.00  0.00     0.252 S 
ATOM    127  C8  ASG d 219      30.383 -13.667  90.319  0.00  0.00    -0.003 C 
ATOM    128  O7  ASG d 219      31.025 -15.727  91.282  0.00  0.00    -0.274 OA
ATOM    129  O6  ASG d 219      26.060 -21.590  91.985  0.00  0.00    -0.398 OA
ATOM    130  OSB ASG d 219      29.419 -22.715  89.722  0.00  0.00    -0.572 OA
ATOM    131  O1  ASG d 219      28.108 -16.790  92.655  0.00  0.00    -0.348 OA
ATOM    132  O4  ASG d 219      29.761 -20.207  90.227  0.00  0.00    -0.246 OA
ATOM    133  OSA ASG d 219      30.946 -21.405  88.377  0.00  0.00    -0.572 OA
ATOM    134  O5  ASG d 219      27.719 -19.044  91.798  0.00  0.00    -0.349 OA
ATOM    135  N   ASG d 219      29.155 -15.945  89.988  0.00  0.00    -0.349 N 
ATOM    136  C2  ASG d 219      28.927 -17.358  90.346  0.00  0.00     0.087 C 
ATOM    137  C1  ASG d 219      27.879 -17.583  91.497  0.00  0.00     0.154 C 
ATOM    138  H   ASG d 219      26.473 -19.496  90.156  0.00  0.00     0.090 H 
ATOM    139  H   ASG d 219      27.695 -17.976  88.737  0.00  0.00     0.091 H 
ATOM    140  H   ASG d 219      27.920 -21.827  91.248  0.00  0.00     0.078 H 
ATOM    141  H   ASG d 219      26.538 -21.707  90.073  0.00  0.00     0.078 H 
ATOM    142  H   ASG d 219      28.443 -20.329  88.761  0.00  0.00     0.093 H 
ATOM    143  H   ASG d 219      29.599 -13.347  89.665  0.00  0.00     0.040 H 
ATOM    144  H   ASG d 219      31.331 -13.465  89.867  0.00  0.00     0.040 H 
ATOM    145  H   ASG d 219      30.311 -13.138  91.246  0.00  0.00     0.040 H 
ATOM    146  H   ASG d 219      26.414 -21.284  92.835  0.00  0.00     0.209 HD
ATOM    147  H   ASG d 219      28.557 -15.509  89.339  0.00  0.00     0.163 HD
ATOM    148  H   ASG d 219      29.883 -17.647  90.729  0.00  0.00     0.084 H 
ATOM    149  H   ASG d 219      26.940 -17.226  91.130  0.00  0.00     0.132 H 
ENDROOT
TORSDOF 38
ENDMDL
MODEL 2
REMARK VINA RESULT:      -9.0      1.216      1.250
REMARK  0 active torsions:
REMARK  status: ('A' for Active; 'I' for Inactive)
REMARK       I    between atoms: C6_2  and  C5_55 
REMARK       I    between atoms: O4_3  and  C4_83 
REMARK       I    between atoms: O4_3  and  S_75 
REMARK       I    between atoms: C6_4  and  C5_67 
REMARK       I    between atoms: O4_5  and  C4_61 
REMARK       I    between atoms: O4_5  and  S_71 
REMARK       I    between atoms: O3_6  and  C3_32 
REMARK       I    between atoms: C1_8  and  O1_30 
REMARK       I    between atoms: C3_12  and  O3_62 
REMARK       I    between atoms: C5_13  and  C6_25 
REMARK       I    between atoms: O1_14  and  C4_39 
REMARK       I    between atoms: O1_14  and  C1_23 
REMARK       I    between atoms: C5_15  and  C6_27 
REMARK       I    between atoms: C5_18  and  C6_44 
REMARK       I    between atoms: C3_19  and  O1_82 
REMARK       I    between atoms: C2_20  and  N_89 
REMARK       I    between atoms: C2_21  and  O2_80 
REMARK       I    between atoms: C1_24  and  O1_45 
REMARK       I    between atoms: C6_25  and  O6_48 
REMARK       I    between atoms: C6_27  and  O6_77 
REMARK       I    between atoms: C7_28  and  C8_35 
REMARK       I    between atoms: C7_28  and  N_70 
REMARK       I    between atoms: O1_30  and  C3_43 
REMARK       I    between atoms: C4_33  and  O4_53 
REMARK       I    between atoms: S_34  and  O4_53 
REMARK       I    between atoms: O2_40  and  C2_87 
REMARK       I    between atoms: C7_41  and  C8_81 
REMARK       I    between atoms: C7_41  and  N_89 
REMARK       I    between atoms: O6_42  and  C6_88 
REMARK       I    between atoms: O1_45  and  C4_90 
REMARK       I    between atoms: C7_46  and  C8_69 
REMARK       I    between atoms: C7_46  and  N_85 
REMARK       I    between atoms: C2_47  and  N_85 
REMARK       I    between atoms: O1_50  and  C4_73 
REMARK       I    between atoms: O1_50  and  C1_76 
REMARK       I    between atoms: C1_52  and  O1_82 
REMARK       I    between atoms: C3_54  and  O3_72 
REMARK       I    between atoms: C5_57  and  C6_88 
REMARK       I    between atoms: O1_59  and  C1_78 
REMARK       I    between atoms: O2_63  and  C2_68 
REMARK       I    between atoms: N_70  and  C2_74 
ROOT
ATOM      1  O6B BDP d 216      27.588  -9.628  98.787  0.00  0.00    -0.646 OA
ATOM      2  C6  BDP d 216      28.073 -10.088  99.844  0.00  0.00     0.206 C 
ATOM      3  C3  BDP d 216      25.005 -10.003 102.199  0.00  0.00     0.092 C 
ATOM      4  O6A BDP d 216      29.164 -10.694  99.901  0.00  0.00    -0.646 OA
ATOM      5  O5  BDP d 216      27.348  -8.530 101.512  0.00  0.00    -0.340 OA
ATOM      6  C4  BDP d 216      25.842 -10.351 100.970  0.00  0.00     0.103 C 
ATOM      7  O2  BDP d 216      24.613  -8.312 103.866  0.00  0.00    -0.388 OA
ATOM      8  C5  BDP d 216      27.292  -9.894 101.140  0.00  0.00     0.152 C 
ATOM      9  O1  BDP d 216      26.948  -6.953 103.171  0.00  0.00    -0.368 OA
ATOM     10  O3  BDP d 216      23.635 -10.196 101.913  0.00  0.00    -0.390 OA
ATOM     11  C1  BDP d 216      26.736  -8.289 102.761  0.00  0.00     0.156 C 
ATOM     12  C2  BDP d 216      25.243  -8.558 102.629  0.00  0.00     0.110 C 
ATOM     13  H   BDP d 216      25.298 -10.647 103.002  0.00  0.00     0.091 H 
ATOM     14  H   BDP d 216      25.462  -9.839 100.110  0.00  0.00     0.092 H 
ATOM     15  H   BDP d 216      23.662  -8.482 103.784  0.00  0.00     0.210 HD
ATOM     16  H   BDP d 216      27.731 -10.490 101.913  0.00  0.00     0.104 H 
ATOM     17  H   BDP d 216      27.900  -6.787 103.253  0.00  0.00     0.212 HD
ATOM     18  H   BDP d 216      23.372  -9.612 101.184  0.00  0.00     0.210 HD
ATOM     19  H   BDP d 216      27.166  -8.936 103.498  0.00  0.00     0.133 H 
ATOM     20  H   BDP d 216      24.831  -7.908 101.886  0.00  0.00     0.094 H 
ATOM     21  O4  ASG d 217      22.781 -14.397  98.767  0.00  0.00    -0.246 OA
ATOM     22  O7  ASG d 217      26.671 -15.253 100.925  0.00  0.00    -0.274 OA
ATOM     23  O1  ASG d 217      25.762 -11.719 100.775  0.00  0.00    -0.348 OA
ATOM     24  C5  ASG d 217      23.138 -12.063  98.098  0.00  0.00     0.090 C 
ATOM     25  C1  ASG d 217      25.180 -12.062  99.528  0.00  0.00     0.154 C 
ATOM     26  C6  ASG d 217      21.651 -11.574  97.950  0.00  0.00     0.043 C 
ATOM     27  OSA ASG d 217      21.983 -15.987  96.951  0.00  0.00    -0.572 OA
ATOM     28  C3  ASG d 217      24.890 -13.784  97.684  0.00  0.00     0.094 C 
ATOM     29  C7  ASG d 217      27.442 -14.697 100.224  0.00  0.00     0.214 C 
ATOM     30  C2  ASG d 217      25.533 -13.503  99.036  0.00  0.00     0.087 C 
ATOM     31  O5  ASG d 217      23.706 -11.810  99.441  0.00  0.00    -0.349 OA
ATOM     32  OSB ASG d 217      20.351 -14.978  98.398  0.00  0.00    -0.572 OA
ATOM     33  OSC ASG d 217      21.838 -16.679  99.217  0.00  0.00    -0.572 OA
ATOM     34  C8  ASG d 217      28.935 -15.064 100.297  0.00  0.00    -0.003 C 
ATOM     35  S   ASG d 217      21.692 -15.544  98.314  0.00  0.00     0.252 S 
ATOM     36  O6  ASG d 217      21.424 -10.239  97.519  0.00  0.00    -0.398 OA
ATOM     37  C4  ASG d 217      23.381 -13.571  97.783  0.00  0.00     0.114 C 
ATOM     38  N   ASG d 217      26.964 -13.826  99.155  0.00  0.00    -0.349 N 
ATOM     39  H   ASG d 217      23.631 -11.472  97.355  0.00  0.00     0.090 H 
ATOM     40  H   ASG d 217      25.646 -11.377  98.850  0.00  0.00     0.132 H 
ATOM     41  H   ASG d 217      21.183 -11.683  98.906  0.00  0.00     0.078 H 
ATOM     42  H   ASG d 217      21.250 -12.178  97.163  0.00  0.00     0.078 H 
ATOM     43  H   ASG d 217      25.379 -13.171  96.956  0.00  0.00     0.091 H 
ATOM     44  H   ASG d 217      25.090 -14.210  99.707  0.00  0.00     0.084 H 
ATOM     45  H   ASG d 217      29.104 -15.705 101.137  0.00  0.00     0.040 H 
ATOM     46  H   ASG d 217      29.517 -14.173 100.406  0.00  0.00     0.040 H 
ATOM     47  H   ASG d 217      29.222 -15.571  99.398  0.00  0.00     0.040 H 
ATOM     48  H   ASG d 217      21.764  -9.622  98.187  0.00  0.00     0.209 HD
ATOM     49  H   ASG d 217      22.924 -13.844  96.854  0.00  0.00     0.093 H 
ATOM     50  H   ASG d 217      27.604 -13.451  98.508  0.00  0.00     0.163 HD
ATOM     51  C6  BDP d 218      25.978 -14.989  92.816  0.00  0.00     0.206 C 
ATOM     52  O3  BDP d 218      27.323 -18.841  95.551  0.00  0.00    -0.390 OA
ATOM     53  C1  BDP d 218      25.902 -15.529  96.482  0.00  0.00     0.160 C 
ATOM     54  C2  BDP d 218      26.139 -17.036  96.544  0.00  0.00     0.110 C 
ATOM     55  O6A BDP d 218      26.655 -14.094  92.261  0.00  0.00    -0.646 OA
ATOM     56  O1  BDP d 218      24.942 -15.155  97.452  0.00  0.00    -0.348 OA
ATOM     57  C3  BDP d 218      27.177 -17.443  95.514  0.00  0.00     0.092 C 
ATOM     58  O5  BDP d 218      25.452 -15.218  95.178  0.00  0.00    -0.340 OA
ATOM     59  C5  BDP d 218      26.430 -15.488  94.187  0.00  0.00     0.152 C 
ATOM     60  C4  BDP d 218      26.727 -16.984  94.131  0.00  0.00     0.103 C 
ATOM     61  O2  BDP d 218      26.578 -17.425  97.826  0.00  0.00    -0.388 OA
ATOM     62  O6B BDP d 218      24.965 -15.511  92.301  0.00  0.00    -0.646 OA
ATOM     63  H   BDP d 218      27.609 -19.112  96.437  0.00  0.00     0.210 HD
ATOM     64  H   BDP d 218      26.803 -14.992  96.692  0.00  0.00     0.133 H 
ATOM     65  H   BDP d 218      25.211 -17.526  96.333  0.00  0.00     0.094 H 
ATOM     66  H   BDP d 218      28.119 -16.985  95.732  0.00  0.00     0.091 H 
ATOM     67  H   BDP d 218      27.324 -14.966  94.454  0.00  0.00     0.104 H 
ATOM     68  H   BDP d 218      25.923 -17.620  93.824  0.00  0.00     0.092 H 
ATOM     69  H   BDP d 218      27.420 -16.987  98.027  0.00  0.00     0.210 HD
ATOM     70  O4  ASG d 221      28.968 -12.558  80.846  0.00  0.00    -0.249 OA
ATOM     71  OSB ASG d 221      28.626 -10.045  81.104  0.00  0.00    -0.572 OA
ATOM     72  OSC ASG d 221      30.576 -10.791  79.942  0.00  0.00    -0.572 OA
ATOM     73  C2  ASG d 221      28.276 -15.107  81.696  0.00  0.00     0.062 C 
ATOM     74  C1  ASG d 221      29.362 -15.161  82.825  0.00  0.00     0.151 C 
ATOM     75  C3  ASG d 221      28.910 -14.923  80.333  0.00  0.00    -0.014 C 
ATOM     76  O7  ASG d 221      26.328 -15.776  79.686  0.00  0.00    -0.274 OA
ATOM     77  C7  ASG d 221      26.489 -16.553  80.563  0.00  0.00     0.214 C 
ATOM     78  O6  ASG d 221      33.316 -13.359  81.916  0.00  0.00    -0.398 OA
ATOM     79  O1  ASG d 221      28.830 -15.124  84.145  0.00  0.00    -0.348 OA
ATOM     80  C5  ASG d 221      30.947 -14.055  81.201  0.00  0.00     0.088 C 
ATOM     81  C4  ASG d 221      29.719 -13.650  80.342  0.00  0.00     0.089 C 
ATOM     82  OSA ASG d 221      30.404 -11.047  82.313  0.00  0.00    -0.572 OA
ATOM     83  S   ASG d 221      29.664 -11.071  81.052  0.00  0.00     0.252 S 
ATOM     84  O5  ASG d 221      30.472 -14.173  82.597  0.00  0.00    -0.349 OA
ATOM     85  C8  ASG d 221      25.660 -17.849  80.584  0.00  0.00    -0.003 C 
ATOM     86  C6  ASG d 221      32.263 -13.226  80.971  0.00  0.00     0.043 C 
ATOM     87  N   ASG d 221      27.293 -16.204  81.734  0.00  0.00    -0.352 N 
ATOM     88  H   ASG d 221      27.688 -14.237  81.899  0.00  0.00     0.080 H 
ATOM     89  H   ASG d 221      29.807 -16.131  82.750  0.00  0.00     0.132 H 
ATOM     90  H   ASG d 221      28.145 -14.858  79.587  0.00  0.00     0.040 H 
ATOM     91  H   ASG d 221      29.544 -15.756  80.111  0.00  0.00     0.040 H 
ATOM     92  H   ASG d 221      34.060 -12.796  81.652  0.00  0.00     0.209 HD
ATOM     93  H   ASG d 221      31.315 -15.005  80.874  0.00  0.00     0.090 H 
ATOM     94  H   ASG d 221      30.014 -13.293  79.377  0.00  0.00     0.089 H 
ATOM     95  H   ASG d 221      25.136 -17.951  79.658  0.00  0.00     0.040 H 
ATOM     96  H   ASG d 221      24.957 -17.810  81.390  0.00  0.00     0.040 H 
ATOM     97  H   ASG d 221      26.312 -18.686  80.721  0.00  0.00     0.040 H 
ATOM     98  H   ASG d 221      32.656 -13.513  80.018  0.00  0.00     0.078 H 
ATOM     99  H   ASG d 221      31.952 -12.207  81.063  0.00  0.00     0.078 H 
ATOM    100  H   ASG d 221      27.175 -16.715  82.567  0.00  0.00     0.163 HD
ATOM    101  O5  BDP d 220      28.583 -17.583  86.670  0.00  0.00    -0.340 OA
ATOM    102  C5  BDP d 220      28.167 -16.672  85.672  0.00  0.00     0.152 C 
ATOM    103  C6  BDP d 220      27.254 -17.366  84.665  0.00  0.00     0.206 C 
ATOM    104  C1  BDP d 220      29.154 -16.912  87.772  0.00  0.00     0.160 C 
ATOM    105  C3  BDP d 220      30.214 -15.331  86.060  0.00  0.00     0.092 C 
ATOM    106  O2  BDP d 220      30.931 -15.426  88.364  0.00  0.00    -0.388 OA
ATOM    107  O6B BDP d 220      27.688 -18.382  84.071  0.00  0.00    -0.646 OA
ATOM    108  C2  BDP d 220      30.423 -16.205  87.303  0.00  0.00     0.110 C 
ATOM    109  O3  BDP d 220      31.472 -14.971  85.515  0.00  0.00    -0.390 OA
ATOM    110  O1  BDP d 220      29.490 -17.833  88.799  0.00  0.00    -0.348 OA
ATOM    111  O6A BDP d 220      26.112 -16.878  84.484  0.00  0.00    -0.646 OA
ATOM    112  C4  BDP d 220      29.392 -16.063  84.997  0.00  0.00     0.103 C 
ATOM    113  H   BDP d 220      27.603 -15.882  86.121  0.00  0.00     0.104 H 
ATOM    114  H   BDP d 220      28.449 -16.207  88.160  0.00  0.00     0.133 H 
ATOM    115  H   BDP d 220      29.677 -14.455  86.356  0.00  0.00     0.091 H 
ATOM    116  H   BDP d 220      31.059 -15.988  89.144  0.00  0.00     0.210 HD
ATOM    117  H   BDP d 220      31.122 -16.963  87.017  0.00  0.00     0.094 H 
ATOM    118  H   BDP d 220      31.950 -15.773  85.250  0.00  0.00     0.210 HD
ATOM    119  H   BDP d 220      30.023 -16.773  84.506  0.00  0.00     0.092 H 
ATOM    120  OSC ASG d 219      31.539 -21.766  90.857  0.00  0.00    -0.572 OA
ATOM    121  C5  ASG d 219      27.306 -19.854  90.985  0.00  0.00     0.090 C 
ATOM    122  C3  ASG d 219      28.455 -18.068  89.697  0.00  0.00     0.094 C 
ATOM    123  C6  ASG d 219      27.044 -21.384  91.197  0.00  0.00     0.043 C 
ATOM    124  C7  ASG d 219      29.866 -15.014  91.389  0.00  0.00     0.214 C 
ATOM    125  C4  ASG d 219      28.493 -19.552  90.030  0.00  0.00     0.114 C 
ATOM    126  S   ASG d 219      30.461 -21.350  89.961  0.00  0.00     0.252 S 
ATOM    127  C8  ASG d 219      29.898 -13.477  91.265  0.00  0.00    -0.003 C 
ATOM    128  O7  ASG d 219      30.674 -15.568  92.046  0.00  0.00    -0.274 OA
ATOM    129  O6  ASG d 219      26.110 -21.786  92.189  0.00  0.00    -0.398 OA
ATOM    130  OSB ASG d 219      29.540 -22.480  89.860  0.00  0.00    -0.572 OA
ATOM    131  O1  ASG d 219      27.833 -16.940  93.297  0.00  0.00    -0.348 OA
ATOM    132  O4  ASG d 219      29.713 -20.010  90.588  0.00  0.00    -0.246 OA
ATOM    133  OSA ASG d 219      30.977 -20.957  88.647  0.00  0.00    -0.572 OA
ATOM    134  O5  ASG d 219      27.597 -19.129  92.241  0.00  0.00    -0.349 OA
ATOM    135  N   ASG d 219      28.825 -15.793  90.724  0.00  0.00    -0.349 N 
ATOM    136  C2  ASG d 219      28.691 -17.244  90.953  0.00  0.00     0.087 C 
ATOM    137  C1  ASG d 219      27.659 -17.640  92.072  0.00  0.00     0.154 C 
ATOM    138  H   ASG d 219      26.386 -19.515  90.557  0.00  0.00     0.090 H 
ATOM    139  H   ASG d 219      27.505 -17.797  89.286  0.00  0.00     0.091 H 
ATOM    140  H   ASG d 219      27.982 -21.832  91.447  0.00  0.00     0.078 H 
ATOM    141  H   ASG d 219      26.597 -21.700  90.278  0.00  0.00     0.078 H 
ATOM    142  H   ASG d 219      28.409 -20.088  89.108  0.00  0.00     0.093 H 
ATOM    143  H   ASG d 219      29.095 -13.153  90.635  0.00  0.00     0.040 H 
ATOM    144  H   ASG d 219      30.831 -13.174  90.838  0.00  0.00     0.040 H 
ATOM    145  H   ASG d 219      29.789 -13.038  92.234  0.00  0.00     0.040 H 
ATOM    146  H   ASG d 219      26.442 -21.534  93.066  0.00  0.00     0.209 HD
ATOM    147  H   ASG d 219      28.200 -15.342  90.111  0.00  0.00     0.163 HD
ATOM    148  H   ASG d 219      29.663 -17.502  91.316  0.00  0.00     0.084 H 
ATOM    149  H   ASG d 219      26.699 -17.314  91.731  0.00  0.00     0.132 H 
ENDROOT
TORSDOF 38
ENDMDL
MODEL 3
REMARK VINA RESULT:      -8.5      3.707     15.515
REMARK  0 active torsions:
REMARK  status: ('A' for Active; 'I' for Inactive)
REMARK       I    between atoms: C6_2  and  C5_55 
REMARK       I    between atoms: O4_3  and  C4_83 
REMARK       I    between atoms: O4_3  and  S_75 
REMARK       I    between atoms: C6_4  and  C5_67 
REMARK       I    between atoms: O4_5  and  C4_61 
REMARK       I    between atoms: O4_5  and  S_71 
REMARK       I    between atoms: O3_6  and  C3_32 
REMARK       I    between atoms: C1_8  and  O1_30 
REMARK       I    between atoms: C3_12  and  O3_62 
REMARK       I    between atoms: C5_13  and  C6_25 
REMARK       I    between atoms: O1_14  and  C4_39 
REMARK       I    between atoms: O1_14  and  C1_23 
REMARK       I    between atoms: C5_15  and  C6_27 
REMARK       I    between atoms: C5_18  and  C6_44 
REMARK       I    between atoms: C3_19  and  O1_82 
REMARK       I    between atoms: C2_20  and  N_89 
REMARK       I    between atoms: C2_21  and  O2_80 
REMARK       I    between atoms: C1_24  and  O1_45 
REMARK       I    between atoms: C6_25  and  O6_48 
REMARK       I    between atoms: C6_27  and  O6_77 
REMARK       I    between atoms: C7_28  and  C8_35 
REMARK       I    between atoms: C7_28  and  N_70 
REMARK       I    between atoms: O1_30  and  C3_43 
REMARK       I    between atoms: C4_33  and  O4_53 
REMARK       I    between atoms: S_34  and  O4_53 
REMARK       I    between atoms: O2_40  and  C2_87 
REMARK       I    between atoms: C7_41  and  C8_81 
REMARK       I    between atoms: C7_41  and  N_89 
REMARK       I    between atoms: O6_42  and  C6_88 
REMARK       I    between atoms: O1_45  and  C4_90 
REMARK       I    between atoms: C7_46  and  C8_69 
REMARK       I    between atoms: C7_46  and  N_85 
REMARK       I    between atoms: C2_47  and  N_85 
REMARK       I    between atoms: O1_50  and  C4_73 
REMARK       I    between atoms: O1_50  and  C1_76 
REMARK       I    between atoms: C1_52  and  O1_82 
REMARK       I    between atoms: C3_54  and  O3_72 
REMARK       I    between atoms: C5_57  and  C6_88 
REMARK       I    between atoms: O1_59  and  C1_78 
REMARK       I    between atoms: O2_63  and  C2_68 
REMARK       I    between atoms: N_70  and  C2_74 
ROOT
ATOM      1  O6B BDP d 216      31.713  -9.946  85.219  0.00  0.00    -0.646 OA
ATOM      2  C6  BDP d 216      30.964  -9.495  84.325  0.00  0.00     0.206 C 
ATOM      3  C3  BDP d 216      32.125 -11.531  81.247  0.00  0.00     0.092 C 
ATOM      4  O6A BDP d 216      29.934  -8.827  84.555  0.00  0.00    -0.646 OA
ATOM      5  O5  BDP d 216      32.473  -9.007  82.531  0.00  0.00    -0.340 OA
ATOM      6  C4  BDP d 216      31.589 -11.263  82.652  0.00  0.00     0.103 C 
ATOM      7  O2  BDP d 216      33.604 -10.697  79.542  0.00  0.00    -0.388 OA
ATOM      8  C5  BDP d 216      31.330  -9.770  82.870  0.00  0.00     0.152 C 
ATOM      9  O1  BDP d 216      33.855  -8.236  80.830  0.00  0.00    -0.368 OA
ATOM     10  O3  BDP d 216      32.597 -12.860  81.164  0.00  0.00    -0.390 OA
ATOM     11  C1  BDP d 216      32.811  -9.128  81.165  0.00  0.00     0.156 C 
ATOM     12  C2  BDP d 216      33.252 -10.561  80.900  0.00  0.00     0.110 C 
ATOM     13  H   BDP d 216      31.329 -11.388  80.548  0.00  0.00     0.091 H 
ATOM     14  H   BDP d 216      32.315 -11.553  83.383  0.00  0.00     0.092 H 
ATOM     15  H   BDP d 216      33.886 -11.609  79.371  0.00  0.00     0.210 HD
ATOM     16  H   BDP d 216      30.514  -9.487  82.238  0.00  0.00     0.104 H 
ATOM     17  H   BDP d 216      33.569  -7.324  81.000  0.00  0.00     0.212 HD
ATOM     18  H   BDP d 216      33.319 -12.987  81.799  0.00  0.00     0.210 HD
ATOM     19  H   BDP d 216      31.958  -8.885  80.565  0.00  0.00     0.133 H 
ATOM     20  H   BDP d 216      34.100 -10.788  81.511  0.00  0.00     0.094 H 
ATOM     21  O4  ASG d 217      29.620 -16.262  83.962  0.00  0.00    -0.246 OA
ATOM     22  O7  ASG d 217      26.874 -12.820  82.898  0.00  0.00    -0.274 OA
ATOM     23  O1  ASG d 217      30.434 -12.006  82.815  0.00  0.00    -0.348 OA
ATOM     24  C5  ASG d 217      31.612 -15.039  84.708  0.00  0.00     0.090 C 
ATOM     25  C1  ASG d 217      30.536 -12.955  83.865  0.00  0.00     0.154 C 
ATOM     26  C6  ASG d 217      32.726 -16.122  84.462  0.00  0.00     0.043 C 
ATOM     27  OSA ASG d 217      28.778 -18.103  85.500  0.00  0.00    -0.572 OA
ATOM     28  C3  ASG d 217      29.354 -14.428  85.562  0.00  0.00     0.094 C 
ATOM     29  C7  ASG d 217      27.108 -12.067  83.779  0.00  0.00     0.214 C 
ATOM     30  C2  ASG d 217      29.158 -13.431  84.427  0.00  0.00     0.087 C 
ATOM     31  O5  ASG d 217      31.425 -14.121  83.563  0.00  0.00    -0.349 OA
ATOM     32  OSB ASG d 217      30.228 -18.697  83.678  0.00  0.00    -0.572 OA
ATOM     33  OSC ASG d 217      27.960 -18.014  83.273  0.00  0.00    -0.572 OA
ATOM     34  C8  ASG d 217      26.109 -10.941  84.099  0.00  0.00    -0.003 C 
ATOM     35  S   ASG d 217      29.139 -17.829  84.109  0.00  0.00     0.252 S 
ATOM     36  O6  ASG d 217      34.062 -15.802  84.822  0.00  0.00    -0.398 OA
ATOM     37  C4  ASG d 217      30.203 -15.599  85.071  0.00  0.00     0.114 C 
ATOM     38  N   ASG d 217      28.220 -12.327  84.687  0.00  0.00    -0.349 N 
ATOM     39  H   ASG d 217      32.005 -14.519  85.557  0.00  0.00     0.090 H 
ATOM     40  H   ASG d 217      31.017 -12.400  84.643  0.00  0.00     0.132 H 
ATOM     41  H   ASG d 217      32.724 -16.348  83.416  0.00  0.00     0.078 H 
ATOM     42  H   ASG d 217      32.460 -16.928  85.114  0.00  0.00     0.078 H 
ATOM     43  H   ASG d 217      29.766 -13.898  86.395  0.00  0.00     0.091 H 
ATOM     44  H   ASG d 217      28.648 -13.978  83.661  0.00  0.00     0.084 H 
ATOM     45  H   ASG d 217      25.366 -10.894  83.331  0.00  0.00     0.040 H 
ATOM     46  H   ASG d 217      26.628 -10.007  84.149  0.00  0.00     0.040 H 
ATOM     47  H   ASG d 217      25.638 -11.139  85.040  0.00  0.00     0.040 H 
ATOM     48  H   ASG d 217      34.380 -15.071  84.269  0.00  0.00     0.209 HD
ATOM     49  H   ASG d 217      30.273 -16.334  85.846  0.00  0.00     0.093 H 
ATOM     50  H   ASG d 217      28.345 -11.757  85.480  0.00  0.00     0.163 HD
ATOM     51  C6  BDP d 218      28.375 -15.192  90.542  0.00  0.00     0.206 C 
ATOM     52  O3  BDP d 218      24.034 -15.172  88.244  0.00  0.00    -0.390 OA
ATOM     53  C1  BDP d 218      27.496 -14.647  86.982  0.00  0.00     0.160 C 
ATOM     54  C2  BDP d 218      26.046 -15.123  86.980  0.00  0.00     0.110 C 
ATOM     55  O6A BDP d 218      28.934 -14.331  91.257  0.00  0.00    -0.646 OA
ATOM     56  O1  BDP d 218      28.141 -15.069  85.796  0.00  0.00    -0.348 OA
ATOM     57  C3  BDP d 218      25.345 -14.663  88.245  0.00  0.00     0.092 C 
ATOM     58  O5  BDP d 218      28.127 -15.195  88.123  0.00  0.00    -0.340 OA
ATOM     59  C5  BDP d 218      27.569 -14.713  89.336  0.00  0.00     0.152 C 
ATOM     60  C4  BDP d 218      26.116 -15.161  89.463  0.00  0.00     0.103 C 
ATOM     61  O2  BDP d 218      25.353 -14.625  85.857  0.00  0.00    -0.388 OA
ATOM     62  O6B BDP d 218      28.424 -16.421  90.771  0.00  0.00    -0.646 OA
ATOM     63  H   BDP d 218      23.561 -14.844  87.462  0.00  0.00     0.210 HD
ATOM     64  H   BDP d 218      27.547 -13.578  87.018  0.00  0.00     0.133 H 
ATOM     65  H   BDP d 218      26.049 -16.192  86.938  0.00  0.00     0.094 H 
ATOM     66  H   BDP d 218      25.307 -13.594  88.284  0.00  0.00     0.091 H 
ATOM     67  H   BDP d 218      27.603 -13.645  89.314  0.00  0.00     0.104 H 
ATOM     68  H   BDP d 218      25.944 -16.214  89.546  0.00  0.00     0.092 H 
ATOM     69  H   BDP d 218      25.345 -13.655  85.885  0.00  0.00     0.210 HD
ATOM     70  O4  ASG d 221      30.618 -14.319 102.884  0.00  0.00    -0.249 OA
ATOM     71  OSB ASG d 221      32.970 -13.395 102.553  0.00  0.00    -0.572 OA
ATOM     72  OSC ASG d 221      31.578 -12.341 104.184  0.00  0.00    -0.572 OA
ATOM     73  C2  ASG d 221      28.562 -15.886 101.874  0.00  0.00     0.062 C 
ATOM     74  C1  ASG d 221      27.898 -14.716 101.070  0.00  0.00     0.151 C 
ATOM     75  C3  ASG d 221      28.605 -15.578 103.356  0.00  0.00    -0.014 C 
ATOM     76  O7  ASG d 221      29.073 -18.333 103.300  0.00  0.00    -0.274 OA
ATOM     77  C7  ASG d 221      28.208 -18.347 102.494  0.00  0.00     0.214 C 
ATOM     78  O6  ASG d 221      27.846 -10.714 102.991  0.00  0.00    -0.398 OA
ATOM     79  O1  ASG d 221      28.012 -14.845  99.656  0.00  0.00    -0.348 OA
ATOM     80  C5  ASG d 221      28.366 -13.231 103.056  0.00  0.00     0.088 C 
ATOM     81  C4  ASG d 221      29.373 -14.297 103.564  0.00  0.00     0.089 C 
ATOM     82  OSA ASG d 221      31.147 -12.051 101.851  0.00  0.00    -0.572 OA
ATOM     83  S   ASG d 221      31.604 -12.990 102.873  0.00  0.00     0.252 S 
ATOM     84  O5  ASG d 221      28.308 -13.365 101.584  0.00  0.00    -0.349 OA
ATOM     85  C8  ASG d 221      27.423 -19.648 102.252  0.00  0.00    -0.003 C 
ATOM     86  C6  ASG d 221      28.544 -11.776 103.626  0.00  0.00     0.043 C 
ATOM     87  N   ASG d 221      28.021 -17.224 101.576  0.00  0.00    -0.352 N 
ATOM     88  H   ASG d 221      29.572 -15.942 101.527  0.00  0.00     0.080 H 
ATOM     89  H   ASG d 221      26.848 -14.799 101.256  0.00  0.00     0.132 H 
ATOM     90  H   ASG d 221      29.091 -16.378 103.876  0.00  0.00     0.040 H 
ATOM     91  H   ASG d 221      27.609 -15.470 103.734  0.00  0.00     0.040 H 
ATOM     92  H   ASG d 221      28.046  -9.880 103.443  0.00  0.00     0.209 HD
ATOM     93  H   ASG d 221      27.397 -13.429 103.466  0.00  0.00     0.090 H 
ATOM     94  H   ASG d 221      29.674 -14.107 104.573  0.00  0.00     0.089 H 
ATOM     95  H   ASG d 221      27.675 -20.362 103.008  0.00  0.00     0.040 H 
ATOM     96  H   ASG d 221      27.676 -20.043 101.290  0.00  0.00     0.040 H 
ATOM     97  H   ASG d 221      26.374 -19.444 102.289  0.00  0.00     0.040 H 
ATOM     98  H   ASG d 221      28.227 -11.795 104.648  0.00  0.00     0.078 H 
ATOM     99  H   ASG d 221      29.576 -11.552 103.459  0.00  0.00     0.078 H 
ATOM    100  H   ASG d 221      27.522 -17.365 100.739  0.00  0.00     0.163 HD
ATOM    101  O5  BDP d 220      25.640 -15.597  97.148  0.00  0.00    -0.340 OA
ATOM    102  C5  BDP d 220      26.751 -15.767  98.004  0.00  0.00     0.152 C 
ATOM    103  C6  BDP d 220      26.661 -17.105  98.734  0.00  0.00     0.206 C 
ATOM    104  C1  BDP d 220      25.852 -14.540  96.236  0.00  0.00     0.160 C 
ATOM    105  C3  BDP d 220      26.986 -13.307  98.172  0.00  0.00     0.092 C 
ATOM    106  O2  BDP d 220      26.310 -12.196  96.136  0.00  0.00    -0.388 OA
ATOM    107  O6B BDP d 220      25.636 -17.340  99.418  0.00  0.00    -0.646 OA
ATOM    108  C2  BDP d 220      25.970 -13.238  97.024  0.00  0.00     0.110 C 
ATOM    109  O3  BDP d 220      26.810 -12.192  99.028  0.00  0.00    -0.390 OA
ATOM    110  O1  BDP d 220      24.763 -14.436  95.330  0.00  0.00    -0.348 OA
ATOM    111  O6A BDP d 220      27.624 -17.901  98.610  0.00  0.00    -0.646 OA
ATOM    112  C4  BDP d 220      26.827 -14.596  98.979  0.00  0.00     0.103 C 
ATOM    113  H   BDP d 220      27.651 -15.781  97.425  0.00  0.00     0.104 H 
ATOM    114  H   BDP d 220      26.745 -14.729  95.679  0.00  0.00     0.133 H 
ATOM    115  H   BDP d 220      27.968 -13.294  97.748  0.00  0.00     0.091 H 
ATOM    116  H   BDP d 220      25.662 -12.162  95.415  0.00  0.00     0.210 HD
ATOM    117  H   BDP d 220      25.019 -13.056  97.481  0.00  0.00     0.094 H 
ATOM    118  H   BDP d 220      25.917 -12.213  99.407  0.00  0.00     0.210 HD
ATOM    119  H   BDP d 220      25.974 -14.499  99.617  0.00  0.00     0.092 H 
ATOM    120  OSC ASG d 219      20.117 -14.010  93.870  0.00  0.00    -0.572 OA
ATOM    121  C5  ASG d 219      23.682 -16.724  92.641  0.00  0.00     0.090 C 
ATOM    122  C3  ASG d 219      24.908 -15.220  94.192  0.00  0.00     0.094 C 
ATOM    123  C6  ASG d 219      22.415 -17.603  92.364  0.00  0.00     0.043 C 
ATOM    124  C7  ASG d 219      26.792 -12.210  92.939  0.00  0.00     0.214 C 
ATOM    125  C4  ASG d 219      23.535 -15.793  93.876  0.00  0.00     0.114 C 
ATOM    126  S   ASG d 219      21.071 -14.950  94.453  0.00  0.00     0.252 S 
ATOM    127  C8  ASG d 219      28.157 -11.504  93.072  0.00  0.00    -0.003 C 
ATOM    128  O7  ASG d 219      25.863 -11.618  92.516  0.00  0.00    -0.274 OA
ATOM    129  O6  ASG d 219      22.356 -18.355  91.160  0.00  0.00    -0.398 OA
ATOM    130  OSB ASG d 219      20.490 -16.283  94.305  0.00  0.00    -0.572 OA
ATOM    131  O1  ASG d 219      25.762 -14.389  90.558  0.00  0.00    -0.348 OA
ATOM    132  O4  ASG d 219      22.520 -14.827  93.656  0.00  0.00    -0.246 OA
ATOM    133  OSA ASG d 219      21.345 -14.636  95.858  0.00  0.00    -0.572 OA
ATOM    134  O5  ASG d 219      24.048 -15.847  91.509  0.00  0.00    -0.349 OA
ATOM    135  N   ASG d 219      26.642 -13.616  93.305  0.00  0.00    -0.349 N 
ATOM    136  C2  ASG d 219      25.386 -14.345  93.044  0.00  0.00     0.087 C 
ATOM    137  C1  ASG d 219      25.362 -15.147  91.692  0.00  0.00     0.154 C 
ATOM    138  H   ASG d 219      24.443 -17.456  92.814  0.00  0.00     0.090 H 
ATOM    139  H   ASG d 219      25.620 -16.005  94.339  0.00  0.00     0.091 H 
ATOM    140  H   ASG d 219      21.570 -16.947  92.367  0.00  0.00     0.078 H 
ATOM    141  H   ASG d 219      22.442 -18.346  93.132  0.00  0.00     0.078 H 
ATOM    142  H   ASG d 219      23.205 -16.328  94.742  0.00  0.00     0.093 H 
ATOM    143  H   ASG d 219      28.876 -12.189  93.470  0.00  0.00     0.040 H 
ATOM    144  H   ASG d 219      28.061 -10.665  93.729  0.00  0.00     0.040 H 
ATOM    145  H   ASG d 219      28.480 -11.167  92.109  0.00  0.00     0.040 H 
ATOM    146  H   ASG d 219      22.329 -17.750  90.402  0.00  0.00     0.209 HD
ATOM    147  H   ASG d 219      27.393 -14.086  93.734  0.00  0.00     0.163 HD
ATOM    148  H   ASG d 219      24.682 -13.545  92.948  0.00  0.00     0.084 H 
ATOM    149  H   ASG d 219      26.119 -15.900  91.770  0.00  0.00     0.132 H 
ENDROOT
TORSDOF 38
ENDMDL
MODEL 4
REMARK VINA RESULT:      -8.3      2.021      2.382
REMARK  0 active torsions:
REMARK  status: ('A' for Active; 'I' for Inactive)
REMARK       I    between atoms: C6_2  and  C5_55 
REMARK       I    between atoms: O4_3  and  C4_83 
REMARK       I    between atoms: O4_3  and  S_75 
REMARK       I    between atoms: C6_4  and  C5_67 
REMARK       I    between atoms: O4_5  and  C4_61 
REMARK       I    between atoms: O4_5  and  S_71 
REMARK       I    between atoms: O3_6  and  C3_32 
REMARK       I    between atoms: C1_8  and  O1_30 
REMARK       I    between atoms: C3_12  and  O3_62 
REMARK       I    between atoms: C5_13  and  C6_25 
REMARK       I    between atoms: O1_14  and  C4_39 
REMARK       I    between atoms: O1_14  and  C1_23 
REMARK       I    between atoms: C5_15  and  C6_27 
REMARK       I    between atoms: C5_18  and  C6_44 
REMARK       I    between atoms: C3_19  and  O1_82 
REMARK       I    between atoms: C2_20  and  N_89 
REMARK       I    between atoms: C2_21  and  O2_80 
REMARK       I    between atoms: C1_24  and  O1_45 
REMARK       I    between atoms: C6_25  and  O6_48 
REMARK       I    between atoms: C6_27  and  O6_77 
REMARK       I    between atoms: C7_28  and  C8_35 
REMARK       I    between atoms: C7_28  and  N_70 
REMARK       I    between atoms: O1_30  and  C3_43 
REMARK       I    between atoms: C4_33  and  O4_53 
REMARK       I    between atoms: S_34  and  O4_53 
REMARK       I    between atoms: O2_40  and  C2_87 
REMARK       I    between atoms: C7_41  and  C8_81 
REMARK       I    between atoms: C7_41  and  N_89 
REMARK       I    between atoms: O6_42  and  C6_88 
REMARK       I    between atoms: O1_45  and  C4_90 
REMARK       I    between atoms: C7_46  and  C8_69 
REMARK       I    between atoms: C7_46  and  N_85 
REMARK       I    between atoms: C2_47  and  N_85 
REMARK       I    between atoms: O1_50  and  C4_73 
REMARK       I    between atoms: O1_50  and  C1_76 
REMARK       I    between atoms: C1_52  and  O1_82 
REMARK       I    between atoms: C3_54  and  O3_72 
REMARK       I    between atoms: C5_57  and  C6_88 
REMARK       I    between atoms: O1_59  and  C1_78 
REMARK       I    between atoms: O2_63  and  C2_68 
REMARK       I    between atoms: N_70  and  C2_74 
ROOT
ATOM      1  O6B BDP d 216      25.959 -10.831  99.128  0.00  0.00    -0.646 OA
ATOM      2  C6  BDP d 216      26.474 -11.269 100.179  0.00  0.00     0.206 C 
ATOM      3  C3  BDP d 216      23.356 -11.771 102.414  0.00  0.00     0.092 C 
ATOM      4  O6A BDP d 216      27.642 -11.707 100.249  0.00  0.00    -0.646 OA
ATOM      5  O5  BDP d 216      25.470  -9.928 101.890  0.00  0.00    -0.340 OA
ATOM      6  C4  BDP d 216      24.275 -11.923 101.203  0.00  0.00     0.103 C 
ATOM      7  O2  BDP d 216      22.661 -10.249 104.143  0.00  0.00    -0.388 OA
ATOM      8  C5  BDP d 216      25.633 -11.264 101.452  0.00  0.00     0.152 C 
ATOM      9  O1  BDP d 216      24.783  -8.521 103.606  0.00  0.00    -0.368 OA
ATOM     10  O3  BDP d 216      22.041 -12.151 102.065  0.00  0.00    -0.390 OA
ATOM     11  C1  BDP d 216      24.789  -9.850 103.125  0.00  0.00     0.156 C 
ATOM     12  C2  BDP d 216      23.359 -10.331 102.922  0.00  0.00     0.110 C 
ATOM     13  H   BDP d 216      23.718 -12.406 103.195  0.00  0.00     0.091 H 
ATOM     14  H   BDP d 216      23.849 -11.428 100.355  0.00  0.00     0.092 H 
ATOM     15  H   BDP d 216      21.749 -10.555 104.016  0.00  0.00     0.210 HD
ATOM     16  H   BDP d 216      26.133 -11.828 102.212  0.00  0.00     0.104 H 
ATOM     17  H   BDP d 216      25.696  -8.218 103.734  0.00  0.00     0.212 HD
ATOM     18  H   BDP d 216      21.716 -11.574 101.356  0.00  0.00     0.210 HD
ATOM     19  H   BDP d 216      25.289 -10.464 103.846  0.00  0.00     0.133 H 
ATOM     20  H   BDP d 216      22.877  -9.711 102.195  0.00  0.00     0.094 H 
ATOM     21  O4  ASG d 217      21.932 -16.258  98.689  0.00  0.00    -0.246 OA
ATOM     22  O7  ASG d 217      25.837 -16.637 100.954  0.00  0.00    -0.274 OA
ATOM     23  O1  ASG d 217      24.409 -13.275 100.939  0.00  0.00    -0.348 OA
ATOM     24  C5  ASG d 217      21.952 -13.864  98.149  0.00  0.00     0.090 C 
ATOM     25  C1  ASG d 217      23.925 -13.634  99.655  0.00  0.00     0.154 C 
ATOM     26  C6  ASG d 217      20.414 -13.596  97.966  0.00  0.00     0.043 C 
ATOM     27  OSA ASG d 217      21.442 -17.849  96.768  0.00  0.00    -0.572 OA
ATOM     28  C3  ASG d 217      23.957 -15.279  97.720  0.00  0.00     0.094 C 
ATOM     29  C7  ASG d 217      26.537 -15.934 100.311  0.00  0.00     0.214 C 
ATOM     30  C2  ASG d 217      24.507 -14.978  99.109  0.00  0.00     0.087 C 
ATOM     31  O5  ASG d 217      22.434 -13.602  99.522  0.00  0.00    -0.349 OA
ATOM     32  OSB ASG d 217      19.632 -17.176  98.198  0.00  0.00    -0.572 OA
ATOM     33  OSC ASG d 217      21.333 -18.676  98.991  0.00  0.00    -0.572 OA
ATOM     34  C8  ASG d 217      28.066 -16.077 100.425  0.00  0.00    -0.003 C 
ATOM     35  S   ASG d 217      21.045 -17.529  98.139  0.00  0.00     0.252 S 
ATOM     36  O6  ASG d 217      20.002 -12.288  97.592  0.00  0.00    -0.398 OA
ATOM     37  C4  ASG d 217      22.431 -15.299  97.771  0.00  0.00     0.114 C 
ATOM     38  N   ASG d 217      25.966 -15.089  99.268  0.00  0.00    -0.349 N 
ATOM     39  H   ASG d 217      22.374 -13.167  97.454  0.00  0.00     0.090 H 
ATOM     40  H   ASG d 217      24.303 -12.852  99.030  0.00  0.00     0.132 H 
ATOM     41  H   ASG d 217      19.939 -13.824  98.897  0.00  0.00     0.078 H 
ATOM     42  H   ASG d 217      20.134 -14.210  97.135  0.00  0.00     0.078 H 
ATOM     43  H   ASG d 217      24.371 -14.562  97.043  0.00  0.00     0.091 H 
ATOM     44  H   ASG d 217      24.156 -15.778  99.727  0.00  0.00     0.084 H 
ATOM     45  H   ASG d 217      28.303 -16.730 101.239  0.00  0.00     0.040 H 
ATOM     46  H   ASG d 217      28.502 -15.116 100.599  0.00  0.00     0.040 H 
ATOM     47  H   ASG d 217      28.454 -16.486  99.515  0.00  0.00     0.040 H 
ATOM     48  H   ASG d 217      20.223 -11.664  98.301  0.00  0.00     0.209 HD
ATOM     49  H   ASG d 217      22.050 -15.588  96.813  0.00  0.00     0.093 H 
ATOM     50  H   ASG d 217      26.563 -14.588  98.666  0.00  0.00     0.163 HD
ATOM     51  C6  BDP d 218      25.368 -16.045  92.846  0.00  0.00     0.206 C 
ATOM     52  O3  BDP d 218      27.194 -19.793  95.443  0.00  0.00    -0.390 OA
ATOM     53  C1  BDP d 218      25.259 -16.786  96.477  0.00  0.00     0.160 C 
ATOM     54  C2  BDP d 218      25.720 -18.241  96.475  0.00  0.00     0.110 C 
ATOM     55  O6A BDP d 218      25.918 -15.030  92.362  0.00  0.00    -0.646 OA
ATOM     56  O1  BDP d 218      24.223 -16.612  97.424  0.00  0.00    -0.348 OA
ATOM     57  C3  BDP d 218      26.839 -18.432  95.467  0.00  0.00     0.092 C 
ATOM     58  O5  BDP d 218      24.808 -16.476  95.172  0.00  0.00    -0.340 OA
ATOM     59  C5  BDP d 218      25.847 -16.544  94.208  0.00  0.00     0.152 C 
ATOM     60  C4  BDP d 218      26.369 -17.973  94.091  0.00  0.00     0.103 C 
ATOM     61  O2  BDP d 218      26.172 -18.629  97.753  0.00  0.00    -0.388 OA
ATOM     62  O6B BDP d 218      24.462 -16.684  92.267  0.00  0.00    -0.646 OA
ATOM     63  H   BDP d 218      27.490 -20.066  96.326  0.00  0.00     0.210 HD
ATOM     64  H   BDP d 218      26.062 -16.132  96.747  0.00  0.00     0.133 H 
ATOM     65  H   BDP d 218      24.884 -18.853  96.205  0.00  0.00     0.094 H 
ATOM     66  H   BDP d 218      27.694 -17.851  95.744  0.00  0.00     0.091 H 
ATOM     67  H   BDP d 218      26.643 -15.908  94.535  0.00  0.00     0.104 H 
ATOM     68  H   BDP d 218      25.680 -18.705  93.724  0.00  0.00     0.092 H 
ATOM     69  H   BDP d 218      26.931 -18.080  98.007  0.00  0.00     0.210 HD
ATOM     70  O4  ASG d 221      28.330 -12.556  81.133  0.00  0.00    -0.249 OA
ATOM     71  OSB ASG d 221      27.603 -10.140  81.499  0.00  0.00    -0.572 OA
ATOM     72  OSC ASG d 221      29.679 -10.523  80.380  0.00  0.00    -0.572 OA
ATOM     73  C2  ASG d 221      28.006 -15.222  81.832  0.00  0.00     0.062 C 
ATOM     74  C1  ASG d 221      29.052 -15.172  82.999  0.00  0.00     0.151 C 
ATOM     75  C3  ASG d 221      28.647 -14.872  80.506  0.00  0.00    -0.014 C 
ATOM     76  O7  ASG d 221      26.245 -16.066  79.718  0.00  0.00    -0.274 OA
ATOM     77  C7  ASG d 221      26.495 -16.856  80.562  0.00  0.00     0.214 C 
ATOM     78  O6  ASG d 221      32.713 -12.753  82.333  0.00  0.00    -0.398 OA
ATOM     79  O1  ASG d 221      28.478 -15.286  84.298  0.00  0.00    -0.348 OA
ATOM     80  C5  ASG d 221      30.501 -13.757  81.494  0.00  0.00     0.088 C 
ATOM     81  C4  ASG d 221      29.254 -13.495  80.607  0.00  0.00     0.089 C 
ATOM     82  OSA ASG d 221      29.474 -10.928  82.727  0.00  0.00    -0.572 OA
ATOM     83  S   ASG d 221      28.786 -10.995  81.439  0.00  0.00     0.252 S 
ATOM     84  O5  ASG d 221      30.005 -14.020  82.863  0.00  0.00    -0.349 OA
ATOM     85  C8  ASG d 221      25.872 -18.260  80.488  0.00  0.00    -0.003 C 
ATOM     86  C6  ASG d 221      31.683 -12.729  81.356  0.00  0.00     0.043 C 
ATOM     87  N   ASG d 221      27.200 -16.454  81.779  0.00  0.00    -0.352 N 
ATOM     88  H   ASG d 221      27.286 -14.462  82.054  0.00  0.00     0.080 H 
ATOM     89  H   ASG d 221      29.640 -16.060  82.895  0.00  0.00     0.132 H 
ATOM     90  H   ASG d 221      27.905 -14.882  79.734  0.00  0.00     0.040 H 
ATOM     91  H   ASG d 221      29.407 -15.588  80.269  0.00  0.00     0.040 H 
ATOM     92  H   ASG d 221      33.371 -12.072  82.126  0.00  0.00     0.209 HD
ATOM     93  H   ASG d 221      31.019 -14.623  81.136  0.00  0.00     0.090 H 
ATOM     94  H   ASG d 221      29.520 -13.047  79.674  0.00  0.00     0.089 H 
ATOM     95  H   ASG d 221      25.398 -18.391  79.537  0.00  0.00     0.040 H 
ATOM     96  H   ASG d 221      25.146 -18.370  81.266  0.00  0.00     0.040 H 
ATOM     97  H   ASG d 221      26.638 -18.997  80.609  0.00  0.00     0.040 H 
ATOM     98  H   ASG d 221      32.144 -12.902  80.406  0.00  0.00     0.078 H 
ATOM     99  H   ASG d 221      31.218 -11.774  81.484  0.00  0.00     0.078 H 
ATOM    100  H   ASG d 221      27.134 -17.021  82.581  0.00  0.00     0.163 HD
ATOM    101  O5  BDP d 220      28.528 -17.887  86.689  0.00  0.00    -0.340 OA
ATOM    102  C5  BDP d 220      28.010 -16.996  85.721  0.00  0.00     0.152 C 
ATOM    103  C6  BDP d 220      27.245 -17.764  84.647  0.00  0.00     0.206 C 
ATOM    104  C1  BDP d 220      28.956 -17.197  87.844  0.00  0.00     0.160 C 
ATOM    105  C3  BDP d 220      29.817 -15.387  86.252  0.00  0.00     0.092 C 
ATOM    106  O2  BDP d 220      30.467 -15.496  88.576  0.00  0.00    -0.388 OA
ATOM    107  O6B BDP d 220      27.847 -18.670  84.022  0.00  0.00    -0.646 OA
ATOM    108  C2  BDP d 220      30.117 -16.285  87.460  0.00  0.00     0.110 C 
ATOM    109  O3  BDP d 220      31.022 -14.814  85.776  0.00  0.00    -0.390 OA
ATOM    110  O1  BDP d 220      29.395 -18.112  88.838  0.00  0.00    -0.348 OA
ATOM    111  O6A BDP d 220      26.048 -17.443  84.445  0.00  0.00    -0.646 OA
ATOM    112  C4  BDP d 220      29.149 -16.175  85.125  0.00  0.00     0.103 C 
ATOM    113  H   BDP d 220      27.319 -16.324  86.185  0.00  0.00     0.104 H 
ATOM    114  H   BDP d 220      28.140 -16.628  88.238  0.00  0.00     0.133 H 
ATOM    115  H   BDP d 220      29.144 -14.617  86.569  0.00  0.00     0.091 H 
ATOM    116  H   BDP d 220      30.654 -16.074  89.332  0.00  0.00     0.210 HD
ATOM    117  H   BDP d 220      30.932 -16.913  87.165  0.00  0.00     0.094 H 
ATOM    118  H   BDP d 220      31.625 -15.519  85.491  0.00  0.00     0.210 HD
ATOM    119  H   BDP d 220      29.896 -16.756  84.624  0.00  0.00     0.092 H 
ATOM    120  OSC ASG d 219      31.950 -21.799  90.782  0.00  0.00    -0.572 OA
ATOM    121  C5  ASG d 219      27.474 -20.551  90.836  0.00  0.00     0.090 C 
ATOM    122  C3  ASG d 219      28.380 -18.547  89.682  0.00  0.00     0.094 C 
ATOM    123  C6  ASG d 219      27.440 -22.112  90.964  0.00  0.00     0.043 C 
ATOM    124  C7  ASG d 219      29.257 -15.411  91.573  0.00  0.00     0.214 C 
ATOM    125  C4  ASG d 219      28.631 -20.025  89.944  0.00  0.00     0.114 C 
ATOM    126  S   ASG d 219      30.851 -21.501  89.866  0.00  0.00     0.252 S 
ATOM    127  C8  ASG d 219      29.060 -13.882  91.524  0.00  0.00    -0.003 C 
ATOM    128  O7  ASG d 219      30.120 -15.872  92.234  0.00  0.00    -0.274 OA
ATOM    129  O6  ASG d 219      26.548 -22.702  91.898  0.00  0.00    -0.398 OA
ATOM    130  OSB ASG d 219      30.115 -22.749  89.675  0.00  0.00    -0.572 OA
ATOM    131  O1  ASG d 219      27.481 -17.719  93.305  0.00  0.00    -0.348 OA
ATOM    132  O4  ASG d 219      29.889 -20.323  90.527  0.00  0.00    -0.246 OA
ATOM    133  OSA ASG d 219      31.342 -20.966  88.594  0.00  0.00    -0.572 OA
ATOM    134  O5  ASG d 219      27.612 -19.860  92.136  0.00  0.00    -0.349 OA
ATOM    135  N   ASG d 219      28.368 -16.301  90.831  0.00  0.00    -0.349 N 
ATOM    136  C2  ASG d 219      28.448 -17.766  90.984  0.00  0.00     0.087 C 
ATOM    137  C1  ASG d 219      27.453 -18.370  92.042  0.00  0.00     0.154 C 
ATOM    138  H   ASG d 219      26.527 -20.331  90.389  0.00  0.00     0.090 H 
ATOM    139  H   ASG d 219      27.413 -18.400  89.248  0.00  0.00     0.091 H 
ATOM    140  H   ASG d 219      28.428 -22.428  91.229  0.00  0.00     0.078 H 
ATOM    141  H   ASG d 219      27.076 -22.442  90.014  0.00  0.00     0.078 H 
ATOM    142  H   ASG d 219      28.658 -20.517  88.994  0.00  0.00     0.093 H 
ATOM    143  H   ASG d 219      28.238 -13.649  90.880  0.00  0.00     0.040 H 
ATOM    144  H   ASG d 219      29.950 -13.420  91.150  0.00  0.00     0.040 H 
ATOM    145  H   ASG d 219      28.856 -13.517  92.509  0.00  0.00     0.040 H 
ATOM    146  H   ASG d 219      26.810 -22.451  92.798  0.00  0.00     0.209 HD
ATOM    147  H   ASG d 219      27.702 -15.916  90.217  0.00  0.00     0.163 HD
ATOM    148  H   ASG d 219      29.437 -17.894  91.372  0.00  0.00     0.084 H 
ATOM    149  H   ASG d 219      26.466 -18.175  91.680  0.00  0.00     0.132 H 
ENDROOT
TORSDOF 38
ENDMDL
MODEL 5
REMARK VINA RESULT:      -7.9      3.908      7.335
REMARK  0 active torsions:
REMARK  status: ('A' for Active; 'I' for Inactive)
REMARK       I    between atoms: C6_2  and  C5_55 
REMARK       I    between atoms: O4_3  and  C4_83 
REMARK       I    between atoms: O4_3  and  S_75 
REMARK       I    between atoms: C6_4  and  C5_67 
REMARK       I    between atoms: O4_5  and  C4_61 
REMARK       I    between atoms: O4_5  and  S_71 
REMARK       I    between atoms: O3_6  and  C3_32 
REMARK       I    between atoms: C1_8  and  O1_30 
REMARK       I    between atoms: C3_12  and  O3_62 
REMARK       I    between atoms: C5_13  and  C6_25 
REMARK       I    between atoms: O1_14  and  C4_39 
REMARK       I    between atoms: O1_14  and  C1_23 
REMARK       I    between atoms: C5_15  and  C6_27 
REMARK       I    between atoms: C5_18  and  C6_44 
REMARK       I    between atoms: C3_19  and  O1_82 
REMARK       I    between atoms: C2_20  and  N_89 
REMARK       I    between atoms: C2_21  and  O2_80 
REMARK       I    between atoms: C1_24  and  O1_45 
REMARK       I    between atoms: C6_25  and  O6_48 
REMARK       I    between atoms: C6_27  and  O6_77 
REMARK       I    between atoms: C7_28  and  C8_35 
REMARK       I    between atoms: C7_28  and  N_70 
REMARK       I    between atoms: O1_30  and  C3_43 
REMARK       I    between atoms: C4_33  and  O4_53 
REMARK       I    between atoms: S_34  and  O4_53 
REMARK       I    between atoms: O2_40  and  C2_87 
REMARK       I    between atoms: C7_41  and  C8_81 
REMARK       I    between atoms: C7_41  and  N_89 
REMARK       I    between atoms: O6_42  and  C6_88 
REMARK       I    between atoms: O1_45  and  C4_90 
REMARK       I    between atoms: C7_46  and  C8_69 
REMARK       I    between atoms: C7_46  and  N_85 
REMARK       I    between atoms: C2_47  and  N_85 
REMARK       I    between atoms: O1_50  and  C4_73 
REMARK       I    between atoms: O1_50  and  C1_76 
REMARK       I    between atoms: C1_52  and  O1_82 
REMARK       I    between atoms: C3_54  and  O3_72 
REMARK       I    between atoms: C5_57  and  C6_88 
REMARK       I    between atoms: O1_59  and  C1_78 
REMARK       I    between atoms: O2_63  and  C2_68 
REMARK       I    between atoms: N_70  and  C2_74 
ROOT
ATOM      1  O6B BDP d 216      23.173  -9.108  96.235  0.00  0.00    -0.646 OA
ATOM      2  C6  BDP d 216      23.612  -7.939  96.302  0.00  0.00     0.206 C 
ATOM      3  C3  BDP d 216      25.108  -7.883  99.870  0.00  0.00     0.092 C 
ATOM      4  O6A BDP d 216      23.773  -7.200  95.308  0.00  0.00    -0.646 OA
ATOM      5  O5  BDP d 216      22.774  -7.152  98.402  0.00  0.00    -0.340 OA
ATOM      6  C4  BDP d 216      24.885  -8.344  98.431  0.00  0.00     0.103 C 
ATOM      7  O2  BDP d 216      24.025  -6.908 101.785  0.00  0.00    -0.388 OA
ATOM      8  C5  BDP d 216      23.967  -7.380  97.676  0.00  0.00     0.152 C 
ATOM      9  O1  BDP d 216      21.797  -6.179 100.273  0.00  0.00    -0.368 OA
ATOM     10  O3  BDP d 216      25.733  -8.912 100.608  0.00  0.00    -0.390 OA
ATOM     11  C1  BDP d 216      23.015  -6.533  99.648  0.00  0.00     0.156 C 
ATOM     12  C2  BDP d 216      23.784  -7.506 100.532  0.00  0.00     0.110 C 
ATOM     13  H   BDP d 216      25.737  -7.018  99.855  0.00  0.00     0.091 H 
ATOM     14  H   BDP d 216      24.396  -9.296  98.421  0.00  0.00     0.092 H 
ATOM     15  H   BDP d 216      24.515  -7.527 102.350  0.00  0.00     0.210 HD
ATOM     16  H   BDP d 216      24.493  -6.455  97.560  0.00  0.00     0.104 H 
ATOM     17  H   BDP d 216      21.311  -5.560  99.707  0.00  0.00     0.212 HD
ATOM     18  H   BDP d 216      25.161  -9.696 100.619  0.00  0.00     0.210 HD
ATOM     19  H   BDP d 216      23.584  -5.639  99.497  0.00  0.00     0.133 H 
ATOM     20  H   BDP d 216      23.204  -8.394 100.668  0.00  0.00     0.094 H 
ATOM     21  O4  ASG d 217      29.281 -11.625  97.722  0.00  0.00    -0.246 OA
ATOM     22  O7  ASG d 217      29.035  -7.521  95.819  0.00  0.00    -0.274 OA
ATOM     23  O1  ASG d 217      26.123  -8.446  97.821  0.00  0.00    -0.348 OA
ATOM     24  C5  ASG d 217      26.899 -12.122  98.035  0.00  0.00     0.090 C 
ATOM     25  C1  ASG d 217      26.415  -9.764  97.388  0.00  0.00     0.154 C 
ATOM     26  C6  ASG d 217      26.973 -13.162  99.213  0.00  0.00     0.043 C 
ATOM     27  OSA ASG d 217      30.681 -13.434  96.613  0.00  0.00    -0.572 OA
ATOM     28  C3  ASG d 217      27.743 -11.284  95.847  0.00  0.00     0.094 C 
ATOM     29  C7  ASG d 217      28.112  -7.665  95.095  0.00  0.00     0.214 C 
ATOM     30  C2  ASG d 217      27.505  -9.840  96.271  0.00  0.00     0.087 C 
ATOM     31  O5  ASG d 217      26.712 -10.729  98.495  0.00  0.00    -0.349 OA
ATOM     32  OSB ASG d 217      30.636 -13.320  99.013  0.00  0.00    -0.572 OA
ATOM     33  OSC ASG d 217      31.790 -11.653  97.724  0.00  0.00    -0.572 OA
ATOM     34  C8  ASG d 217      27.911  -6.692  93.920  0.00  0.00    -0.003 C 
ATOM     35  S   ASG d 217      30.641 -12.548  97.776  0.00  0.00     0.252 S 
ATOM     36  O6  ASG d 217      25.759 -13.741  99.673  0.00  0.00    -0.398 OA
ATOM     37  C4  ASG d 217      28.123 -12.117  97.069  0.00  0.00     0.114 C 
ATOM     38  N   ASG d 217      27.294  -8.870  95.184  0.00  0.00    -0.349 N 
ATOM     39  H   ASG d 217      26.039 -12.469  97.500  0.00  0.00     0.090 H 
ATOM     40  H   ASG d 217      25.492 -10.081  96.948  0.00  0.00     0.132 H 
ATOM     41  H   ASG d 217      27.424 -12.665 100.047  0.00  0.00     0.078 H 
ATOM     42  H   ASG d 217      27.523 -13.985  98.806  0.00  0.00     0.078 H 
ATOM     43  H   ASG d 217      26.868 -11.622  95.332  0.00  0.00     0.091 H 
ATOM     44  H   ASG d 217      28.437  -9.513  96.681  0.00  0.00     0.084 H 
ATOM     45  H   ASG d 217      28.590  -5.871  94.016  0.00  0.00     0.040 H 
ATOM     46  H   ASG d 217      26.906  -6.326  93.928  0.00  0.00     0.040 H 
ATOM     47  H   ASG d 217      28.097  -7.203  92.998  0.00  0.00     0.040 H 
ATOM     48  H   ASG d 217      25.198 -13.051 100.060  0.00  0.00     0.209 HD
ATOM     49  H   ASG d 217      28.366 -13.112  96.756  0.00  0.00     0.093 H 
ATOM     50  H   ASG d 217      26.595  -9.036  94.511  0.00  0.00     0.163 HD
ATOM     51  C6  BDP d 218      27.524 -14.445  91.810  0.00  0.00     0.206 C 
ATOM     52  O3  BDP d 218      31.051 -11.167  90.838  0.00  0.00    -0.390 OA
ATOM     53  C1  BDP d 218      28.734 -11.514  93.730  0.00  0.00     0.160 C 
ATOM     54  C2  BDP d 218      30.030 -11.211  92.984  0.00  0.00     0.110 C 
ATOM     55  O6A BDP d 218      26.355 -14.554  91.375  0.00  0.00    -0.646 OA
ATOM     56  O1  BDP d 218      28.929 -11.337  95.120  0.00  0.00    -0.348 OA
ATOM     57  C3  BDP d 218      29.824 -11.389  91.490  0.00  0.00     0.092 C 
ATOM     58  O5  BDP d 218      28.371 -12.849  93.437  0.00  0.00    -0.340 OA
ATOM     59  C5  BDP d 218      28.070 -13.041  92.064  0.00  0.00     0.152 C 
ATOM     60  C4  BDP d 218      29.312 -12.798  91.212  0.00  0.00     0.103 C 
ATOM     61  O2  BDP d 218      30.464  -9.894  93.240  0.00  0.00    -0.388 OA
ATOM     62  O6B BDP d 218      28.275 -15.421  92.029  0.00  0.00    -0.646 OA
ATOM     63  H   BDP d 218      31.359 -10.267  91.027  0.00  0.00     0.210 HD
ATOM     64  H   BDP d 218      27.952 -10.850  93.424  0.00  0.00     0.133 H 
ATOM     65  H   BDP d 218      30.778 -11.894  93.328  0.00  0.00     0.094 H 
ATOM     66  H   BDP d 218      29.101 -10.689  91.127  0.00  0.00     0.091 H 
ATOM     67  H   BDP d 218      27.315 -12.335  91.789  0.00  0.00     0.104 H 
ATOM     68  H   BDP d 218      30.130 -13.473  91.353  0.00  0.00     0.092 H 
ATOM     69  H   BDP d 218      29.792  -9.266  92.931  0.00  0.00     0.210 HD
ATOM     70  O4  ASG d 221      21.958 -22.435  83.853  0.00  0.00    -0.249 OA
ATOM     71  OSB ASG d 221      19.845 -22.619  85.266  0.00  0.00    -0.572 OA
ATOM     72  OSC ASG d 221      19.588 -22.335  82.908  0.00  0.00    -0.572 OA
ATOM     73  C2  ASG d 221      24.694 -21.974  83.795  0.00  0.00     0.062 C 
ATOM     74  C1  ASG d 221      24.555 -20.421  83.638  0.00  0.00     0.151 C 
ATOM     75  C3  ASG d 221      24.037 -22.703  82.641  0.00  0.00    -0.014 C 
ATOM     76  O7  ASG d 221      25.642 -24.692  83.773  0.00  0.00    -0.274 OA
ATOM     77  C7  ASG d 221      26.455 -23.836  83.841  0.00  0.00     0.214 C 
ATOM     78  O6  ASG d 221      21.288 -18.934  81.027  0.00  0.00    -0.398 OA
ATOM     79  O1  ASG d 221      24.966 -19.683  84.785  0.00  0.00    -0.348 OA
ATOM     80  C5  ASG d 221      22.660 -20.862  82.032  0.00  0.00     0.088 C 
ATOM     81  C4  ASG d 221      22.582 -22.310  82.585  0.00  0.00     0.089 C 
ATOM     82  OSA ASG d 221      20.330 -20.520  84.274  0.00  0.00    -0.572 OA
ATOM     83  S   ASG d 221      20.387 -21.967  84.077  0.00  0.00     0.252 S 
ATOM     84  O5  ASG d 221      23.205 -20.018  83.117  0.00  0.00    -0.349 OA
ATOM     85  C8  ASG d 221      27.944 -24.214  83.918  0.00  0.00    -0.003 C 
ATOM     86  C6  ASG d 221      21.377 -20.326  81.296  0.00  0.00     0.043 C 
ATOM     87  N   ASG d 221      26.062 -22.446  84.073  0.00  0.00    -0.352 N 
ATOM     88  H   ASG d 221      24.156 -22.227  84.685  0.00  0.00     0.080 H 
ATOM     89  H   ASG d 221      25.261 -20.144  82.883  0.00  0.00     0.132 H 
ATOM     90  H   ASG d 221      24.118 -23.759  82.790  0.00  0.00     0.040 H 
ATOM     91  H   ASG d 221      24.520 -22.441  81.723  0.00  0.00     0.040 H 
ATOM     92  H   ASG d 221      20.452 -18.745  80.574  0.00  0.00     0.209 HD
ATOM     93  H   ASG d 221      23.328 -20.834  81.196  0.00  0.00     0.090 H 
ATOM     94  H   ASG d 221      21.967 -22.934  81.971  0.00  0.00     0.089 H 
ATOM     95  H   ASG d 221      28.056 -25.260  83.725  0.00  0.00     0.040 H 
ATOM     96  H   ASG d 221      28.319 -23.990  84.895  0.00  0.00     0.040 H 
ATOM     97  H   ASG d 221      28.493 -23.655  83.190  0.00  0.00     0.040 H 
ATOM     98  H   ASG d 221      21.314 -20.834  80.357  0.00  0.00     0.078 H 
ATOM     99  H   ASG d 221      20.581 -20.514  81.985  0.00  0.00     0.078 H 
ATOM    100  H   ASG d 221      26.727 -21.811  84.424  0.00  0.00     0.163 HD
ATOM    101  O5  BDP d 220      27.771 -17.624  85.398  0.00  0.00    -0.340 OA
ATOM    102  C5  BDP d 220      26.907 -18.738  85.498  0.00  0.00     0.152 C 
ATOM    103  C6  BDP d 220      27.686 -20.035  85.296  0.00  0.00     0.206 C 
ATOM    104  C1  BDP d 220      27.157 -16.452  85.889  0.00  0.00     0.160 C 
ATOM    105  C3  BDP d 220      25.005 -17.312  84.800  0.00  0.00     0.092 C 
ATOM    106  O2  BDP d 220      25.261 -15.033  85.559  0.00  0.00    -0.388 OA
ATOM    107  O6B BDP d 220      28.339 -20.177  84.234  0.00  0.00    -0.646 OA
ATOM    108  C2  BDP d 220      25.958 -16.126  85.002  0.00  0.00     0.110 C 
ATOM    109  O3  BDP d 220      24.112 -17.027  83.737  0.00  0.00    -0.390 OA
ATOM    110  O1  BDP d 220      28.065 -15.361  85.859  0.00  0.00    -0.348 OA
ATOM    111  O6A BDP d 220      27.627 -20.896  86.208  0.00  0.00    -0.646 OA
ATOM    112  C4  BDP d 220      25.774 -18.596  84.486  0.00  0.00     0.103 C 
ATOM    113  H   BDP d 220      26.479 -18.773  86.478  0.00  0.00     0.104 H 
ATOM    114  H   BDP d 220      26.848 -16.613  86.901  0.00  0.00     0.133 H 
ATOM    115  H   BDP d 220      24.461 -17.460  85.709  0.00  0.00     0.091 H 
ATOM    116  H   BDP d 220      25.872 -14.291  85.683  0.00  0.00     0.210 HD
ATOM    117  H   BDP d 220      26.337 -15.883  84.031  0.00  0.00     0.094 H 
ATOM    118  H   BDP d 220      24.616 -16.895  82.919  0.00  0.00     0.210 HD
ATOM    119  H   BDP d 220      26.097 -18.562  83.467  0.00  0.00     0.092 H 
ATOM    120  OSC ASG d 219      31.279 -12.201  83.965  0.00  0.00    -0.572 OA
ATOM    121  C5  ASG d 219      31.120 -14.758  87.842  0.00  0.00     0.090 C 
ATOM    122  C3  ASG d 219      28.829 -15.240  87.013  0.00  0.00     0.094 C 
ATOM    123  C6  ASG d 219      32.650 -14.629  87.528  0.00  0.00     0.043 C 
ATOM    124  C7  ASG d 219      25.847 -13.275  88.209  0.00  0.00     0.214 C 
ATOM    125  C4  ASG d 219      30.229 -14.840  86.573  0.00  0.00     0.114 C 
ATOM    126  S   ASG d 219      31.128 -13.590  84.395  0.00  0.00     0.252 S 
ATOM    127  C8  ASG d 219      24.412 -13.471  88.740  0.00  0.00    -0.003 C 
ATOM    128  O7  ASG d 219      26.177 -12.227  87.779  0.00  0.00    -0.274 OA
ATOM    129  O6  ASG d 219      33.547 -14.359  88.596  0.00  0.00    -0.398 OA
ATOM    130  OSB ASG d 219      32.478 -14.134  84.537  0.00  0.00    -0.572 OA
ATOM    131  O1  ASG d 219      28.708 -12.811  89.965  0.00  0.00    -0.348 OA
ATOM    132  O4  ASG d 219      30.301 -13.633  85.831  0.00  0.00    -0.246 OA
ATOM    133  OSA ASG d 219      30.334 -14.365  83.439  0.00  0.00    -0.572 OA
ATOM    134  O5  ASG d 219      30.590 -13.634  88.642  0.00  0.00    -0.349 OA
ATOM    135  N   ASG d 219      26.815 -14.368  88.258  0.00  0.00    -0.349 N 
ATOM    136  C2  ASG d 219      28.229 -14.156  87.894  0.00  0.00     0.087 C 
ATOM    137  C1  ASG d 219      29.179 -13.843  89.108  0.00  0.00     0.154 C 
ATOM    138  H   ASG d 219      31.070 -15.673  88.394  0.00  0.00     0.090 H 
ATOM    139  H   ASG d 219      28.855 -16.153  87.569  0.00  0.00     0.091 H 
ATOM    140  H   ASG d 219      32.760 -13.837  86.817  0.00  0.00     0.078 H 
ATOM    141  H   ASG d 219      32.929 -15.607  87.195  0.00  0.00     0.078 H 
ATOM    142  H   ASG d 219      30.575 -15.588  85.890  0.00  0.00     0.093 H 
ATOM    143  H   ASG d 219      24.295 -14.476  89.088  0.00  0.00     0.040 H 
ATOM    144  H   ASG d 219      23.712 -13.280  87.954  0.00  0.00     0.040 H 
ATOM    145  H   ASG d 219      24.235 -12.792  89.547  0.00  0.00     0.040 H 
ATOM    146  H   ASG d 219      33.360 -13.479  88.960  0.00  0.00     0.209 HD
ATOM    147  H   ASG d 219      26.518 -15.264  88.540  0.00  0.00     0.163 HD
ATOM    148  H   ASG d 219      28.173 -13.268  87.301  0.00  0.00     0.084 H 
ATOM    149  H   ASG d 219      29.172 -14.711  89.733  0.00  0.00     0.132 H 
ENDROOT
TORSDOF 38
ENDMDL
MODEL 6
REMARK VINA RESULT:      -7.8      4.036      7.414
REMARK  0 active torsions:
REMARK  status: ('A' for Active; 'I' for Inactive)
REMARK       I    between atoms: C6_2  and  C5_55 
REMARK       I    between atoms: O4_3  and  C4_83 
REMARK       I    between atoms: O4_3  and  S_75 
REMARK       I    between atoms: C6_4  and  C5_67 
REMARK       I    between atoms: O4_5  and  C4_61 
REMARK       I    between atoms: O4_5  and  S_71 
REMARK       I    between atoms: O3_6  and  C3_32 
REMARK       I    between atoms: C1_8  and  O1_30 
REMARK       I    between atoms: C3_12  and  O3_62 
REMARK       I    between atoms: C5_13  and  C6_25 
REMARK       I    between atoms: O1_14  and  C4_39 
REMARK       I    between atoms: O1_14  and  C1_23 
REMARK       I    between atoms: C5_15  and  C6_27 
REMARK       I    between atoms: C5_18  and  C6_44 
REMARK       I    between atoms: C3_19  and  O1_82 
REMARK       I    between atoms: C2_20  and  N_89 
REMARK       I    between atoms: C2_21  and  O2_80 
REMARK       I    between atoms: C1_24  and  O1_45 
REMARK       I    between atoms: C6_25  and  O6_48 
REMARK       I    between atoms: C6_27  and  O6_77 
REMARK       I    between atoms: C7_28  and  C8_35 
REMARK       I    between atoms: C7_28  and  N_70 
REMARK       I    between atoms: O1_30  and  C3_43 
REMARK       I    between atoms: C4_33  and  O4_53 
REMARK       I    between atoms: S_34  and  O4_53 
REMARK       I    between atoms: O2_40  and  C2_87 
REMARK       I    between atoms: C7_41  and  C8_81 
REMARK       I    between atoms: C7_41  and  N_89 
REMARK       I    between atoms: O6_42  and  C6_88 
REMARK       I    between atoms: O1_45  and  C4_90 
REMARK       I    between atoms: C7_46  and  C8_69 
REMARK       I    between atoms: C7_46  and  N_85 
REMARK       I    between atoms: C2_47  and  N_85 
REMARK       I    between atoms: O1_50  and  C4_73 
REMARK       I    between atoms: O1_50  and  C1_76 
REMARK       I    between atoms: C1_52  and  O1_82 
REMARK       I    between atoms: C3_54  and  O3_72 
REMARK       I    between atoms: C5_57  and  C6_88 
REMARK       I    between atoms: O1_59  and  C1_78 
REMARK       I    between atoms: O2_63  and  C2_68 
REMARK       I    between atoms: N_70  and  C2_74 
ROOT
ATOM      1  O6B BDP d 216      23.577  -8.814  94.310  0.00  0.00    -0.646 OA
ATOM      2  C6  BDP d 216      24.102  -7.683  94.391  0.00  0.00     0.206 C 
ATOM      3  C3  BDP d 216      25.310  -7.658  98.067  0.00  0.00     0.092 C 
ATOM      4  O6A BDP d 216      24.401  -6.984  93.400  0.00  0.00    -0.646 OA
ATOM      5  O5  BDP d 216      23.167  -6.780  96.402  0.00  0.00    -0.340 OA
ATOM      6  C4  BDP d 216      25.166  -8.135  96.623  0.00  0.00     0.103 C 
ATOM      7  O2  BDP d 216      24.162  -6.554  99.870  0.00  0.00    -0.388 OA
ATOM      8  C5  BDP d 216      24.391  -7.120  95.780  0.00  0.00     0.152 C 
ATOM      9  O1  BDP d 216      22.128  -5.687  98.170  0.00  0.00    -0.368 OA
ATOM     10  O3  BDP d 216      25.790  -8.716  98.871  0.00  0.00    -0.390 OA
ATOM     11  C1  BDP d 216      23.358  -6.152  97.652  0.00  0.00     0.156 C 
ATOM     12  C2  BDP d 216      23.973  -7.161  98.613  0.00  0.00     0.110 C 
ATOM     13  H   BDP d 216      26.007  -6.847  98.088  0.00  0.00     0.091 H 
ATOM     14  H   BDP d 216      24.603  -9.045  96.591  0.00  0.00     0.092 H 
ATOM     15  H   BDP d 216      24.553  -7.196 100.484  0.00  0.00     0.210 HD
ATOM     16  H   BDP d 216      24.999  -6.243  95.690  0.00  0.00     0.104 H 
ATOM     17  H   BDP d 216      21.740  -5.045  97.555  0.00  0.00     0.212 HD
ATOM     18  H   BDP d 216      25.156  -9.451  98.851  0.00  0.00     0.210 HD
ATOM     19  H   BDP d 216      24.009  -5.310  97.532  0.00  0.00     0.133 H 
ATOM     20  H   BDP d 216      23.314  -7.997  98.717  0.00  0.00     0.094 H 
ATOM     21  O4  ASG d 217      29.323 -11.772  96.332  0.00  0.00    -0.246 OA
ATOM     22  O7  ASG d 217      29.563  -7.709  94.342  0.00  0.00    -0.274 OA
ATOM     23  O1  ASG d 217      26.435  -8.350  96.118  0.00  0.00    -0.348 OA
ATOM     24  C5  ASG d 217      26.891 -12.070  96.460  0.00  0.00     0.090 C 
ATOM     25  C1  ASG d 217      26.653  -9.698  95.734  0.00  0.00     0.154 C 
ATOM     26  C6  ASG d 217      26.786 -13.083  97.658  0.00  0.00     0.043 C 
ATOM     27  OSA ASG d 217      30.654 -13.713  95.373  0.00  0.00    -0.572 OA
ATOM     28  C3  ASG d 217      27.971 -11.356  94.333  0.00  0.00     0.094 C 
ATOM     29  C7  ASG d 217      28.692  -7.797  93.549  0.00  0.00     0.214 C 
ATOM     30  C2  ASG d 217      27.818  -9.888  94.710  0.00  0.00     0.087 C 
ATOM     31  O5  ASG d 217      26.782 -10.655  96.878  0.00  0.00    -0.349 OA
ATOM     32  OSB ASG d 217      30.428 -13.537  97.759  0.00  0.00    -0.572 OA
ATOM     33  OSC ASG d 217      31.813 -12.000  96.538  0.00  0.00    -0.572 OA
ATOM     34  C8  ASG d 217      28.664  -6.840  92.343  0.00  0.00    -0.003 C 
ATOM     35  S   ASG d 217      30.595 -12.799  96.513  0.00  0.00     0.252 S 
ATOM     36  O6  ASG d 217      25.497 -13.553  98.029  0.00  0.00    -0.398 OA
ATOM     37  C4  ASG d 217      28.184 -12.186  95.596  0.00  0.00     0.114 C 
ATOM     38  N   ASG d 217      27.774  -8.931  93.592  0.00  0.00    -0.349 N 
ATOM     39  H   ASG d 217      26.051 -12.360  95.863  0.00  0.00     0.090 H 
ATOM     40  H   ASG d 217      25.745  -9.951  95.226  0.00  0.00     0.132 H 
ATOM     41  H   ASG d 217      27.209 -12.604  98.517  0.00  0.00     0.078 H 
ATOM     42  H   ASG d 217      27.298 -13.957  97.313  0.00  0.00     0.078 H 
ATOM     43  H   ASG d 217      27.115 -11.635  93.755  0.00  0.00     0.091 H 
ATOM     44  H   ASG d 217      28.739  -9.626  95.188  0.00  0.00     0.084 H 
ATOM     45  H   ASG d 217      29.398  -6.073  92.480  0.00  0.00     0.040 H 
ATOM     46  H   ASG d 217      27.695  -6.395  92.264  0.00  0.00     0.040 H 
ATOM     47  H   ASG d 217      28.881  -7.387  91.448  0.00  0.00     0.040 H 
ATOM     48  H   ASG d 217      24.965 -12.811  98.357  0.00  0.00     0.209 HD
ATOM     49  H   ASG d 217      28.369 -13.205  95.322  0.00  0.00     0.093 H 
ATOM     50  H   ASG d 217      27.119  -9.056  92.868  0.00  0.00     0.163 HD
ATOM     51  C6  BDP d 218      27.816 -14.587  90.349  0.00  0.00     0.206 C 
ATOM     52  O3  BDP d 218      31.664 -11.625  89.607  0.00  0.00    -0.390 OA
ATOM     53  C1  BDP d 218      29.104 -11.715  92.308  0.00  0.00     0.160 C 
ATOM     54  C2  BDP d 218      30.476 -11.535  91.663  0.00  0.00     0.110 C 
ATOM     55  O6A BDP d 218      26.681 -14.613  89.822  0.00  0.00    -0.646 OA
ATOM     56  O1  BDP d 218      29.202 -11.520  93.706  0.00  0.00    -0.348 OA
ATOM     57  C3  BDP d 218      30.376 -11.732  90.161  0.00  0.00     0.092 C 
ATOM     58  O5  BDP d 218      28.658 -13.024  92.010  0.00  0.00    -0.340 OA
ATOM     59  C5  BDP d 218      28.453 -13.225  90.621  0.00  0.00     0.152 C 
ATOM     60  C4  BDP d 218      29.775 -13.103  89.868  0.00  0.00     0.103 C 
ATOM     61  O2  BDP d 218      30.994 -10.251  91.931  0.00  0.00    -0.388 OA
ATOM     62  O6B BDP d 218      28.466 -15.614  90.646  0.00  0.00    -0.646 OA
ATOM     63  H   BDP d 218      32.029 -10.748  89.804  0.00  0.00     0.210 HD
ATOM     64  H   BDP d 218      28.406 -10.999  91.927  0.00  0.00     0.133 H 
ATOM     65  H   BDP d 218      31.136 -12.267  92.079  0.00  0.00     0.094 H 
ATOM     66  H   BDP d 218      29.743 -10.986  89.728  0.00  0.00     0.091 H 
ATOM     67  H   BDP d 218      27.783 -12.468  90.273  0.00  0.00     0.104 H 
ATOM     68  H   BDP d 218      30.521 -13.837  90.088  0.00  0.00     0.092 H 
ATOM     69  H   BDP d 218      30.402  -9.579  91.557  0.00  0.00     0.210 HD
ATOM     70  O4  ASG d 221      22.268 -22.301  82.112  0.00  0.00    -0.249 OA
ATOM     71  OSB ASG d 221      20.042 -22.282  83.352  0.00  0.00    -0.572 OA
ATOM     72  OSC ASG d 221      19.996 -22.036  80.976  0.00  0.00    -0.572 OA
ATOM     73  C2  ASG d 221      25.028 -22.061  82.267  0.00  0.00     0.062 C 
ATOM     74  C1  ASG d 221      25.029 -20.506  82.072  0.00  0.00     0.151 C 
ATOM     75  C3  ASG d 221      24.408 -22.763  81.078  0.00  0.00    -0.014 C 
ATOM     76  O7  ASG d 221      25.751 -24.845  82.372  0.00  0.00    -0.274 OA
ATOM     77  C7  ASG d 221      26.623 -24.055  82.489  0.00  0.00     0.214 C 
ATOM     78  O6  ASG d 221      22.111 -18.828  79.179  0.00  0.00    -0.398 OA
ATOM     79  O1  ASG d 221      25.406 -19.775  83.235  0.00  0.00    -0.348 OA
ATOM     80  C5  ASG d 221      23.238 -20.834  80.326  0.00  0.00     0.088 C 
ATOM     81  C4  ASG d 221      22.999 -22.257  80.897  0.00  0.00     0.089 C 
ATOM     82  OSA ASG d 221      20.773 -20.253  82.366  0.00  0.00    -0.572 OA
ATOM     83  S   ASG d 221      20.728 -21.704  82.199  0.00  0.00     0.252 S 
ATOM     84  O5  ASG d 221      23.762 -20.009  81.436  0.00  0.00    -0.349 OA
ATOM     85  C8  ASG d 221      28.066 -24.549  82.694  0.00  0.00    -0.003 C 
ATOM     86  C6  ASG d 221      22.066 -20.215  79.479  0.00  0.00     0.043 C 
ATOM     87  N   ASG d 221      26.327 -22.633  82.664  0.00  0.00    -0.352 N 
ATOM     88  H   ASG d 221      24.404 -22.248  83.115  0.00  0.00     0.080 H 
ATOM     89  H   ASG d 221      25.813 -20.305  81.372  0.00  0.00     0.132 H 
ATOM     90  H   ASG d 221      24.391 -23.819  81.252  0.00  0.00     0.040 H 
ATOM     91  H   ASG d 221      24.982 -22.563  80.197  0.00  0.00     0.040 H 
ATOM     92  H   ASG d 221      21.332 -18.584  78.656  0.00  0.00     0.209 HD
ATOM     93  H   ASG d 221      23.970 -20.879  79.546  0.00  0.00     0.090 H 
ATOM     94  H   ASG d 221      22.386 -22.845  80.247  0.00  0.00     0.089 H 
ATOM     95  H   ASG d 221      28.108 -25.605  82.529  0.00  0.00     0.040 H 
ATOM     96  H   ASG d 221      28.379 -24.331  83.694  0.00  0.00     0.040 H 
ATOM     97  H   ASG d 221      28.714 -24.053  82.003  0.00  0.00     0.040 H 
ATOM     98  H   ASG d 221      22.036 -20.740  78.547  0.00  0.00     0.078 H 
ATOM     99  H   ASG d 221      21.204 -20.322  80.105  0.00  0.00     0.078 H 
ATOM    100  H   ASG d 221      27.012 -22.045  83.057  0.00  0.00     0.163 HD
ATOM    101  O5  BDP d 220      28.312 -17.931  84.036  0.00  0.00    -0.340 OA
ATOM    102  C5  BDP d 220      27.355 -18.970  84.086  0.00  0.00     0.152 C 
ATOM    103  C6  BDP d 220      28.039 -20.330  83.971  0.00  0.00     0.206 C 
ATOM    104  C1  BDP d 220      27.758 -16.703  84.455  0.00  0.00     0.160 C 
ATOM    105  C3  BDP d 220      25.637 -17.415  83.211  0.00  0.00     0.092 C 
ATOM    106  O2  BDP d 220      26.016 -15.146  83.947  0.00  0.00    -0.388 OA
ATOM    107  O6B BDP d 220      28.761 -20.549  82.969  0.00  0.00    -0.646 OA
ATOM    108  C2  BDP d 220      26.664 -16.304  83.468  0.00  0.00     0.110 C 
ATOM    109  O3  BDP d 220      24.857 -17.086  82.074  0.00  0.00    -0.390 OA
ATOM    110  O1  BDP d 220      28.752 -15.689  84.478  0.00  0.00    -0.348 OA
ATOM    111  O6A BDP d 220      27.839 -21.161  84.891  0.00  0.00    -0.646 OA
ATOM    112  C4  BDP d 220      26.322 -18.764  82.983  0.00  0.00     0.103 C 
ATOM    113  H   BDP d 220      26.850 -18.948  85.028  0.00  0.00     0.104 H 
ATOM    114  H   BDP d 220      27.358 -16.814  85.441  0.00  0.00     0.133 H 
ATOM    115  H   BDP d 220      25.012 -17.497  84.075  0.00  0.00     0.091 H 
ATOM    116  H   BDP d 220      26.674 -14.451  84.107  0.00  0.00     0.210 HD
ATOM    117  H   BDP d 220      27.137 -16.116  82.527  0.00  0.00     0.094 H 
ATOM    118  H   BDP d 220      25.434 -17.015  81.297  0.00  0.00     0.210 HD
ATOM    119  H   BDP d 220      26.726 -18.780  81.993  0.00  0.00     0.092 H 
ATOM    120  OSC ASG d 219      32.352 -12.842  82.795  0.00  0.00    -0.572 OA
ATOM    121  C5  ASG d 219      31.679 -15.282  86.692  0.00  0.00     0.090 C 
ATOM    122  C3  ASG d 219      29.429 -15.600  85.689  0.00  0.00     0.094 C 
ATOM    123  C6  ASG d 219      33.234 -15.283  86.500  0.00  0.00     0.043 C 
ATOM    124  C7  ASG d 219      26.531 -13.376  86.603  0.00  0.00     0.214 C 
ATOM    125  C4  ASG d 219      30.888 -15.324  85.356  0.00  0.00     0.114 C 
ATOM    126  S   ASG d 219      32.055 -14.203  83.236  0.00  0.00     0.252 S 
ATOM    127  C8  ASG d 219      25.048 -13.444  87.020  0.00  0.00    -0.003 C 
ATOM    128  O7  ASG d 219      26.979 -12.368  86.183  0.00  0.00    -0.274 OA
ATOM    129  O6  ASG d 219      34.062 -15.060  87.632  0.00  0.00    -0.398 OA
ATOM    130  OSB ASG d 219      33.341 -14.849  83.497  0.00  0.00    -0.572 OA
ATOM    131  O1  ASG d 219      29.272 -13.098  88.577  0.00  0.00    -0.348 OA
ATOM    132  O4  ASG d 219      31.116 -14.145  84.601  0.00  0.00    -0.246 OA
ATOM    133  OSA ASG d 219      31.279 -14.935  82.233  0.00  0.00    -0.572 OA
ATOM    134  O5  ASG d 219      31.180 -14.100  87.426  0.00  0.00    -0.349 OA
ATOM    135  N   ASG d 219      27.400 -14.541  86.751  0.00  0.00    -0.349 N 
ATOM    136  C2  ASG d 219      28.851 -14.451  86.498  0.00  0.00     0.087 C 
ATOM    137  C1  ASG d 219      29.724 -14.185  87.780  0.00  0.00     0.154 C 
ATOM    138  H   ASG d 219      31.511 -16.176  87.254  0.00  0.00     0.090 H 
ATOM    139  H   ASG d 219      29.336 -16.499  86.262  0.00  0.00     0.091 H 
ATOM    140  H   ASG d 219      33.464 -14.520  85.786  0.00  0.00     0.078 H 
ATOM    141  H   ASG d 219      33.458 -16.288  86.209  0.00  0.00     0.078 H 
ATOM    142  H   ASG d 219      31.224 -16.114  84.718  0.00  0.00     0.093 H 
ATOM    143  H   ASG d 219      24.822 -14.428  87.375  0.00  0.00     0.040 H 
ATOM    144  H   ASG d 219      24.430 -13.217  86.176  0.00  0.00     0.040 H 
ATOM    145  H   ASG d 219      24.863 -12.733  87.798  0.00  0.00     0.040 H 
ATOM    146  H   ASG d 219      33.920 -14.159  87.964  0.00  0.00     0.209 HD
ATOM    147  H   ASG d 219      27.010 -15.403  87.023  0.00  0.00     0.163 HD
ATOM    148  H   ASG d 219      28.915 -13.576  85.886  0.00  0.00     0.084 H 
ATOM    149  H   ASG d 219      29.597 -15.034  88.417  0.00  0.00     0.132 H 
ENDROOT
TORSDOF 38
ENDMDL
MODEL 7
REMARK VINA RESULT:      -7.6      2.875      3.573
REMARK  0 active torsions:
REMARK  status: ('A' for Active; 'I' for Inactive)
REMARK       I    between atoms: C6_2  and  C5_55 
REMARK       I    between atoms: O4_3  and  C4_83 
REMARK       I    between atoms: O4_3  and  S_75 
REMARK       I    between atoms: C6_4  and  C5_67 
REMARK       I    between atoms: O4_5  and  C4_61 
REMARK       I    between atoms: O4_5  and  S_71 
REMARK       I    between atoms: O3_6  and  C3_32 
REMARK       I    between atoms: C1_8  and  O1_30 
REMARK       I    between atoms: C3_12  and  O3_62 
REMARK       I    between atoms: C5_13  and  C6_25 
REMARK       I    between atoms: O1_14  and  C4_39 
REMARK       I    between atoms: O1_14  and  C1_23 
REMARK       I    between atoms: C5_15  and  C6_27 
REMARK       I    between atoms: C5_18  and  C6_44 
REMARK       I    between atoms: C3_19  and  O1_82 
REMARK       I    between atoms: C2_20  and  N_89 
REMARK       I    between atoms: C2_21  and  O2_80 
REMARK       I    between atoms: C1_24  and  O1_45 
REMARK       I    between atoms: C6_25  and  O6_48 
REMARK       I    between atoms: C6_27  and  O6_77 
REMARK       I    between atoms: C7_28  and  C8_35 
REMARK       I    between atoms: C7_28  and  N_70 
REMARK       I    between atoms: O1_30  and  C3_43 
REMARK       I    between atoms: C4_33  and  O4_53 
REMARK       I    between atoms: S_34  and  O4_53 
REMARK       I    between atoms: O2_40  and  C2_87 
REMARK       I    between atoms: C7_41  and  C8_81 
REMARK       I    between atoms: C7_41  and  N_89 
REMARK       I    between atoms: O6_42  and  C6_88 
REMARK       I    between atoms: O1_45  and  C4_90 
REMARK       I    between atoms: C7_46  and  C8_69 
REMARK       I    between atoms: C7_46  and  N_85 
REMARK       I    between atoms: C2_47  and  N_85 
REMARK       I    between atoms: O1_50  and  C4_73 
REMARK       I    between atoms: O1_50  and  C1_76 
REMARK       I    between atoms: C1_52  and  O1_82 
REMARK       I    between atoms: C3_54  and  O3_72 
REMARK       I    between atoms: C5_57  and  C6_88 
REMARK       I    between atoms: O1_59  and  C1_78 
REMARK       I    between atoms: O2_63  and  C2_68 
REMARK       I    between atoms: N_70  and  C2_74 
ROOT
ATOM      1  O6B BDP d 216      28.907 -12.069  98.732  0.00  0.00    -0.646 OA
ATOM      2  C6  BDP d 216      29.229 -12.981  99.524  0.00  0.00     0.206 C 
ATOM      3  C3  BDP d 216      26.204 -13.005 101.937  0.00  0.00     0.092 C 
ATOM      4  O6A BDP d 216      30.132 -13.813  99.295  0.00  0.00    -0.646 OA
ATOM      5  O5  BDP d 216      28.861 -12.000 101.678  0.00  0.00    -0.340 OA
ATOM      6  C4  BDP d 216      26.967 -13.081 100.616  0.00  0.00     0.103 C 
ATOM      7  O2  BDP d 216      26.193 -11.985 104.116  0.00  0.00    -0.388 OA
ATOM      8  C5  BDP d 216      28.480 -13.083 100.850  0.00  0.00     0.152 C 
ATOM      9  O1  BDP d 216      28.813 -11.078 103.810  0.00  0.00    -0.368 OA
ATOM     10  O3  BDP d 216      24.840 -12.743 101.684  0.00  0.00    -0.390 OA
ATOM     11  C1  BDP d 216      28.289 -12.084 102.965  0.00  0.00     0.156 C 
ATOM     12  C2  BDP d 216      26.781 -11.915 102.838  0.00  0.00     0.110 C 
ATOM     13  H   BDP d 216      26.302 -13.945 102.439  0.00  0.00     0.091 H 
ATOM     14  H   BDP d 216      26.755 -12.218 100.020  0.00  0.00     0.092 H 
ATOM     15  H   BDP d 216      25.232 -11.877 104.037  0.00  0.00     0.210 HD
ATOM     16  H   BDP d 216      28.732 -14.004 101.332  0.00  0.00     0.104 H 
ATOM     17  H   BDP d 216      29.773 -11.190 103.888  0.00  0.00     0.212 HD
ATOM     18  H   BDP d 216      24.754 -11.891 101.229  0.00  0.00     0.210 HD
ATOM     19  H   BDP d 216      28.520 -13.036 103.397  0.00  0.00     0.133 H 
ATOM     20  H   BDP d 216      26.567 -10.962 102.400  0.00  0.00     0.094 H 
ATOM     21  O4  ASG d 217      23.069 -15.190  97.308  0.00  0.00    -0.246 OA
ATOM     22  O7  ASG d 217      26.553 -17.683  98.781  0.00  0.00    -0.274 OA
ATOM     23  O1  ASG d 217      26.556 -14.223  99.953  0.00  0.00    -0.348 OA
ATOM     24  C5  ASG d 217      24.016 -12.934  97.493  0.00  0.00     0.090 C 
ATOM     25  C1  ASG d 217      25.948 -13.943  98.703  0.00  0.00     0.154 C 
ATOM     26  C6  ASG d 217      22.703 -12.078  97.619  0.00  0.00     0.043 C 
ATOM     27  OSA ASG d 217      21.959 -15.776  95.098  0.00  0.00    -0.572 OA
ATOM     28  C3  ASG d 217      25.297 -14.762  96.389  0.00  0.00     0.094 C 
ATOM     29  C7  ASG d 217      27.460 -17.117  98.278  0.00  0.00     0.214 C 
ATOM     30  C2  ASG d 217      25.946 -15.150  97.711  0.00  0.00     0.087 C 
ATOM     31  O5  ASG d 217      24.586 -13.327  98.800  0.00  0.00    -0.349 OA
ATOM     32  OSB ASG d 217      20.584 -14.991  96.905  0.00  0.00    -0.572 OA
ATOM     33  OSC ASG d 217      21.575 -17.179  96.974  0.00  0.00    -0.572 OA
ATOM     34  C8  ASG d 217      28.813 -17.838  98.125  0.00  0.00    -0.003 C 
ATOM     35  S   ASG d 217      21.744 -15.797  96.544  0.00  0.00     0.252 S 
ATOM     36  O6  ASG d 217      22.829 -10.666  97.706  0.00  0.00    -0.398 OA
ATOM     37  C4  ASG d 217      23.886 -14.238  96.648  0.00  0.00     0.114 C 
ATOM     38  N   ASG d 217      27.248 -15.832  97.620  0.00  0.00    -0.349 N 
ATOM     39  H   ASG d 217      24.664 -12.255  96.980  0.00  0.00     0.090 H 
ATOM     40  H   ASG d 217      26.590 -13.196  98.286  0.00  0.00     0.132 H 
ATOM     41  H   ASG d 217      22.192 -12.406  98.500  0.00  0.00     0.078 H 
ATOM     42  H   ASG d 217      22.189 -12.243  96.694  0.00  0.00     0.078 H 
ATOM     43  H   ASG d 217      25.947 -14.067  95.898  0.00  0.00     0.091 H 
ATOM     44  H   ASG d 217      25.321 -15.921  98.112  0.00  0.00     0.084 H 
ATOM     45  H   ASG d 217      28.790 -18.758  98.671  0.00  0.00     0.040 H 
ATOM     46  H   ASG d 217      29.593 -17.215  98.508  0.00  0.00     0.040 H 
ATOM     47  H   ASG d 217      28.993 -18.041  97.090  0.00  0.00     0.040 H 
ATOM     48  H   ASG d 217      23.290 -10.432  98.527  0.00  0.00     0.209 HD
ATOM     49  H   ASG d 217      23.406 -14.040  95.712  0.00  0.00     0.093 H 
ATOM     50  H   ASG d 217      27.982 -15.417  97.112  0.00  0.00     0.163 HD
ATOM     51  C6  BDP d 218      26.207 -14.363  91.354  0.00  0.00     0.206 C 
ATOM     52  O3  BDP d 218      26.464 -19.144  92.454  0.00  0.00    -0.390 OA
ATOM     53  C1  BDP d 218      25.882 -16.149  94.586  0.00  0.00     0.160 C 
ATOM     54  C2  BDP d 218      25.735 -17.586  94.093  0.00  0.00     0.110 C 
ATOM     55  O6A BDP d 218      27.102 -13.522  91.113  0.00  0.00    -0.646 OA
ATOM     56  O1  BDP d 218      25.014 -15.926  95.681  0.00  0.00    -0.348 OA
ATOM     57  C3  BDP d 218      26.671 -17.835  92.925  0.00  0.00     0.092 C 
ATOM     58  O5  BDP d 218      25.565 -15.290  93.508  0.00  0.00    -0.340 OA
ATOM     59  C5  BDP d 218      26.476 -15.416  92.428  0.00  0.00     0.152 C 
ATOM     60  C4  BDP d 218      26.394 -16.815  91.825  0.00  0.00     0.103 C 
ATOM     61  O2  BDP d 218      26.022 -18.504  95.125  0.00  0.00    -0.388 OA
ATOM     62  O6B BDP d 218      25.112 -14.402  90.749  0.00  0.00    -0.646 OA
ATOM     63  H   BDP d 218      26.646 -19.776  93.167  0.00  0.00     0.210 HD
ATOM     64  H   BDP d 218      26.881 -15.960  94.918  0.00  0.00     0.133 H 
ATOM     65  H   BDP d 218      24.721 -17.726  93.779  0.00  0.00     0.094 H 
ATOM     66  H   BDP d 218      27.690 -17.729  93.234  0.00  0.00     0.091 H 
ATOM     67  H   BDP d 218      27.463 -15.258  92.809  0.00  0.00     0.104 H 
ATOM     68  H   BDP d 218      25.467 -17.083  91.362  0.00  0.00     0.092 H 
ATOM     69  H   BDP d 218      26.940 -18.386  95.417  0.00  0.00     0.210 HD
ATOM     70  O4  ASG d 221      30.086  -8.599  80.872  0.00  0.00    -0.249 OA
ATOM     71  OSB ASG d 221      30.371  -6.346  82.027  0.00  0.00    -0.572 OA
ATOM     72  OSC ASG d 221      32.111  -7.074  80.560  0.00  0.00    -0.572 OA
ATOM     73  C2  ASG d 221      28.756 -11.034  80.801  0.00  0.00     0.062 C 
ATOM     74  C1  ASG d 221      29.758 -11.751  81.769  0.00  0.00     0.151 C 
ATOM     75  C3  ASG d 221      29.459 -10.532  79.557  0.00  0.00    -0.014 C 
ATOM     76  O7  ASG d 221      26.767 -10.440  78.807  0.00  0.00    -0.274 OA
ATOM     77  C7  ASG d 221      26.702 -11.495  79.339  0.00  0.00     0.214 C 
ATOM     78  O6  ASG d 221      34.062 -10.763  81.322  0.00  0.00    -0.398 OA
ATOM     79  O1  ASG d 221      29.210 -12.063  83.046  0.00  0.00    -0.348 OA
ATOM     80  C5  ASG d 221      31.619 -10.558  80.552  0.00  0.00     0.088 C 
ATOM     81  C4  ASG d 221      30.558  -9.586  79.968  0.00  0.00     0.089 C 
ATOM     82  OSA ASG d 221      31.805  -8.115  82.690  0.00  0.00    -0.572 OA
ATOM     83  S   ASG d 221      31.123  -7.504  81.551  0.00  0.00     0.252 S 
ATOM     84  O5  ASG d 221      31.085 -11.050  81.841  0.00  0.00    -0.349 OA
ATOM     85  C8  ASG d 221      25.577 -12.469  78.948  0.00  0.00    -0.003 C 
ATOM     86  C6  ASG d 221      33.106 -10.048  80.552  0.00  0.00     0.043 C 
ATOM     87  N   ASG d 221      27.530 -11.797  80.506  0.00  0.00    -0.352 N 
ATOM     88  H   ASG d 221      28.396 -10.180  81.335  0.00  0.00     0.080 H 
ATOM     89  H   ASG d 221      29.950 -12.707  81.327  0.00  0.00     0.132 H 
ATOM     90  H   ASG d 221      28.758 -10.020  78.931  0.00  0.00     0.040 H 
ATOM     91  H   ASG d 221      29.873 -11.357  79.016  0.00  0.00     0.040 H 
ATOM     92  H   ASG d 221      34.931 -10.341  81.231  0.00  0.00     0.209 HD
ATOM     93  H   ASG d 221      31.750 -11.386  79.886  0.00  0.00     0.090 H 
ATOM     94  H   ASG d 221      30.962  -8.989  79.178  0.00  0.00     0.089 H 
ATOM     95  H   ASG d 221      25.074 -12.101  78.079  0.00  0.00     0.040 H 
ATOM     96  H   ASG d 221      24.881 -12.552  79.756  0.00  0.00     0.040 H 
ATOM     97  H   ASG d 221      25.996 -13.431  78.738  0.00  0.00     0.040 H 
ATOM     98  H   ASG d 221      33.446 -10.059  79.537  0.00  0.00     0.078 H 
ATOM     99  H   ASG d 221      33.056  -9.087  81.019  0.00  0.00     0.078 H 
ATOM    100  H   ASG d 221      27.262 -12.528  81.109  0.00  0.00     0.163 HD
ATOM    101  O5  BDP d 220      28.279 -15.126  84.541  0.00  0.00    -0.340 OA
ATOM    102  C5  BDP d 220      28.135 -13.846  83.960  0.00  0.00     0.152 C 
ATOM    103  C6  BDP d 220      27.110 -13.887  82.829  0.00  0.00     0.206 C 
ATOM    104  C1  BDP d 220      28.964 -15.056  85.773  0.00  0.00     0.160 C 
ATOM    105  C3  BDP d 220      30.437 -13.274  84.674  0.00  0.00     0.092 C 
ATOM    106  O2  BDP d 220      31.035 -14.362  86.746  0.00  0.00    -0.388 OA
ATOM    107  O6B BDP d 220      27.297 -14.695  81.887  0.00  0.00    -0.646 OA
ATOM    108  C2  BDP d 220      30.383 -14.559  85.510  0.00  0.00     0.110 C 
ATOM    109  O3  BDP d 220      31.762 -13.060  84.218  0.00  0.00    -0.390 OA
ATOM    110  O1  BDP d 220      29.027 -16.337  86.383  0.00  0.00    -0.348 OA
ATOM    111  O6A BDP d 220      26.132 -13.104  82.903  0.00  0.00    -0.646 OA
ATOM    112  C4  BDP d 220      29.494 -13.352  83.473  0.00  0.00     0.103 C 
ATOM    113  H   BDP d 220      27.771 -13.158  84.693  0.00  0.00     0.104 H 
ATOM    114  H   BDP d 220      28.444 -14.389  86.429  0.00  0.00     0.133 H 
ATOM    115  H   BDP d 220      30.126 -12.460  85.294  0.00  0.00     0.091 H 
ATOM    116  H   BDP d 220      30.994 -15.179  87.266  0.00  0.00     0.210 HD
ATOM    117  H   BDP d 220      30.881 -15.310  84.932  0.00  0.00     0.094 H 
ATOM    118  H   BDP d 220      32.034 -13.804  83.657  0.00  0.00     0.210 HD
ATOM    119  H   BDP d 220      29.943 -13.969  82.723  0.00  0.00     0.092 H 
ATOM    120  OSC ASG d 219      29.968 -21.118  86.780  0.00  0.00    -0.572 OA
ATOM    121  C5  ASG d 219      26.341 -18.412  87.836  0.00  0.00     0.090 C 
ATOM    122  C3  ASG d 219      27.938 -16.620  87.200  0.00  0.00     0.094 C 
ATOM    123  C6  ASG d 219      25.701 -19.803  87.506  0.00  0.00     0.043 C 
ATOM    124  C7  ASG d 219      30.009 -14.818  89.779  0.00  0.00     0.214 C 
ATOM    125  C4  ASG d 219      27.595 -18.086  86.981  0.00  0.00     0.114 C 
ATOM    126  S   ASG d 219      29.057 -20.159  86.158  0.00  0.00     0.252 S 
ATOM    127  C8  ASG d 219      30.426 -13.397  90.207  0.00  0.00    -0.003 C 
ATOM    128  O7  ASG d 219      30.634 -15.750  90.145  0.00  0.00    -0.274 OA
ATOM    129  O6  ASG d 219      24.665 -20.295  88.344  0.00  0.00    -0.398 OA
ATOM    130  OSB ASG d 219      27.887 -20.917  85.718  0.00  0.00    -0.572 OA
ATOM    131  O1  ASG d 219      27.502 -16.745  90.997  0.00  0.00    -0.348 OA
ATOM    132  O4  ASG d 219      28.646 -18.995  87.264  0.00  0.00    -0.246 OA
ATOM    133  OSA ASG d 219      29.696 -19.459  85.041  0.00  0.00    -0.572 OA
ATOM    134  O5  ASG d 219      26.763 -18.281  89.247  0.00  0.00    -0.349 OA
ATOM    135  N   ASG d 219      28.829 -15.029  88.944  0.00  0.00    -0.349 N 
ATOM    136  C2  ASG d 219      28.331 -16.386  88.650  0.00  0.00     0.087 C 
ATOM    137  C1  ASG d 219      27.199 -16.893  89.616  0.00  0.00     0.154 C 
ATOM    138  H   ASG d 219      25.548 -17.729  87.613  0.00  0.00     0.090 H 
ATOM    139  H   ASG d 219      27.099 -15.997  86.971  0.00  0.00     0.091 H 
ATOM    140  H   ASG d 219      26.490 -20.525  87.523  0.00  0.00     0.078 H 
ATOM    141  H   ASG d 219      25.219 -19.649  86.563  0.00  0.00     0.078 H 
ATOM    142  H   ASG d 219      27.410 -18.217  85.935  0.00  0.00     0.093 H 
ATOM    143  H   ASG d 219      29.750 -12.684  89.784  0.00  0.00     0.040 H 
ATOM    144  H   ASG d 219      31.419 -13.197  89.861  0.00  0.00     0.040 H 
ATOM    145  H   ASG d 219      30.400 -13.323  91.274  0.00  0.00     0.040 H 
ATOM    146  H   ASG d 219      25.021 -20.463  89.232  0.00  0.00     0.209 HD
ATOM    147  H   ASG d 219      28.356 -14.250  88.571  0.00  0.00     0.163 HD
ATOM    148  H   ASG d 219      29.197 -16.985  88.838  0.00  0.00     0.084 H 
ATOM    149  H   ASG d 219      26.361 -16.244  89.472  0.00  0.00     0.132 H 
ENDROOT
TORSDOF 38
ENDMDL
MODEL 8
REMARK VINA RESULT:      -7.6      4.984      8.715
REMARK  0 active torsions:
REMARK  status: ('A' for Active; 'I' for Inactive)
REMARK       I    between atoms: C6_2  and  C5_55 
REMARK       I    between atoms: O4_3  and  C4_83 
REMARK       I    between atoms: O4_3  and  S_75 
REMARK       I    between atoms: C6_4  and  C5_67 
REMARK       I    between atoms: O4_5  and  C4_61 
REMARK       I    between atoms: O4_5  and  S_71 
REMARK       I    between atoms: O3_6  and  C3_32 
REMARK       I    between atoms: C1_8  and  O1_30 
REMARK       I    between atoms: C3_12  and  O3_62 
REMARK       I    between atoms: C5_13  and  C6_25 
REMARK       I    between atoms: O1_14  and  C4_39 
REMARK       I    between atoms: O1_14  and  C1_23 
REMARK       I    between atoms: C5_15  and  C6_27 
REMARK       I    between atoms: C5_18  and  C6_44 
REMARK       I    between atoms: C3_19  and  O1_82 
REMARK       I    between atoms: C2_20  and  N_89 
REMARK       I    between atoms: C2_21  and  O2_80 
REMARK       I    between atoms: C1_24  and  O1_45 
REMARK       I    between atoms: C6_25  and  O6_48 
REMARK       I    between atoms: C6_27  and  O6_77 
REMARK       I    between atoms: C7_28  and  C8_35 
REMARK       I    between atoms: C7_28  and  N_70 
REMARK       I    between atoms: O1_30  and  C3_43 
REMARK       I    between atoms: C4_33  and  O4_53 
REMARK       I    between atoms: S_34  and  O4_53 
REMARK       I    between atoms: O2_40  and  C2_87 
REMARK       I    between atoms: C7_41  and  C8_81 
REMARK       I    between atoms: C7_41  and  N_89 
REMARK       I    between atoms: O6_42  and  C6_88 
REMARK       I    between atoms: O1_45  and  C4_90 
REMARK       I    between atoms: C7_46  and  C8_69 
REMARK       I    between atoms: C7_46  and  N_85 
REMARK       I    between atoms: C2_47  and  N_85 
REMARK       I    between atoms: O1_50  and  C4_73 
REMARK       I    between atoms: O1_50  and  C1_76 
REMARK       I    between atoms: C1_52  and  O1_82 
REMARK       I    between atoms: C3_54  and  O3_72 
REMARK       I    between atoms: C5_57  and  C6_88 
REMARK       I    between atoms: O1_59  and  C1_78 
REMARK       I    between atoms: O2_63  and  C2_68 
REMARK       I    between atoms: N_70  and  C2_74 
ROOT
ATOM      1  O6B BDP d 216      27.447 -16.633  96.796  0.00  0.00    -0.646 OA
ATOM      2  C6  BDP d 216      26.393 -16.682  97.466  0.00  0.00     0.206 C 
ATOM      3  C3  BDP d 216      27.609 -15.400 100.908  0.00  0.00     0.092 C 
ATOM      4  O6A BDP d 216      25.255 -16.798  96.963  0.00  0.00    -0.646 OA
ATOM      5  O5  BDP d 216      27.062 -17.804  99.473  0.00  0.00    -0.340 OA
ATOM      6  C4  BDP d 216      27.348 -15.397  99.403  0.00  0.00     0.103 C 
ATOM      7  O2  BDP d 216      28.116 -16.816 102.787  0.00  0.00    -0.388 OA
ATOM      8  C5  BDP d 216      26.500 -16.600  98.986  0.00  0.00     0.152 C 
ATOM      9  O1  BDP d 216      27.515 -19.120 101.334  0.00  0.00    -0.368 OA
ATOM     10  O3  BDP d 216      28.598 -14.441 101.222  0.00  0.00    -0.390 OA
ATOM     11  C1  BDP d 216      27.095 -17.847 100.884  0.00  0.00     0.156 C 
ATOM     12  C2  BDP d 216      28.062 -16.781 101.379  0.00  0.00     0.110 C 
ATOM     13  H   BDP d 216      26.698 -15.154 101.411  0.00  0.00     0.091 H 
ATOM     14  H   BDP d 216      28.272 -15.479  98.870  0.00  0.00     0.092 H 
ATOM     15  H   BDP d 216      28.733 -16.138 103.104  0.00  0.00     0.210 HD
ATOM     16  H   BDP d 216      25.524 -16.470  99.405  0.00  0.00     0.104 H 
ATOM     17  H   BDP d 216      26.895 -19.796 101.016  0.00  0.00     0.212 HD
ATOM     18  H   BDP d 216      29.423 -14.667 100.764  0.00  0.00     0.210 HD
ATOM     19  H   BDP d 216      26.113 -17.664 101.268  0.00  0.00     0.133 H 
ATOM     20  H   BDP d 216      29.036 -16.975 100.981  0.00  0.00     0.094 H 
ATOM     21  O4  ASG d 217      28.211 -10.060  98.234  0.00  0.00    -0.246 OA
ATOM     22  O7  ASG d 217      24.044 -11.833  98.355  0.00  0.00    -0.274 OA
ATOM     23  O1  ASG d 217      26.726 -14.203  99.083  0.00  0.00    -0.348 OA
ATOM     24  C5  ASG d 217      29.546 -12.071  97.792  0.00  0.00     0.090 C 
ATOM     25  C1  ASG d 217      27.483 -13.415  98.179  0.00  0.00     0.154 C 
ATOM     26  C6  ASG d 217      30.939 -11.626  98.370  0.00  0.00     0.043 C 
ATOM     27  OSA ASG d 217      28.670  -8.047  96.751  0.00  0.00    -0.572 OA
ATOM     28  C3  ASG d 217      27.519 -11.570  96.434  0.00  0.00     0.094 C 
ATOM     29  C7  ASG d 217      24.107 -12.612  97.469  0.00  0.00     0.214 C 
ATOM     30  C2  ASG d 217      26.639 -12.357  97.397  0.00  0.00     0.087 C 
ATOM     31  O5  ASG d 217      28.707 -12.792  98.775  0.00  0.00    -0.349 OA
ATOM     32  OSB ASG d 217      29.770  -8.184  98.883  0.00  0.00    -0.572 OA
ATOM     33  OSC ASG d 217      27.414  -7.736  98.742  0.00  0.00    -0.572 OA
ATOM     34  C8  ASG d 217      22.809 -13.149  96.837  0.00  0.00    -0.003 C 
ATOM     35  S   ASG d 217      28.538  -8.450  98.151  0.00  0.00     0.252 S 
ATOM     36  O6  ASG d 217      32.029 -12.531  98.261  0.00  0.00    -0.398 OA
ATOM     37  C4  ASG d 217      28.667 -10.924  97.206  0.00  0.00     0.114 C 
ATOM     38  N   ASG d 217      25.391 -12.903  96.839  0.00  0.00    -0.349 N 
ATOM     39  H   ASG d 217      29.844 -12.718  96.993  0.00  0.00     0.090 H 
ATOM     40  H   ASG d 217      27.824 -14.134  97.464  0.00  0.00     0.132 H 
ATOM     41  H   ASG d 217      30.800 -11.420  99.411  0.00  0.00     0.078 H 
ATOM     42  H   ASG d 217      31.224 -10.793  97.763  0.00  0.00     0.078 H 
ATOM     43  H   ASG d 217      27.825 -12.236  95.654  0.00  0.00     0.091 H 
ATOM     44  H   ASG d 217      26.271 -11.632  98.094  0.00  0.00     0.084 H 
ATOM     45  H   ASG d 217      21.972 -12.843  97.427  0.00  0.00     0.040 H 
ATOM     46  H   ASG d 217      22.847 -14.218  96.800  0.00  0.00     0.040 H 
ATOM     47  H   ASG d 217      22.709 -12.760  95.844  0.00  0.00     0.040 H 
ATOM     48  H   ASG d 217      31.846 -13.323  98.790  0.00  0.00     0.209 HD
ATOM     49  H   ASG d 217      29.237 -10.309  96.541  0.00  0.00     0.093 H 
ATOM     50  H   ASG d 217      25.423 -13.469  96.035  0.00  0.00     0.163 HD
ATOM     51  C6  BDP d 218      28.161 -10.465  91.464  0.00  0.00     0.206 C 
ATOM     52  O3  BDP d 218      23.884  -8.459  92.808  0.00  0.00    -0.390 OA
ATOM     53  C1  BDP d 218      26.341 -10.523  94.693  0.00  0.00     0.160 C 
ATOM     54  C2  BDP d 218      25.306  -9.429  94.446  0.00  0.00     0.110 C 
ATOM     55  O6A BDP d 218      28.418 -11.490  90.795  0.00  0.00    -0.646 OA
ATOM     56  O1  BDP d 218      26.817 -10.441  96.023  0.00  0.00    -0.348 OA
ATOM     57  C3  BDP d 218      24.784  -9.518  93.024  0.00  0.00     0.092 C 
ATOM     58  O5  BDP d 218      27.394 -10.335  93.768  0.00  0.00    -0.340 OA
ATOM     59  C5  BDP d 218      26.973 -10.509  92.424  0.00  0.00     0.152 C 
ATOM     60  C4  BDP d 218      25.952  -9.439  92.047  0.00  0.00     0.103 C 
ATOM     61  O2  BDP d 218      24.227  -9.543  95.347  0.00  0.00    -0.388 OA
ATOM     62  O6B BDP d 218      28.811  -9.399  91.376  0.00  0.00    -0.646 OA
ATOM     63  H   BDP d 218      23.149  -8.527  93.438  0.00  0.00     0.210 HD
ATOM     64  H   BDP d 218      25.911 -11.493  94.560  0.00  0.00     0.133 H 
ATOM     65  H   BDP d 218      25.782  -8.483  94.596  0.00  0.00     0.094 H 
ATOM     66  H   BDP d 218      24.276 -10.447  92.869  0.00  0.00     0.091 H 
ATOM     67  H   BDP d 218      26.515 -11.472  92.343  0.00  0.00     0.104 H 
ATOM     68  H   BDP d 218      26.300  -8.428  92.039  0.00  0.00     0.092 H 
ATOM     69  H   BDP d 218      23.787 -10.399  95.218  0.00  0.00     0.210 HD
ATOM     70  O4  ASG d 221      32.528 -12.339  79.822  0.00  0.00    -0.249 OA
ATOM     71  OSB ASG d 221      34.062 -14.246  80.533  0.00  0.00    -0.572 OA
ATOM     72  OSC ASG d 221      32.759 -14.543  78.552  0.00  0.00    -0.572 OA
ATOM     73  C2  ASG d 221      31.233  -9.993  80.542  0.00  0.00     0.062 C 
ATOM     74  C1  ASG d 221      29.947 -10.718  81.070  0.00  0.00     0.151 C 
ATOM     75  C3  ASG d 221      31.470 -10.293  79.077  0.00  0.00    -0.014 C 
ATOM     76  O7  ASG d 221      33.106  -8.068  79.509  0.00  0.00    -0.274 OA
ATOM     77  C7  ASG d 221      32.182  -7.651  80.117  0.00  0.00     0.214 C 
ATOM     78  O6  ASG d 221      28.533 -14.249  78.782  0.00  0.00    -0.398 OA
ATOM     79  O1  ASG d 221      29.780 -10.649  82.483  0.00  0.00    -0.348 OA
ATOM     80  C5  ASG d 221      30.134 -12.261  79.081  0.00  0.00     0.088 C 
ATOM     81  C4  ASG d 221      31.601 -11.785  78.902  0.00  0.00     0.089 C 
ATOM     82  OSA ASG d 221      31.721 -14.589  80.705  0.00  0.00    -0.572 OA
ATOM     83  S   ASG d 221      32.774 -13.973  79.900  0.00  0.00     0.252 S 
ATOM     84  O5  ASG d 221      29.807 -12.108  80.516  0.00  0.00    -0.349 OA
ATOM     85  C8  ASG d 221      32.038  -6.133  80.325  0.00  0.00    -0.003 C 
ATOM     86  C6  ASG d 221      29.760 -13.635  78.415  0.00  0.00     0.043 C 
ATOM     87  N   ASG d 221      31.303  -8.555  80.858  0.00  0.00    -0.352 N 
ATOM     88  H   ASG d 221      32.049 -10.410  81.094  0.00  0.00     0.080 H 
ATOM     89  H   ASG d 221      29.122 -10.158  80.682  0.00  0.00     0.132 H 
ATOM     90  H   ASG d 221      32.369  -9.812  78.753  0.00  0.00     0.040 H 
ATOM     91  H   ASG d 221      30.649  -9.929  78.494  0.00  0.00     0.040 H 
ATOM     92  H   ASG d 221      28.432 -15.084  78.298  0.00  0.00     0.209 HD
ATOM     93  H   ASG d 221      29.483 -11.638  78.504  0.00  0.00     0.090 H 
ATOM     94  H   ASG d 221      32.005 -12.098  77.962  0.00  0.00     0.089 H 
ATOM     95  H   ASG d 221      32.751  -5.621  79.713  0.00  0.00     0.040 H 
ATOM     96  H   ASG d 221      32.214  -5.895  81.353  0.00  0.00     0.040 H 
ATOM     97  H   ASG d 221      31.050  -5.828  80.052  0.00  0.00     0.040 H 
ATOM     98  H   ASG d 221      29.730 -13.476  77.357  0.00  0.00     0.078 H 
ATOM     99  H   ASG d 221      30.510 -14.311  78.766  0.00  0.00     0.078 H 
ATOM    100  H   ASG d 221      30.744  -8.194  81.584  0.00  0.00     0.163 HD
ATOM    101  O5  BDP d 220      27.500  -8.871  84.514  0.00  0.00    -0.340 OA
ATOM    102  C5  BDP d 220      28.731  -9.239  83.926  0.00  0.00     0.152 C 
ATOM    103  C6  BDP d 220      29.425  -8.016  83.333  0.00  0.00     0.206 C 
ATOM    104  C1  BDP d 220      26.996  -9.901  85.337  0.00  0.00     0.160 C 
ATOM    105  C3  BDP d 220      27.859 -11.529  83.560  0.00  0.00     0.092 C 
ATOM    106  O2  BDP d 220      26.308 -12.190  85.290  0.00  0.00    -0.388 OA
ATOM    107  O6B BDP d 220      28.804  -7.336  82.481  0.00  0.00    -0.646 OA
ATOM    108  C2  BDP d 220      26.690 -11.114  84.462  0.00  0.00     0.110 C 
ATOM    109  O3  BDP d 220      27.400 -12.440  82.576  0.00  0.00    -0.390 OA
ATOM    110  O1  BDP d 220      25.803  -9.484  85.984  0.00  0.00    -0.348 OA
ATOM    111  O6A BDP d 220      30.587  -7.756  83.732  0.00  0.00    -0.646 OA
ATOM    112  C4  BDP d 220      28.490 -10.317  82.873  0.00  0.00     0.103 C 
ATOM    113  H   BDP d 220      29.381  -9.641  84.675  0.00  0.00     0.104 H 
ATOM    114  H   BDP d 220      27.724 -10.145  86.082  0.00  0.00     0.133 H 
ATOM    115  H   BDP d 220      28.603 -11.994  84.173  0.00  0.00     0.091 H 
ATOM    116  H   BDP d 220      25.569 -11.917  85.855  0.00  0.00     0.210 HD
ATOM    117  H   BDP d 220      25.893 -10.837  83.803  0.00  0.00     0.094 H 
ATOM    118  H   BDP d 220      26.727 -12.009  82.027  0.00  0.00     0.210 HD
ATOM    119  H   BDP d 220      27.857 -10.012  82.067  0.00  0.00     0.092 H 
ATOM    120  OSC ASG d 219      21.270  -7.702  86.408  0.00  0.00    -0.572 OA
ATOM    121  C5  ASG d 219      25.290  -6.943  88.613  0.00  0.00     0.090 C 
ATOM    122  C3  ASG d 219      26.021  -8.851  87.202  0.00  0.00     0.094 C 
ATOM    123  C6  ASG d 219      24.531  -5.576  88.713  0.00  0.00     0.043 C 
ATOM    124  C7  ASG d 219      25.998 -12.386  88.502  0.00  0.00     0.214 C 
ATOM    125  C4  ASG d 219      25.024  -7.706  87.287  0.00  0.00     0.114 C 
ATOM    126  S   ASG d 219      22.652  -7.313  86.133  0.00  0.00     0.252 S 
ATOM    127  C8  ASG d 219      26.886 -13.645  88.581  0.00  0.00    -0.003 C 
ATOM    128  O7  ASG d 219      24.832 -12.477  88.663  0.00  0.00    -0.274 OA
ATOM    129  O6  ASG d 219      24.544  -4.876  89.949  0.00  0.00    -0.398 OA
ATOM    130  OSB ASG d 219      22.719  -5.862  86.293  0.00  0.00    -0.572 OA
ATOM    131  O1  ASG d 219      25.549  -9.965  90.830  0.00  0.00    -0.348 OA
ATOM    132  O4  ASG d 219      23.662  -8.090  87.193  0.00  0.00    -0.246 OA
ATOM    133  OSA ASG d 219      23.068  -7.726  84.790  0.00  0.00    -0.572 OA
ATOM    134  O5  ASG d 219      24.948  -7.884  89.701  0.00  0.00    -0.349 OA
ATOM    135  N   ASG d 219      26.588 -11.072  88.258  0.00  0.00    -0.349 N 
ATOM    136  C2  ASG d 219      25.775  -9.843  88.328  0.00  0.00     0.087 C 
ATOM    137  C1  ASG d 219      25.807  -9.114  89.722  0.00  0.00     0.154 C 
ATOM    138  H   ASG d 219      26.316  -6.648  88.676  0.00  0.00     0.090 H 
ATOM    139  H   ASG d 219      27.024  -8.487  87.285  0.00  0.00     0.091 H 
ATOM    140  H   ASG d 219      23.506  -5.765  88.470  0.00  0.00     0.078 H 
ATOM    141  H   ASG d 219      25.066  -4.933  88.046  0.00  0.00     0.078 H 
ATOM    142  H   ASG d 219      25.180  -7.084  86.430  0.00  0.00     0.093 H 
ATOM    143  H   ASG d 219      27.907 -13.372  88.411  0.00  0.00     0.040 H 
ATOM    144  H   ASG d 219      26.574 -14.347  87.836  0.00  0.00     0.040 H 
ATOM    145  H   ASG d 219      26.791 -14.088  89.550  0.00  0.00     0.040 H 
ATOM    146  H   ASG d 219      24.073  -5.396  90.620  0.00  0.00     0.209 HD
ATOM    147  H   ASG d 219      27.546 -11.005  88.043  0.00  0.00     0.163 HD
ATOM    148  H   ASG d 219      24.784 -10.225  88.196  0.00  0.00     0.084 H 
ATOM    149  H   ASG d 219      26.817  -8.798  89.878  0.00  0.00     0.132 H 
ENDROOT
TORSDOF 38
ENDMDL
MODEL 9
REMARK VINA RESULT:      -7.5      2.232      2.935
REMARK  0 active torsions:
REMARK  status: ('A' for Active; 'I' for Inactive)
REMARK       I    between atoms: C6_2  and  C5_55 
REMARK       I    between atoms: O4_3  and  C4_83 
REMARK       I    between atoms: O4_3  and  S_75 
REMARK       I    between atoms: C6_4  and  C5_67 
REMARK       I    between atoms: O4_5  and  C4_61 
REMARK       I    between atoms: O4_5  and  S_71 
REMARK       I    between atoms: O3_6  and  C3_32 
REMARK       I    between atoms: C1_8  and  O1_30 
REMARK       I    between atoms: C3_12  and  O3_62 
REMARK       I    between atoms: C5_13  and  C6_25 
REMARK       I    between atoms: O1_14  and  C4_39 
REMARK       I    between atoms: O1_14  and  C1_23 
REMARK       I    between atoms: C5_15  and  C6_27 
REMARK       I    between atoms: C5_18  and  C6_44 
REMARK       I    between atoms: C3_19  and  O1_82 
REMARK       I    between atoms: C2_20  and  N_89 
REMARK       I    between atoms: C2_21  and  O2_80 
REMARK       I    between atoms: C1_24  and  O1_45 
REMARK       I    between atoms: C6_25  and  O6_48 
REMARK       I    between atoms: C6_27  and  O6_77 
REMARK       I    between atoms: C7_28  and  C8_35 
REMARK       I    between atoms: C7_28  and  N_70 
REMARK       I    between atoms: O1_30  and  C3_43 
REMARK       I    between atoms: C4_33  and  O4_53 
REMARK       I    between atoms: S_34  and  O4_53 
REMARK       I    between atoms: O2_40  and  C2_87 
REMARK       I    between atoms: C7_41  and  C8_81 
REMARK       I    between atoms: C7_41  and  N_89 
REMARK       I    between atoms: O6_42  and  C6_88 
REMARK       I    between atoms: O1_45  and  C4_90 
REMARK       I    between atoms: C7_46  and  C8_69 
REMARK       I    between atoms: C7_46  and  N_85 
REMARK       I    between atoms: C2_47  and  N_85 
REMARK       I    between atoms: O1_50  and  C4_73 
REMARK       I    between atoms: O1_50  and  C1_76 
REMARK       I    between atoms: C1_52  and  O1_82 
REMARK       I    between atoms: C3_54  and  O3_72 
REMARK       I    between atoms: C5_57  and  C6_88 
REMARK       I    between atoms: O1_59  and  C1_78 
REMARK       I    between atoms: O2_63  and  C2_68 
REMARK       I    between atoms: N_70  and  C2_74 
ROOT
ATOM      1  O6B BDP d 216      24.285 -10.396  96.617  0.00  0.00    -0.646 OA
ATOM      2  C6  BDP d 216      24.608 -10.689  97.789  0.00  0.00     0.206 C 
ATOM      3  C3  BDP d 216      21.143 -11.070  99.468  0.00  0.00     0.092 C 
ATOM      4  O6A BDP d 216      25.752 -11.065  98.120  0.00  0.00    -0.646 OA
ATOM      5  O5  BDP d 216      23.275  -9.208  99.118  0.00  0.00    -0.340 OA
ATOM      6  C4  BDP d 216      22.272 -11.318  98.469  0.00  0.00     0.103 C 
ATOM      7  O2  BDP d 216      20.107  -9.393 100.848  0.00  0.00    -0.388 OA
ATOM      8  C5  BDP d 216      23.546 -10.576  98.879  0.00  0.00     0.152 C 
ATOM      9  O1  BDP d 216      22.253  -7.646 100.501  0.00  0.00    -0.368 OA
ATOM     10  O3  BDP d 216      19.924 -11.544  98.935  0.00  0.00    -0.390 OA
ATOM     11  C1  BDP d 216      22.377  -9.019 100.191  0.00  0.00     0.156 C 
ATOM     12  C2  BDP d 216      21.020  -9.583  99.792  0.00  0.00     0.110 C 
ATOM     13  H   BDP d 216      21.368 -11.595 100.372  0.00  0.00     0.091 H 
ATOM     14  H   BDP d 216      21.999 -10.942  97.505  0.00  0.00     0.092 H 
ATOM     15  H   BDP d 216      19.241  -9.752 100.596  0.00  0.00     0.210 HD
ATOM     16  H   BDP d 216      23.909 -11.028  99.778  0.00  0.00     0.104 H 
ATOM     17  H   BDP d 216      23.119  -7.291 100.754  0.00  0.00     0.212 HD
ATOM     18  H   BDP d 216      19.722 -11.066  98.115  0.00  0.00     0.210 HD
ATOM     19  H   BDP d 216      22.749  -9.525 101.058  0.00  0.00     0.133 H 
ATOM     20  H   BDP d 216      20.667  -9.071  98.921  0.00  0.00     0.094 H 
ATOM     21  O4  ASG d 217      20.531 -16.008  96.110  0.00  0.00    -0.246 OA
ATOM     22  O7  ASG d 217      23.958 -15.956  99.072  0.00  0.00    -0.274 OA
ATOM     23  O1  ASG d 217      22.482 -12.684  98.397  0.00  0.00    -0.348 OA
ATOM     24  C5  ASG d 217      20.597 -13.693  95.300  0.00  0.00     0.090 C 
ATOM     25  C1  ASG d 217      22.252 -13.207  97.100  0.00  0.00     0.154 C 
ATOM     26  C6  ASG d 217      19.113 -13.514  94.812  0.00  0.00     0.043 C 
ATOM     27  OSA ASG d 217      20.438 -17.827  94.337  0.00  0.00    -0.572 OA
ATOM     28  C3  ASG d 217      22.677 -15.058  95.413  0.00  0.00     0.094 C 
ATOM     29  C7  ASG d 217      24.749 -15.302  98.487  0.00  0.00     0.214 C 
ATOM     30  C2  ASG d 217      22.955 -14.577  96.832  0.00  0.00     0.087 C 
ATOM     31  O5  ASG d 217      20.810 -13.255  96.697  0.00  0.00    -0.349 OA
ATOM     32  OSB ASG d 217      18.381 -17.076  95.325  0.00  0.00    -0.572 OA
ATOM     33  OSC ASG d 217      19.939 -18.400  96.586  0.00  0.00    -0.572 OA
ATOM     34  C8  ASG d 217      26.233 -15.364  98.891  0.00  0.00    -0.003 C 
ATOM     35  S   ASG d 217      19.788 -17.371  95.566  0.00  0.00     0.252 S 
ATOM     36  O6  ASG d 217      18.748 -12.277  94.216  0.00  0.00    -0.398 OA
ATOM     37  C4  ASG d 217      21.169 -15.139  95.189  0.00  0.00     0.114 C 
ATOM     38  N   ASG d 217      24.362 -14.605  97.264  0.00  0.00    -0.349 N 
ATOM     39  H   ASG d 217      21.123 -13.061  94.615  0.00  0.00     0.090 H 
ATOM     40  H   ASG d 217      22.721 -12.485  96.464  0.00  0.00     0.132 H 
ATOM     41  H   ASG d 217      18.479 -13.657  95.662  0.00  0.00     0.078 H 
ATOM     42  H   ASG d 217      19.005 -14.231  94.024  0.00  0.00     0.078 H 
ATOM     43  H   ASG d 217      23.193 -14.405  94.741  0.00  0.00     0.091 H 
ATOM     44  H   ASG d 217      22.514 -15.317  97.468  0.00  0.00     0.084 H 
ATOM     45  H   ASG d 217      26.331 -15.908  99.806  0.00  0.00     0.040 H 
ATOM     46  H   ASG d 217      26.608 -14.371  99.025  0.00  0.00     0.040 H 
ATOM     47  H   ASG d 217      26.792 -15.856  98.121  0.00  0.00     0.040 H 
ATOM     48  H   ASG d 217      18.820 -11.568  94.874  0.00  0.00     0.209 HD
ATOM     49  H   ASG d 217      20.978 -15.552  94.220  0.00  0.00     0.093 H 
ATOM     50  H   ASG d 217      25.047 -14.150  96.724  0.00  0.00     0.163 HD
ATOM     51  C6  BDP d 218      24.980 -16.309  91.001  0.00  0.00     0.206 C 
ATOM     52  O3  BDP d 218      26.378 -19.655  94.314  0.00  0.00    -0.390 OA
ATOM     53  C1  BDP d 218      24.220 -16.638  94.614  0.00  0.00     0.160 C 
ATOM     54  C2  BDP d 218      24.704 -18.063  94.869  0.00  0.00     0.110 C 
ATOM     55  O6A BDP d 218      25.587 -15.333  90.506  0.00  0.00    -0.646 OA
ATOM     56  O1  BDP d 218      23.023 -16.403  95.332  0.00  0.00    -0.348 OA
ATOM     57  C3  BDP d 218      25.995 -18.317  94.111  0.00  0.00     0.092 C 
ATOM     58  O5  BDP d 218      24.010 -16.498  93.223  0.00  0.00    -0.340 OA
ATOM     59  C5  BDP d 218      25.210 -16.629  92.477  0.00  0.00     0.152 C 
ATOM     60  C4  BDP d 218      25.776 -18.038  92.628  0.00  0.00     0.103 C 
ATOM     61  O2  BDP d 218      24.922 -18.282  96.246  0.00  0.00    -0.388 OA
ATOM     62  O6B BDP d 218      24.210 -17.049  90.348  0.00  0.00    -0.646 OA
ATOM     63  H   BDP d 218      26.512 -19.813  95.262  0.00  0.00     0.210 HD
ATOM     64  H   BDP d 218      24.943 -15.923  94.945  0.00  0.00     0.133 H 
ATOM     65  H   BDP d 218      23.947 -18.736  94.528  0.00  0.00     0.094 H 
ATOM     66  H   BDP d 218      26.770 -17.671  94.466  0.00  0.00     0.091 H 
ATOM     67  H   BDP d 218      25.917 -15.926  92.864  0.00  0.00     0.104 H 
ATOM     68  H   BDP d 218      25.184 -18.837  92.232  0.00  0.00     0.092 H 
ATOM     69  H   BDP d 218      25.609 -17.676  96.565  0.00  0.00     0.210 HD
ATOM     70  O4  ASG d 221      29.972 -14.045  79.684  0.00  0.00    -0.249 OA
ATOM     71  OSB ASG d 221      29.137 -11.638  79.621  0.00  0.00    -0.572 OA
ATOM     72  OSC ASG d 221      31.392 -12.054  78.949  0.00  0.00    -0.572 OA
ATOM     73  C2  ASG d 221      29.585 -16.626  80.626  0.00  0.00     0.062 C 
ATOM     74  C1  ASG d 221      30.396 -16.399  81.948  0.00  0.00     0.151 C 
ATOM     75  C3  ASG d 221      30.451 -16.402  79.405  0.00  0.00    -0.014 C 
ATOM     76  O7  ASG d 221      28.263 -17.781  78.345  0.00  0.00    -0.274 OA
ATOM     77  C7  ASG d 221      28.370 -18.459  79.308  0.00  0.00     0.214 C 
ATOM     78  O6  ASG d 221      34.062 -13.913  81.670  0.00  0.00    -0.398 OA
ATOM     79  O1  ASG d 221      29.595 -16.390  83.126  0.00  0.00    -0.348 OA
ATOM     80  C5  ASG d 221      32.066 -15.102  80.571  0.00  0.00     0.088 C 
ATOM     81  C4  ASG d 221      30.998 -14.997  79.449  0.00  0.00     0.089 C 
ATOM     82  OSA ASG d 221      30.766 -12.199  81.251  0.00  0.00    -0.572 OA
ATOM     83  S   ASG d 221      30.330 -12.441  79.877  0.00  0.00     0.252 S 
ATOM     84  O5  ASG d 221      31.332 -15.229  81.849  0.00  0.00    -0.349 OA
ATOM     85  C8  ASG d 221      27.803 -19.888  79.292  0.00  0.00    -0.003 C 
ATOM     86  C6  ASG d 221      33.230 -14.046  80.527  0.00  0.00     0.043 C 
ATOM     87  N   ASG d 221      28.830 -17.891  80.576  0.00  0.00    -0.352 N 
ATOM     88  H   ASG d 221      28.820 -15.878  80.622  0.00  0.00     0.080 H 
ATOM     89  H   ASG d 221      31.013 -17.266  82.059  0.00  0.00     0.132 H 
ATOM     90  H   ASG d 221      29.865 -16.532  78.519  0.00  0.00     0.040 H 
ATOM     91  H   ASG d 221      31.257 -17.105  79.397  0.00  0.00     0.040 H 
ATOM     92  H   ASG d 221      34.732 -13.231  81.505  0.00  0.00     0.209 HD
ATOM     93  H   ASG d 221      32.660 -15.979  80.419  0.00  0.00     0.090 H 
ATOM     94  H   ASG d 221      31.422 -14.646  78.532  0.00  0.00     0.089 H 
ATOM     95  H   ASG d 221      27.516 -20.146  78.294  0.00  0.00     0.040 H 
ATOM     96  H   ASG d 221      26.949 -19.941  79.934  0.00  0.00     0.040 H 
ATOM     97  H   ASG d 221      28.550 -20.572  79.636  0.00  0.00     0.040 H 
ATOM     98  H   ASG d 221      33.862 -14.305  79.703  0.00  0.00     0.078 H 
ATOM     99  H   ASG d 221      32.729 -13.103  80.454  0.00  0.00     0.078 H 
ATOM    100  H   ASG d 221      28.629 -18.365  81.415  0.00  0.00     0.163 HD
ATOM    101  O5  BDP d 220      29.261 -18.698  85.781  0.00  0.00    -0.340 OA
ATOM    102  C5  BDP d 220      28.911 -17.946  84.636  0.00  0.00     0.152 C 
ATOM    103  C6  BDP d 220      28.374 -18.864  83.540  0.00  0.00     0.206 C 
ATOM    104  C1  BDP d 220      29.453 -17.864  86.903  0.00  0.00     0.160 C 
ATOM    105  C3  BDP d 220      30.553 -16.209  85.288  0.00  0.00     0.092 C 
ATOM    106  O2  BDP d 220      30.765 -16.026  87.687  0.00  0.00    -0.388 OA
ATOM    107  O6B BDP d 220      29.101 -19.808  83.147  0.00  0.00    -0.646 OA
ATOM    108  C2  BDP d 220      30.644 -16.951  86.628  0.00  0.00     0.110 C 
ATOM    109  O3  BDP d 220      31.812 -15.642  84.972  0.00  0.00    -0.390 OA
ATOM    110  O1  BDP d 220      29.721 -18.640  88.062  0.00  0.00    -0.348 OA
ATOM    111  O6A BDP d 220      27.228 -18.621  83.089  0.00  0.00    -0.646 OA
ATOM    112  C4  BDP d 220      30.122 -17.149  84.161  0.00  0.00     0.103 C 
ATOM    113  H   BDP d 220      28.131 -17.257  84.883  0.00  0.00     0.104 H 
ATOM    114  H   BDP d 220      28.566 -17.290  87.072  0.00  0.00     0.133 H 
ATOM    115  H   BDP d 220      29.816 -15.439  85.384  0.00  0.00     0.091 H 
ATOM    116  H   BDP d 220      30.822 -16.505  88.528  0.00  0.00     0.210 HD
ATOM    117  H   BDP d 220      31.513 -17.572  86.563  0.00  0.00     0.094 H 
ATOM    118  H   BDP d 220      32.472 -16.348  84.887  0.00  0.00     0.210 HD
ATOM    119  H   BDP d 220      30.960 -17.750  83.877  0.00  0.00     0.092 H 
ATOM    120  OSC ASG d 219      31.955 -21.966  90.862  0.00  0.00    -0.572 OA
ATOM    121  C5  ASG d 219      27.520 -20.918  89.958  0.00  0.00     0.090 C 
ATOM    122  C3  ASG d 219      28.578 -19.020  88.754  0.00  0.00     0.094 C 
ATOM    123  C6  ASG d 219      27.498 -22.454  90.263  0.00  0.00     0.043 C 
ATOM    124  C7  ASG d 219      29.022 -15.655  90.385  0.00  0.00     0.214 C 
ATOM    125  C4  ASG d 219      28.810 -20.446  89.233  0.00  0.00     0.114 C 
ATOM    126  S   ASG d 219      31.038 -21.823  89.733  0.00  0.00     0.252 S 
ATOM    127  C8  ASG d 219      28.803 -14.151  90.119  0.00  0.00    -0.003 C 
ATOM    128  O7  ASG d 219      29.757 -16.000  91.240  0.00  0.00    -0.274 OA
ATOM    129  O6  ASG d 219      26.462 -22.973  91.084  0.00  0.00    -0.398 OA
ATOM    130  OSB ASG d 219      30.378 -23.116  89.563  0.00  0.00    -0.572 OA
ATOM    131  O1  ASG d 219      27.008 -17.826  92.031  0.00  0.00    -0.348 OA
ATOM    132  O4  ASG d 219      29.945 -20.621  90.064  0.00  0.00    -0.246 OA
ATOM    133  OSA ASG d 219      31.743 -21.414  88.516  0.00  0.00    -0.572 OA
ATOM    134  O5  ASG d 219      27.401 -20.078  91.169  0.00  0.00    -0.349 OA
ATOM    135  N   ASG d 219      28.304 -16.661  89.606  0.00  0.00    -0.349 N 
ATOM    136  C2  ASG d 219      28.388 -18.094  89.945  0.00  0.00     0.087 C 
ATOM    137  C1  ASG d 219      27.229 -18.618  90.871  0.00  0.00     0.154 C 
ATOM    138  H   ASG d 219      26.667 -20.792  89.324  0.00  0.00     0.090 H 
ATOM    139  H   ASG d 219      27.705 -18.965  88.139  0.00  0.00     0.091 H 
ATOM    140  H   ASG d 219      28.426 -22.694  90.738  0.00  0.00     0.078 H 
ATOM    141  H   ASG d 219      27.323 -22.905  89.309  0.00  0.00     0.078 H 
ATOM    142  H   ASG d 219      29.022 -21.041  88.369  0.00  0.00     0.093 H 
ATOM    143  H   ASG d 219      28.109 -14.029  89.314  0.00  0.00     0.040 H 
ATOM    144  H   ASG d 219      29.736 -13.696  89.859  0.00  0.00     0.040 H 
ATOM    145  H   ASG d 219      28.413 -13.686  90.999  0.00  0.00     0.040 H 
ATOM    146  H   ASG d 219      26.547 -22.610  91.980  0.00  0.00     0.209 HD
ATOM    147  H   ASG d 219      27.755 -16.377  88.840  0.00  0.00     0.163 HD
ATOM    148  H   ASG d 219      29.290 -18.134  90.518  0.00  0.00     0.084 H 
ATOM    149  H   ASG d 219      26.321 -18.508  90.315  0.00  0.00     0.132 H 
ENDROOT
TORSDOF 38
ENDMDL
MODEL 10
REMARK VINA RESULT:      -7.4      3.894     15.898
REMARK  0 active torsions:
REMARK  status: ('A' for Active; 'I' for Inactive)
REMARK       I    between atoms: C6_2  and  C5_55 
REMARK       I    between atoms: O4_3  and  C4_83 
REMARK       I    between atoms: O4_3  and  S_75 
REMARK       I    between atoms: C6_4  and  C5_67 
REMARK       I    between atoms: O4_5  and  C4_61 
REMARK       I    between atoms: O4_5  and  S_71 
REMARK       I    between atoms: O3_6  and  C3_32 
REMARK       I    between atoms: C1_8  and  O1_30 
REMARK       I    between atoms: C3_12  and  O3_62 
REMARK       I    between atoms: C5_13  and  C6_25 
REMARK       I    between atoms: O1_14  and  C4_39 
REMARK       I    between atoms: O1_14  and  C1_23 
REMARK       I    between atoms: C5_15  and  C6_27 
REMARK       I    between atoms: C5_18  and  C6_44 
REMARK       I    between atoms: C3_19  and  O1_82 
REMARK       I    between atoms: C2_20  and  N_89 
REMARK       I    between atoms: C2_21  and  O2_80 
REMARK       I    between atoms: C1_24  and  O1_45 
REMARK       I    between atoms: C6_25  and  O6_48 
REMARK       I    between atoms: C6_27  and  O6_77 
REMARK       I    between atoms: C7_28  and  C8_35 
REMARK       I    between atoms: C7_28  and  N_70 
REMARK       I    between atoms: O1_30  and  C3_43 
REMARK       I    between atoms: C4_33  and  O4_53 
REMARK       I    between atoms: S_34  and  O4_53 
REMARK       I    between atoms: O2_40  and  C2_87 
REMARK       I    between atoms: C7_41  and  C8_81 
REMARK       I    between atoms: C7_41  and  N_89 
REMARK       I    between atoms: O6_42  and  C6_88 
REMARK       I    between atoms: O1_45  and  C4_90 
REMARK       I    between atoms: C7_46  and  C8_69 
REMARK       I    between atoms: C7_46  and  N_85 
REMARK       I    between atoms: C2_47  and  N_85 
REMARK       I    between atoms: O1_50  and  C4_73 
REMARK       I    between atoms: O1_50  and  C1_76 
REMARK       I    between atoms: C1_52  and  O1_82 
REMARK       I    between atoms: C3_54  and  O3_72 
REMARK       I    between atoms: C5_57  and  C6_88 
REMARK       I    between atoms: O1_59  and  C1_78 
REMARK       I    between atoms: O2_63  and  C2_68 
REMARK       I    between atoms: N_70  and  C2_74 
ROOT
ATOM      1  O6B BDP d 216      28.747 -18.629  83.438  0.00  0.00    -0.646 OA
ATOM      2  C6  BDP d 216      29.942 -18.509  83.091  0.00  0.00     0.206 C 
ATOM      3  C3  BDP d 216      29.610 -16.283  79.944  0.00  0.00     0.092 C 
ATOM      4  O6A BDP d 216      30.910 -18.787  83.830  0.00  0.00    -0.646 OA
ATOM      5  O5  BDP d 216      29.893 -19.005  80.749  0.00  0.00    -0.340 OA
ATOM      6  C4  BDP d 216      29.463 -16.710  81.403  0.00  0.00     0.103 C 
ATOM      7  O2  BDP d 216      29.700 -17.100  77.682  0.00  0.00    -0.388 OA
ATOM      8  C5  BDP d 216      30.237 -18.000  81.683  0.00  0.00     0.152 C 
ATOM      9  O1  BDP d 216      30.024 -19.733  78.546  0.00  0.00    -0.368 OA
ATOM     10  O3  BDP d 216      28.687 -15.254  79.654  0.00  0.00    -0.390 OA
ATOM     11  C1  BDP d 216      30.237 -18.648  79.427  0.00  0.00     0.156 C 
ATOM     12  C2  BDP d 216      29.377 -17.464  79.005  0.00  0.00     0.110 C 
ATOM     13  H   BDP d 216      30.607 -15.925  79.795  0.00  0.00     0.091 H 
ATOM     14  H   BDP d 216      28.437 -16.920  81.623  0.00  0.00     0.092 H 
ATOM     15  H   BDP d 216      29.152 -16.347  77.411  0.00  0.00     0.210 HD
ATOM     16  H   BDP d 216      31.280 -17.777  81.596  0.00  0.00     0.104 H 
ATOM     17  H   BDP d 216      30.575 -20.483  78.818  0.00  0.00     0.212 HD
ATOM     18  H   BDP d 216      27.784 -15.581  79.790  0.00  0.00     0.210 HD
ATOM     19  H   BDP d 216      31.274 -18.385  79.388  0.00  0.00     0.133 H 
ATOM     20  H   BDP d 216      28.345 -17.742  79.055  0.00  0.00     0.094 H 
ATOM     21  O4  ASG d 217      28.021 -11.903  83.728  0.00  0.00    -0.246 OA
ATOM     22  O7  ASG d 217      32.165 -13.658  84.250  0.00  0.00    -0.274 OA
ATOM     23  O1  ASG d 217      29.910 -15.669  82.197  0.00  0.00    -0.348 OA
ATOM     24  C5  ASG d 217      26.732 -13.928  83.217  0.00  0.00     0.090 C 
ATOM     25  C1  ASG d 217      28.897 -15.152  83.045  0.00  0.00     0.154 C 
ATOM     26  C6  ASG d 217      25.519 -13.309  82.432  0.00  0.00     0.043 C 
ATOM     27  OSA ASG d 217      27.073 -10.380  85.529  0.00  0.00    -0.572 OA
ATOM     28  C3  ASG d 217      28.296 -13.874  85.156  0.00  0.00     0.094 C 
ATOM     29  C7  ASG d 217      31.914 -14.654  84.834  0.00  0.00     0.214 C 
ATOM     30  C2  ASG d 217      29.442 -14.375  84.287  0.00  0.00     0.087 C 
ATOM     31  O5  ASG d 217      27.841 -14.360  82.338  0.00  0.00    -0.349 OA
ATOM     32  OSB ASG d 217      26.586  -9.887  83.229  0.00  0.00    -0.572 OA
ATOM     33  OSC ASG d 217      28.791  -9.547  84.119  0.00  0.00    -0.572 OA
ATOM     34  C8  ASG d 217      33.025 -15.375  85.618  0.00  0.00    -0.003 C 
ATOM     35  S   ASG d 217      27.593 -10.375  84.162  0.00  0.00     0.252 S 
ATOM     36  O6  ASG d 217      24.492 -14.184  81.987  0.00  0.00    -0.398 OA
ATOM     37  C4  ASG d 217      27.358 -13.012  84.313  0.00  0.00     0.114 C 
ATOM     38  N   ASG d 217      30.527 -15.083  84.987  0.00  0.00    -0.349 N 
ATOM     39  H   ASG d 217      26.271 -14.768  83.694  0.00  0.00     0.090 H 
ATOM     40  H   ASG d 217      28.419 -16.036  83.413  0.00  0.00     0.132 H 
ATOM     41  H   ASG d 217      25.917 -12.820  81.567  0.00  0.00     0.078 H 
ATOM     42  H   ASG d 217      25.037 -12.674  83.146  0.00  0.00     0.078 H 
ATOM     43  H   ASG d 217      27.832 -14.725  85.608  0.00  0.00     0.091 H 
ATOM     44  H   ASG d 217      29.940 -13.492  83.945  0.00  0.00     0.084 H 
ATOM     45  H   ASG d 217      33.971 -14.932  85.385  0.00  0.00     0.040 H 
ATOM     46  H   ASG d 217      33.040 -16.409  85.346  0.00  0.00     0.040 H 
ATOM     47  H   ASG d 217      32.838 -15.284  86.668  0.00  0.00     0.040 H 
ATOM     48  H   ASG d 217      24.854 -14.798  81.329  0.00  0.00     0.209 HD
ATOM     49  H   ASG d 217      26.598 -12.597  84.943  0.00  0.00     0.093 H 
ATOM     50  H   ASG d 217      30.315 -15.852  85.563  0.00  0.00     0.163 HD
ATOM     51  C6  BDP d 218      26.299 -14.202  89.871  0.00  0.00     0.206 C 
ATOM     52  O3  BDP d 218      30.659 -11.990  90.343  0.00  0.00    -0.390 OA
ATOM     53  C1  BDP d 218      28.909 -13.385  87.369  0.00  0.00     0.160 C 
ATOM     54  C2  BDP d 218      29.778 -12.428  88.180  0.00  0.00     0.110 C 
ATOM     55  O6A BDP d 218      25.932 -15.369  90.135  0.00  0.00    -0.646 OA
ATOM     56  O1  BDP d 218      28.799 -12.922  86.037  0.00  0.00    -0.348 OA
ATOM     57  C3  BDP d 218      29.910 -12.926  89.608  0.00  0.00     0.092 C 
ATOM     58  O5  BDP d 218      27.640 -13.444  87.990  0.00  0.00    -0.340 OA
ATOM     59  C5  BDP d 218      27.699 -13.999  89.295  0.00  0.00     0.152 C 
ATOM     60  C4  BDP d 218      28.522 -13.101  90.215  0.00  0.00     0.103 C 
ATOM     61  O2  BDP d 218      31.062 -12.307  87.609  0.00  0.00    -0.388 OA
ATOM     62  O6B BDP d 218      25.590 -13.191  90.073  0.00  0.00    -0.646 OA
ATOM     63  H   BDP d 218      31.537 -11.893  89.942  0.00  0.00     0.210 HD
ATOM     64  H   BDP d 218      29.344 -14.363  87.339  0.00  0.00     0.133 H 
ATOM     65  H   BDP d 218      29.306 -11.468  88.175  0.00  0.00     0.094 H 
ATOM     66  H   BDP d 218      30.410 -13.871  89.629  0.00  0.00     0.091 H 
ATOM     67  H   BDP d 218      28.173 -14.955  89.226  0.00  0.00     0.104 H 
ATOM     68  H   BDP d 218      28.128 -12.125  90.409  0.00  0.00     0.092 H 
ATOM     69  H   BDP d 218      31.500 -13.173  87.609  0.00  0.00     0.210 HD
ATOM     70  O4  ASG d 221      19.117 -19.191  98.909  0.00  0.00    -0.249 OA
ATOM     71  OSB ASG d 221      17.938 -20.787  97.310  0.00  0.00    -0.572 OA
ATOM     72  OSC ASG d 221      18.684 -21.658  99.406  0.00  0.00    -0.572 OA
ATOM     73  C2  ASG d 221      20.423 -16.765  99.244  0.00  0.00     0.062 C 
ATOM     74  C1  ASG d 221      21.841 -17.339  98.904  0.00  0.00     0.151 C 
ATOM     75  C3  ASG d 221      19.824 -17.461 100.448  0.00  0.00    -0.014 C 
ATOM     76  O7  ASG d 221      18.237 -15.170 100.225  0.00  0.00    -0.274 OA
ATOM     77  C7  ASG d 221      19.264 -14.618 100.029  0.00  0.00     0.214 C 
ATOM     78  O6  ASG d 221      22.796 -21.402 100.416  0.00  0.00    -0.398 OA
ATOM     79  O1  ASG d 221      22.373 -16.878  97.666  0.00  0.00    -0.348 OA
ATOM     80  C5  ASG d 221      21.222 -19.376 100.259  0.00  0.00     0.088 C 
ATOM     81  C4  ASG d 221      19.735 -18.939 100.161  0.00  0.00     0.089 C 
ATOM     82  OSA ASG d 221      20.255 -21.117  97.688  0.00  0.00    -0.572 OA
ATOM     83  S   ASG d 221      18.994 -20.731  98.317  0.00  0.00     0.252 S 
ATOM     84  O5  ASG d 221      21.908 -18.831  99.067  0.00  0.00    -0.349 OA
ATOM     85  C8  ASG d 221      19.372 -13.107 100.298  0.00  0.00    -0.003 C 
ATOM     86  C6  ASG d 221      21.483 -20.890 100.594  0.00  0.00     0.043 C 
ATOM     87  N   ASG d 221      20.358 -15.296  99.333  0.00  0.00    -0.352 N 
ATOM     88  H   ASG d 221      19.807 -16.992  98.400  0.00  0.00     0.080 H 
ATOM     89  H   ASG d 221      22.501 -16.929  99.640  0.00  0.00     0.132 H 
ATOM     90  H   ASG d 221      18.845 -17.072 100.637  0.00  0.00     0.040 H 
ATOM     91  H   ASG d 221      20.438 -17.294 101.308  0.00  0.00     0.040 H 
ATOM     92  H   ASG d 221      22.812 -22.341 100.658  0.00  0.00     0.209 HD
ATOM     93  H   ASG d 221      21.661 -18.955 101.140  0.00  0.00     0.090 H 
ATOM     94  H   ASG d 221      19.115 -19.495 100.831  0.00  0.00     0.089 H 
ATOM     95  H   ASG d 221      18.494 -12.774 100.811  0.00  0.00     0.040 H 
ATOM     96  H   ASG d 221      19.461 -12.585  99.368  0.00  0.00     0.040 H 
ATOM     97  H   ASG d 221      20.234 -12.912 100.900  0.00  0.00     0.040 H 
ATOM     98  H   ASG d 221      21.222 -21.037 101.622  0.00  0.00     0.078 H 
ATOM     99  H   ASG d 221      20.892 -21.424  99.880  0.00  0.00     0.078 H 
ATOM    100  H   ASG d 221      21.067 -14.757  98.914  0.00  0.00     0.163 HD
ATOM    101  O5  BDP d 220      25.005 -14.648  96.901  0.00  0.00    -0.340 OA
ATOM    102  C5  BDP d 220      23.685 -15.141  97.009  0.00  0.00     0.152 C 
ATOM    103  C6  BDP d 220      22.790 -14.120  97.707  0.00  0.00     0.206 C 
ATOM    104  C1  BDP d 220      25.766 -15.415  95.993  0.00  0.00     0.160 C 
ATOM    105  C3  BDP d 220      24.557 -17.459  96.946  0.00  0.00     0.092 C 
ATOM    106  O2  BDP d 220      26.545 -17.638  95.587  0.00  0.00    -0.388 OA
ATOM    107  O6B BDP d 220      23.124 -13.722  98.849  0.00  0.00    -0.646 OA
ATOM    108  C2  BDP d 220      25.898 -16.831  96.546  0.00  0.00     0.110 C 
ATOM    109  O3  BDP d 220      24.790 -18.620  97.725  0.00  0.00    -0.390 OA
ATOM    110  O1  BDP d 220      27.063 -14.858  95.833  0.00  0.00    -0.348 OA
ATOM    111  O6A BDP d 220      21.763 -13.734  97.097  0.00  0.00    -0.646 OA
ATOM    112  C4  BDP d 220      23.698 -16.477  97.745  0.00  0.00     0.103 C 
ATOM    113  H   BDP d 220      23.281 -15.301  96.031  0.00  0.00     0.104 H 
ATOM    114  H   BDP d 220      25.277 -15.423  95.041  0.00  0.00     0.133 H 
ATOM    115  H   BDP d 220      24.029 -17.716  96.052  0.00  0.00     0.091 H 
ATOM    116  H   BDP d 220      27.390 -17.232  95.341  0.00  0.00     0.210 HD
ATOM    117  H   BDP d 220      26.475 -16.769  97.445  0.00  0.00     0.094 H 
ATOM    118  H   BDP d 220      25.268 -18.376  98.533  0.00  0.00     0.210 HD
ATOM    119  H   BDP d 220      24.078 -16.425  98.744  0.00  0.00     0.092 H 
ATOM    120  OSC ASG d 219      31.437 -13.125  97.160  0.00  0.00    -0.572 OA
ATOM    121  C5  ASG d 219      28.109 -11.690  94.252  0.00  0.00     0.090 C 
ATOM    122  C3  ASG d 219      27.139 -13.902  94.826  0.00  0.00     0.094 C 
ATOM    123  C6  ASG d 219      28.789 -10.366  94.744  0.00  0.00     0.043 C 
ATOM    124  C7  ASG d 219      27.706 -16.926  92.654  0.00  0.00     0.214 C 
ATOM    125  C4  ASG d 219      28.057 -12.801  95.336  0.00  0.00     0.114 C 
ATOM    126  S   ASG d 219      30.012 -12.801  97.149  0.00  0.00     0.252 S 
ATOM    127  C8  ASG d 219      26.943 -18.092  91.993  0.00  0.00    -0.003 C 
ATOM    128  O7  ASG d 219      28.875 -16.993  92.795  0.00  0.00    -0.274 OA
ATOM    129  O6  ASG d 219      29.064  -9.346  93.794  0.00  0.00    -0.398 OA
ATOM    130  OSB ASG d 219      29.908 -11.362  97.385  0.00  0.00    -0.572 OA
ATOM    131  O1  ASG d 219      28.617 -13.957  91.300  0.00  0.00    -0.348 OA
ATOM    132  O4  ASG d 219      29.364 -13.225  95.683  0.00  0.00    -0.246 OA
ATOM    133  OSA ASG d 219      29.280 -13.567  98.160  0.00  0.00    -0.572 OA
ATOM    134  O5  ASG d 219      28.779 -12.292  93.080  0.00  0.00    -0.349 OA
ATOM    135  N   ASG d 219      26.999 -15.722  93.084  0.00  0.00    -0.349 N 
ATOM    136  C2  ASG d 219      27.730 -14.541  93.580  0.00  0.00     0.087 C 
ATOM    137  C1  ASG d 219      28.027 -13.448  92.488  0.00  0.00     0.154 C 
ATOM    138  H   ASG d 219      27.121 -11.367  93.999  0.00  0.00     0.090 H 
ATOM    139  H   ASG d 219      26.175 -13.508  94.581  0.00  0.00     0.091 H 
ATOM    140  H   ASG d 219      29.721 -10.638  95.192  0.00  0.00     0.078 H 
ATOM    141  H   ASG d 219      28.061  -9.927  95.393  0.00  0.00     0.078 H 
ATOM    142  H   ASG d 219      27.644 -12.442  96.255  0.00  0.00     0.093 H 
ATOM    143  H   ASG d 219      25.900 -17.857  91.950  0.00  0.00     0.040 H 
ATOM    144  H   ASG d 219      27.085 -18.983  92.569  0.00  0.00     0.040 H 
ATOM    145  H   ASG d 219      27.315 -18.246  91.002  0.00  0.00     0.040 H 
ATOM    146  H   ASG d 219      29.724  -9.665  93.159  0.00  0.00     0.209 HD
ATOM    147  H   ASG d 219      26.015 -15.699  93.042  0.00  0.00     0.163 HD
ATOM    148  H   ASG d 219      28.670 -14.966  93.864  0.00  0.00     0.084 H 
ATOM    149  H   ASG d 219      27.078 -13.079  92.160  0.00  0.00     0.132 H 
ENDROOT
TORSDOF 38
ENDMDL
MODEL 11
REMARK VINA RESULT:      -7.4      3.096      3.927
REMARK  0 active torsions:
REMARK  status: ('A' for Active; 'I' for Inactive)
REMARK       I    between atoms: C6_2  and  C5_55 
REMARK       I    between atoms: O4_3  and  C4_83 
REMARK       I    between atoms: O4_3  and  S_75 
REMARK       I    between atoms: C6_4  and  C5_67 
REMARK       I    between atoms: O4_5  and  C4_61 
REMARK       I    between atoms: O4_5  and  S_71 
REMARK       I    between atoms: O3_6  and  C3_32 
REMARK       I    between atoms: C1_8  and  O1_30 
REMARK       I    between atoms: C3_12  and  O3_62 
REMARK       I    between atoms: C5_13  and  C6_25 
REMARK       I    between atoms: O1_14  and  C4_39 
REMARK       I    between atoms: O1_14  and  C1_23 
REMARK       I    between atoms: C5_15  and  C6_27 
REMARK       I    between atoms: C5_18  and  C6_44 
REMARK       I    between atoms: C3_19  and  O1_82 
REMARK       I    between atoms: C2_20  and  N_89 
REMARK       I    between atoms: C2_21  and  O2_80 
REMARK       I    between atoms: C1_24  and  O1_45 
REMARK       I    between atoms: C6_25  and  O6_48 
REMARK       I    between atoms: C6_27  and  O6_77 
REMARK       I    between atoms: C7_28  and  C8_35 
REMARK       I    between atoms: C7_28  and  N_70 
REMARK       I    between atoms: O1_30  and  C3_43 
REMARK       I    between atoms: C4_33  and  O4_53 
REMARK       I    between atoms: S_34  and  O4_53 
REMARK       I    between atoms: O2_40  and  C2_87 
REMARK       I    between atoms: C7_41  and  C8_81 
REMARK       I    between atoms: C7_41  and  N_89 
REMARK       I    between atoms: O6_42  and  C6_88 
REMARK       I    between atoms: O1_45  and  C4_90 
REMARK       I    between atoms: C7_46  and  C8_69 
REMARK       I    between atoms: C7_46  and  N_85 
REMARK       I    between atoms: C2_47  and  N_85 
REMARK       I    between atoms: O1_50  and  C4_73 
REMARK       I    between atoms: O1_50  and  C1_76 
REMARK       I    between atoms: C1_52  and  O1_82 
REMARK       I    between atoms: C3_54  and  O3_72 
REMARK       I    between atoms: C5_57  and  C6_88 
REMARK       I    between atoms: O1_59  and  C1_78 
REMARK       I    between atoms: O2_63  and  C2_68 
REMARK       I    between atoms: N_70  and  C2_74 
ROOT
ATOM      1  O6B BDP d 216      24.271 -12.477  99.664  0.00  0.00    -0.646 OA
ATOM      2  C6  BDP d 216      24.754 -12.969 100.707  0.00  0.00     0.206 C 
ATOM      3  C3  BDP d 216      21.555 -14.036 102.605  0.00  0.00     0.092 C 
ATOM      4  O6A BDP d 216      25.955 -13.288 100.833  0.00  0.00    -0.646 OA
ATOM      5  O5  BDP d 216      23.478 -11.935 102.450  0.00  0.00    -0.340 OA
ATOM      6  C4  BDP d 216      22.572 -13.959 101.468  0.00  0.00     0.103 C 
ATOM      7  O2  BDP d 216      20.565 -12.791 104.411  0.00  0.00    -0.388 OA
ATOM      8  C5  BDP d 216      23.824 -13.191 101.897  0.00  0.00     0.152 C 
ATOM      9  O1  BDP d 216      22.510 -10.801 104.232  0.00  0.00    -0.368 OA
ATOM     10  O3  BDP d 216      20.322 -14.512 102.108  0.00  0.00    -0.390 OA
ATOM     11  C1  BDP d 216      22.704 -12.062 103.623  0.00  0.00     0.156 C 
ATOM     12  C2  BDP d 216      21.356 -12.667 103.252  0.00  0.00     0.110 C 
ATOM     13  H   BDP d 216      21.927 -14.710 103.348  0.00  0.00     0.091 H 
ATOM     14  H   BDP d 216      22.157 -13.423 100.640  0.00  0.00     0.092 H 
ATOM     15  H   BDP d 216      19.705 -13.176 104.176  0.00  0.00     0.210 HD
ATOM     16  H   BDP d 216      24.327 -13.778 102.637  0.00  0.00     0.104 H 
ATOM     17  H   BDP d 216      23.371 -10.420 104.467  0.00  0.00     0.212 HD
ATOM     18  H   BDP d 216      19.986 -13.900 101.435  0.00  0.00     0.210 HD
ATOM     19  H   BDP d 216      23.215 -12.694 104.320  0.00  0.00     0.133 H 
ATOM     20  H   BDP d 216      20.863 -12.026 102.551  0.00  0.00     0.094 H 
ATOM     21  O4  ASG d 217      20.931 -18.218  98.344  0.00  0.00    -0.246 OA
ATOM     22  O7  ASG d 217      24.675 -18.426 100.887  0.00  0.00    -0.274 OA
ATOM     23  O1  ASG d 217      22.878 -15.252 101.084  0.00  0.00    -0.348 OA
ATOM     24  C5  ASG d 217      20.719 -15.792  98.048  0.00  0.00     0.090 C 
ATOM     25  C1  ASG d 217      22.535 -15.519  99.734  0.00  0.00     0.154 C 
ATOM     26  C6  ASG d 217      19.178 -15.669  97.761  0.00  0.00     0.043 C 
ATOM     27  OSA ASG d 217      20.769 -19.636  96.241  0.00  0.00    -0.572 OA
ATOM     28  C3  ASG d 217      22.898 -16.933  97.655  0.00  0.00     0.094 C 
ATOM     29  C7  ASG d 217      25.336 -17.589 100.380  0.00  0.00     0.214 C 
ATOM     30  C2  ASG d 217      23.306 -16.727  99.109  0.00  0.00     0.087 C 
ATOM     31  O5  ASG d 217      21.064 -15.630  99.477  0.00  0.00    -0.349 OA
ATOM     32  OSB ASG d 217      18.793 -19.315  97.569  0.00  0.00    -0.572 OA
ATOM     33  OSC ASG d 217      20.590 -20.704  98.353  0.00  0.00    -0.572 OA
ATOM     34  C8  ASG d 217      26.859 -17.582 100.609  0.00  0.00    -0.003 C 
ATOM     35  S   ASG d 217      20.238 -19.509  97.597  0.00  0.00     0.252 S 
ATOM     36  O6  ASG d 217      18.649 -14.379  97.485  0.00  0.00    -0.398 OA
ATOM     37  C4  ASG d 217      21.385 -17.119  97.572  0.00  0.00     0.114 C 
ATOM     38  N   ASG d 217      24.752 -16.700  99.381  0.00  0.00    -0.349 N 
ATOM     39  H   ASG d 217      21.109 -14.983  97.465  0.00  0.00     0.090 H 
ATOM     40  H   ASG d 217      22.867 -14.639  99.224  0.00  0.00     0.132 H 
ATOM     41  H   ASG d 217      18.664 -16.045  98.621  0.00  0.00     0.078 H 
ATOM     42  H   ASG d 217      19.033 -16.216  96.853  0.00  0.00     0.078 H 
ATOM     43  H   ASG d 217      23.277 -16.107  97.090  0.00  0.00     0.091 H 
ATOM     44  H   ASG d 217      23.003 -17.622  99.612  0.00  0.00     0.084 H 
ATOM     45  H   ASG d 217      27.107 -18.290 101.372  0.00  0.00     0.040 H 
ATOM     46  H   ASG d 217      27.168 -16.605 100.915  0.00  0.00     0.040 H 
ATOM     47  H   ASG d 217      27.358 -17.847  99.700  0.00  0.00     0.040 H 
ATOM     48  H   ASG d 217      18.744 -13.816  98.269  0.00  0.00     0.209 HD
ATOM     49  H   ASG d 217      21.112 -17.342  96.561  0.00  0.00     0.093 H 
ATOM     50  H   ASG d 217      25.331 -16.077  98.884  0.00  0.00     0.163 HD
ATOM     51  C6  BDP d 218      24.746 -17.014  92.868  0.00  0.00     0.206 C 
ATOM     52  O3  BDP d 218      26.788 -20.808  95.227  0.00  0.00    -0.390 OA
ATOM     53  C1  BDP d 218      24.452 -18.151  96.384  0.00  0.00     0.160 C 
ATOM     54  C2  BDP d 218      25.074 -19.541  96.277  0.00  0.00     0.110 C 
ATOM     55  O6A BDP d 218      25.212 -15.901  92.536  0.00  0.00    -0.646 OA
ATOM     56  O1  BDP d 218      23.336 -18.191  97.252  0.00  0.00    -0.348 OA
ATOM     57  C3  BDP d 218      26.280 -19.503  95.356  0.00  0.00     0.092 C 
ATOM     58  O5  BDP d 218      24.067 -17.752  95.083  0.00  0.00    -0.340 OA
ATOM     59  C5  BDP d 218      25.176 -17.605  94.210  0.00  0.00     0.152 C 
ATOM     60  C4  BDP d 218      25.863 -18.950  93.997  0.00  0.00     0.103 C 
ATOM     61  O2  BDP d 218      25.471 -20.015  97.545  0.00  0.00    -0.388 OA
ATOM     62  O6B BDP d 218      23.964 -17.679  92.153  0.00  0.00    -0.646 OA
ATOM     63  H   BDP d 218      27.046 -21.142  96.101  0.00  0.00     0.210 HD
ATOM     64  H   BDP d 218      25.153 -17.450  96.787  0.00  0.00     0.133 H 
ATOM     65  H   BDP d 218      24.335 -20.204  95.877  0.00  0.00     0.094 H 
ATOM     66  H   BDP d 218      27.039 -18.868  95.761  0.00  0.00     0.091 H 
ATOM     67  H   BDP d 218      25.867 -16.928  94.666  0.00  0.00     0.104 H 
ATOM     68  H   BDP d 218      25.292 -19.706  93.501  0.00  0.00     0.092 H 
ATOM     69  H   BDP d 218      26.142 -19.420  97.917  0.00  0.00     0.210 HD
ATOM     70  O4  ASG d 221      28.154 -11.987  81.857  0.00  0.00    -0.249 OA
ATOM     71  OSB ASG d 221      27.133  -9.716  82.397  0.00  0.00    -0.572 OA
ATOM     72  OSC ASG d 221      29.316  -9.754  81.428  0.00  0.00    -0.572 OA
ATOM     73  C2  ASG d 221      28.085 -14.732  82.257  0.00  0.00     0.062 C 
ATOM     74  C1  ASG d 221      29.028 -14.700  83.508  0.00  0.00     0.151 C 
ATOM     75  C3  ASG d 221      28.779 -14.176  81.032  0.00  0.00    -0.014 C 
ATOM     76  O7  ASG d 221      26.593 -15.524  79.926  0.00  0.00    -0.274 OA
ATOM     77  C7  ASG d 221      26.868 -16.370  80.706  0.00  0.00     0.214 C 
ATOM     78  O6  ASG d 221      32.430 -11.851  83.403  0.00  0.00    -0.398 OA
ATOM     79  O1  ASG d 221      28.377 -15.013  84.736  0.00  0.00    -0.348 OA
ATOM     80  C5  ASG d 221      30.415 -12.986  82.281  0.00  0.00     0.088 C 
ATOM     81  C4  ASG d 221      29.216 -12.762  81.322  0.00  0.00     0.089 C 
ATOM     82  OSA ASG d 221      28.984 -10.430  83.696  0.00  0.00    -0.572 OA
ATOM     83  S   ASG d 221      28.407 -10.429  82.354  0.00  0.00     0.252 S 
ATOM     84  O5  ASG d 221      29.852 -13.445  83.570  0.00  0.00    -0.349 OA
ATOM     85  C8  ASG d 221      26.416 -17.816  80.440  0.00  0.00    -0.003 C 
ATOM     86  C6  ASG d 221      31.480 -11.830  82.348  0.00  0.00     0.043 C 
ATOM     87  N   ASG d 221      27.430 -16.030  82.013  0.00  0.00    -0.352 N 
ATOM     88  H   ASG d 221      27.269 -14.081  82.491  0.00  0.00     0.080 H 
ATOM     89  H   ASG d 221      29.720 -15.504  83.368  0.00  0.00     0.132 H 
ATOM     90  H   ASG d 221      28.102 -14.181  80.203  0.00  0.00     0.040 H 
ATOM     91  H   ASG d 221      29.630 -14.778  80.792  0.00  0.00     0.040 H 
ATOM     92  H   ASG d 221      33.020 -11.085  83.322  0.00  0.00     0.209 HD
ATOM     93  H   ASG d 221      31.053 -13.748  81.885  0.00  0.00     0.090 H 
ATOM     94  H   ASG d 221      29.498 -12.190  80.463  0.00  0.00     0.089 H 
ATOM     95  H   ASG d 221      26.032 -17.892  79.444  0.00  0.00     0.040 H 
ATOM     96  H   ASG d 221      25.651 -18.085  81.138  0.00  0.00     0.040 H 
ATOM     97  H   ASG d 221      27.249 -18.477  80.553  0.00  0.00     0.040 H 
ATOM     98  H   ASG d 221      32.027 -11.850  81.429  0.00  0.00     0.078 H 
ATOM     99  H   ASG d 221      30.901 -10.949  82.530  0.00  0.00     0.078 H 
ATOM    100  H   ASG d 221      27.369 -16.684  82.747  0.00  0.00     0.163 HD
ATOM    101  O5  BDP d 220      28.543 -17.837  86.853  0.00  0.00    -0.340 OA
ATOM    102  C5  BDP d 220      28.002 -16.907  85.937  0.00  0.00     0.152 C 
ATOM    103  C6  BDP d 220      27.410 -17.630  84.730  0.00  0.00     0.206 C 
ATOM    104  C1  BDP d 220      28.803 -17.235  88.102  0.00  0.00     0.160 C 
ATOM    105  C3  BDP d 220      29.569 -15.183  86.779  0.00  0.00     0.092 C 
ATOM    106  O2  BDP d 220      30.053 -15.474  89.127  0.00  0.00    -0.388 OA
ATOM    107  O6B BDP d 220      28.156 -18.395  84.072  0.00  0.00    -0.646 OA
ATOM    108  C2  BDP d 220      29.878 -16.169  87.912  0.00  0.00     0.110 C 
ATOM    109  O3  BDP d 220      30.733 -14.438  86.466  0.00  0.00    -0.390 OA
ATOM    110  O1  BDP d 220      29.268 -18.201  89.035  0.00  0.00    -0.348 OA
ATOM    111  O6A BDP d 220      26.203 -17.417  84.459  0.00  0.00    -0.646 OA
ATOM    112  C4  BDP d 220      29.081 -15.911  85.525  0.00  0.00     0.103 C 
ATOM    113  H   BDP d 220      27.206 -16.365  86.404  0.00  0.00     0.104 H 
ATOM    114  H   BDP d 220      27.901 -16.801  88.480  0.00  0.00     0.133 H 
ATOM    115  H   BDP d 220      28.791 -14.528  87.111  0.00  0.00     0.091 H 
ATOM    116  H   BDP d 220      30.248 -16.107  89.836  0.00  0.00     0.210 HD
ATOM    117  H   BDP d 220      30.779 -16.673  87.627  0.00  0.00     0.094 H 
ATOM    118  H   BDP d 220      31.432 -15.041  86.166  0.00  0.00     0.210 HD
ATOM    119  H   BDP d 220      29.923 -16.352  85.035  0.00  0.00     0.092 H 
ATOM    120  OSC ASG d 219      32.074 -21.786  90.816  0.00  0.00    -0.572 OA
ATOM    121  C5  ASG d 219      27.494 -21.030  90.609  0.00  0.00     0.090 C 
ATOM    122  C3  ASG d 219      28.249 -18.829  89.741  0.00  0.00     0.094 C 
ATOM    123  C6  ASG d 219      27.629 -22.591  90.578  0.00  0.00     0.043 C 
ATOM    124  C7  ASG d 219      28.622 -15.841  92.003  0.00  0.00     0.214 C 
ATOM    125  C4  ASG d 219      28.647 -20.292  89.876  0.00  0.00     0.114 C 
ATOM    126  S   ASG d 219      31.019 -21.509  89.843  0.00  0.00     0.252 S 
ATOM    127  C8  ASG d 219      28.256 -14.345  92.089  0.00  0.00    -0.003 C 
ATOM    128  O7  ASG d 219      29.479 -16.277  92.686  0.00  0.00    -0.274 OA
ATOM    129  O6  ASG d 219      26.742 -23.369  91.369  0.00  0.00    -0.398 OA
ATOM    130  OSB ASG d 219      30.446 -22.800  89.466  0.00  0.00    -0.572 OA
ATOM    131  O1  ASG d 219      26.995 -18.497  93.338  0.00  0.00    -0.348 OA
ATOM    132  O4  ASG d 219      29.883 -20.517  90.532  0.00  0.00    -0.246 OA
ATOM    133  OSA ASG d 219      31.540 -20.790  88.677  0.00  0.00    -0.572 OA
ATOM    134  O5  ASG d 219      27.456 -20.472  91.978  0.00  0.00    -0.349 OA
ATOM    135  N   ASG d 219      27.897 -16.734  91.103  0.00  0.00    -0.349 N 
ATOM    136  C2  ASG d 219      28.131 -18.190  91.116  0.00  0.00     0.087 C 
ATOM    137  C1  ASG d 219      27.136 -19.007  92.019  0.00  0.00     0.154 C 
ATOM    138  H   ASG d 219      26.564 -20.864  90.107  0.00  0.00     0.090 H 
ATOM    139  H   ASG d 219      27.307 -18.738  89.243  0.00  0.00     0.091 H 
ATOM    140  H   ASG d 219      28.623 -22.827  90.894  0.00  0.00     0.078 H 
ATOM    141  H   ASG d 219      27.376 -22.852  89.572  0.00  0.00     0.078 H 
ATOM    142  H   ASG d 219      28.800 -20.673  88.888  0.00  0.00     0.093 H 
ATOM    143  H   ASG d 219      27.463 -14.132  91.404  0.00  0.00     0.040 H 
ATOM    144  H   ASG d 219      29.113 -13.754  91.841  0.00  0.00     0.040 H 
ATOM    145  H   ASG d 219      27.939 -14.112  93.084  0.00  0.00     0.040 H 
ATOM    146  H   ASG d 219      26.906 -23.190  92.308  0.00  0.00     0.209 HD
ATOM    147  H   ASG d 219      27.239 -16.357  90.474  0.00  0.00     0.163 HD
ATOM    148  H   ASG d 219      29.096 -18.255  91.573  0.00  0.00     0.084 H 
ATOM    149  H   ASG d 219      26.162 -18.878  91.595  0.00  0.00     0.132 H 
ENDROOT
TORSDOF 38
ENDMDL
MODEL 12
REMARK VINA RESULT:      -7.3      2.410      2.721
REMARK  0 active torsions:
REMARK  status: ('A' for Active; 'I' for Inactive)
REMARK       I    between atoms: C6_2  and  C5_55 
REMARK       I    between atoms: O4_3  and  C4_83 
REMARK       I    between atoms: O4_3  and  S_75 
REMARK       I    between atoms: C6_4  and  C5_67 
REMARK       I    between atoms: O4_5  and  C4_61 
REMARK       I    between atoms: O4_5  and  S_71 
REMARK       I    between atoms: O3_6  and  C3_32 
REMARK       I    between atoms: C1_8  and  O1_30 
REMARK       I    between atoms: C3_12  and  O3_62 
REMARK       I    between atoms: C5_13  and  C6_25 
REMARK       I    between atoms: O1_14  and  C4_39 
REMARK       I    between atoms: O1_14  and  C1_23 
REMARK       I    between atoms: C5_15  and  C6_27 
REMARK       I    between atoms: C5_18  and  C6_44 
REMARK       I    between atoms: C3_19  and  O1_82 
REMARK       I    between atoms: C2_20  and  N_89 
REMARK       I    between atoms: C2_21  and  O2_80 
REMARK       I    between atoms: C1_24  and  O1_45 
REMARK       I    between atoms: C6_25  and  O6_48 
REMARK       I    between atoms: C6_27  and  O6_77 
REMARK       I    between atoms: C7_28  and  C8_35 
REMARK       I    between atoms: C7_28  and  N_70 
REMARK       I    between atoms: O1_30  and  C3_43 
REMARK       I    between atoms: C4_33  and  O4_53 
REMARK       I    between atoms: S_34  and  O4_53 
REMARK       I    between atoms: O2_40  and  C2_87 
REMARK       I    between atoms: C7_41  and  C8_81 
REMARK       I    between atoms: C7_41  and  N_89 
REMARK       I    between atoms: O6_42  and  C6_88 
REMARK       I    between atoms: O1_45  and  C4_90 
REMARK       I    between atoms: C7_46  and  C8_69 
REMARK       I    between atoms: C7_46  and  N_85 
REMARK       I    between atoms: C2_47  and  N_85 
REMARK       I    between atoms: O1_50  and  C4_73 
REMARK       I    between atoms: O1_50  and  C1_76 
REMARK       I    between atoms: C1_52  and  O1_82 
REMARK       I    between atoms: C3_54  and  O3_72 
REMARK       I    between atoms: C5_57  and  C6_88 
REMARK       I    between atoms: O1_59  and  C1_78 
REMARK       I    between atoms: O2_63  and  C2_68 
REMARK       I    between atoms: N_70  and  C2_74 
ROOT
ATOM      1  O6B BDP d 216      28.254 -11.487  99.080  0.00  0.00    -0.646 OA
ATOM      2  C6  BDP d 216      28.584 -12.293  99.978  0.00  0.00     0.206 C 
ATOM      3  C3  BDP d 216      25.466 -12.209 102.267  0.00  0.00     0.092 C 
ATOM      4  O6A BDP d 216      29.532 -13.099  99.873  0.00  0.00    -0.646 OA
ATOM      5  O5  BDP d 216      28.083 -11.108 101.997  0.00  0.00    -0.340 OA
ATOM      6  C4  BDP d 216      26.286 -12.387 100.991  0.00  0.00     0.103 C 
ATOM      7  O2  BDP d 216      25.318 -10.964 104.322  0.00  0.00    -0.388 OA
ATOM      8  C5  BDP d 216      27.785 -12.289 101.278  0.00  0.00     0.152 C 
ATOM      9  O1  BDP d 216      27.905  -9.968 104.014  0.00  0.00    -0.368 OA
ATOM     10  O3  BDP d 216      24.103 -12.042 101.938  0.00  0.00    -0.390 OA
ATOM     11  C1  BDP d 216      27.462 -11.082 103.265  0.00  0.00     0.156 C 
ATOM     12  C2  BDP d 216      25.955 -11.002 103.065  0.00  0.00     0.110 C 
ATOM     13  H   BDP d 216      25.585 -13.084 102.871  0.00  0.00     0.091 H 
ATOM     14  H   BDP d 216      26.059 -11.604 100.297  0.00  0.00     0.092 H 
ATOM     15  H   BDP d 216      24.358 -10.913 104.196  0.00  0.00     0.210 HD
ATOM     16  H   BDP d 216      28.059 -13.141 101.866  0.00  0.00     0.104 H 
ATOM     17  H   BDP d 216      28.866 -10.023 104.139  0.00  0.00     0.212 HD
ATOM     18  H   BDP d 216      23.997 -11.248 101.390  0.00  0.00     0.210 HD
ATOM     19  H   BDP d 216      27.719 -11.970 103.805  0.00  0.00     0.133 H 
ATOM     20  H   BDP d 216      25.717 -10.113 102.520  0.00  0.00     0.094 H 
ATOM     21  O4  ASG d 217      22.626 -15.024  97.791  0.00  0.00    -0.246 OA
ATOM     22  O7  ASG d 217      26.154 -17.172  99.650  0.00  0.00    -0.274 OA
ATOM     23  O1  ASG d 217      25.954 -13.612 100.440  0.00  0.00    -0.348 OA
ATOM     24  C5  ASG d 217      23.462 -12.717  97.765  0.00  0.00     0.090 C 
ATOM     25  C1  ASG d 217      25.385 -13.496  99.146  0.00  0.00     0.154 C 
ATOM     26  C6  ASG d 217      22.108 -11.919  97.750  0.00  0.00     0.043 C 
ATOM     27  OSA ASG d 217      21.636 -15.896  95.618  0.00  0.00    -0.572 OA
ATOM     28  C3  ASG d 217      24.869 -14.587  96.912  0.00  0.00     0.094 C 
ATOM     29  C7  ASG d 217      27.055 -16.620  99.123  0.00  0.00     0.214 C 
ATOM     30  C2  ASG d 217      25.480 -14.801  98.291  0.00  0.00     0.087 C 
ATOM     31  O5  ASG d 217      23.995 -12.941  99.127  0.00  0.00    -0.349 OA
ATOM     32  OSB ASG d 217      20.153 -14.991  97.279  0.00  0.00    -0.572 OA
ATOM     33  OSC ASG d 217      21.238 -17.108  97.620  0.00  0.00    -0.572 OA
ATOM     34  C8  ASG d 217      28.444 -17.285  99.098  0.00  0.00    -0.003 C 
ATOM     35  S   ASG d 217      21.362 -15.773  97.050  0.00  0.00     0.252 S 
ATOM     36  O6  ASG d 217      22.167 -10.500  97.688  0.00  0.00    -0.398 OA
ATOM     37  C4  ASG d 217      23.426 -14.109  97.062  0.00  0.00     0.114 C 
ATOM     38  N   ASG d 217      26.813 -15.424  98.322  0.00  0.00    -0.349 N 
ATOM     39  H   ASG d 217      24.100 -12.066  97.205  0.00  0.00     0.090 H 
ATOM     40  H   ASG d 217      26.011 -12.767  98.675  0.00  0.00     0.132 H 
ATOM     41  H   ASG d 217      21.577 -12.176  98.642  0.00  0.00     0.078 H 
ATOM     42  H   ASG d 217      21.641 -12.205  96.830  0.00  0.00     0.078 H 
ATOM     43  H   ASG d 217      25.506 -13.918  96.373  0.00  0.00     0.091 H 
ATOM     44  H   ASG d 217      24.873 -15.554  98.750  0.00  0.00     0.084 H 
ATOM     45  H   ASG d 217      28.440 -18.142  99.738  0.00  0.00     0.040 H 
ATOM     46  H   ASG d 217      29.179 -16.588  99.439  0.00  0.00     0.040 H 
ATOM     47  H   ASG d 217      28.676 -17.588  98.097  0.00  0.00     0.040 H 
ATOM     48  H   ASG d 217      22.582 -10.159  98.495  0.00  0.00     0.209 HD
ATOM     49  H   ASG d 217      22.976 -14.035  96.093  0.00  0.00     0.093 H 
ATOM     50  H   ASG d 217      27.548 -15.030  97.799  0.00  0.00     0.163 HD
ATOM     51  C6  BDP d 218      25.967 -14.682  91.900  0.00  0.00     0.206 C 
ATOM     52  O3  BDP d 218      26.393 -19.300  93.519  0.00  0.00    -0.390 OA
ATOM     53  C1  BDP d 218      25.589 -16.128  95.292  0.00  0.00     0.160 C 
ATOM     54  C2  BDP d 218      25.527 -17.614  94.953  0.00  0.00     0.110 C 
ATOM     55  O6A BDP d 218      26.833 -13.828  91.603  0.00  0.00    -0.646 OA
ATOM     56  O1  BDP d 218      24.668 -15.833  96.325  0.00  0.00    -0.348 OA
ATOM     57  C3  BDP d 218      26.521 -17.940  93.853  0.00  0.00     0.092 C 
ATOM     58  O5  BDP d 218      25.279 -15.405  94.117  0.00  0.00    -0.340 OA
ATOM     59  C5  BDP d 218      26.239 -15.600  93.091  0.00  0.00     0.152 C 
ATOM     60  C4  BDP d 218      26.244 -17.058  92.640  0.00  0.00     0.103 C 
ATOM     61  O2  BDP d 218      25.813 -18.403  96.087  0.00  0.00    -0.388 OA
ATOM     62  O6B BDP d 218      24.902 -14.839  91.264  0.00  0.00    -0.646 OA
ATOM     63  H   BDP d 218      26.573 -19.843  94.302  0.00  0.00     0.210 HD
ATOM     64  H   BDP d 218      26.564 -15.855  95.638  0.00  0.00     0.133 H 
ATOM     65  H   BDP d 218      24.535 -17.837  94.619  0.00  0.00     0.094 H 
ATOM     66  H   BDP d 218      27.521 -17.752  94.186  0.00  0.00     0.091 H 
ATOM     67  H   BDP d 218      27.201 -15.355  93.488  0.00  0.00     0.104 H 
ATOM     68  H   BDP d 218      25.351 -17.419  92.176  0.00  0.00     0.092 H 
ATOM     69  H   BDP d 218      26.711 -18.209  96.398  0.00  0.00     0.210 HD
ATOM     70  O4  ASG d 221      30.015  -9.882  81.005  0.00  0.00    -0.249 OA
ATOM     71  OSB ASG d 221      30.151  -7.507  81.919  0.00  0.00    -0.572 OA
ATOM     72  OSC ASG d 221      31.981  -8.301  80.603  0.00  0.00    -0.572 OA
ATOM     73  C2  ASG d 221      28.800 -12.372  81.149  0.00  0.00     0.062 C 
ATOM     74  C1  ASG d 221      29.792 -12.933  82.224  0.00  0.00     0.151 C 
ATOM     75  C3  ASG d 221      29.530 -11.972  79.884  0.00  0.00    -0.014 C 
ATOM     76  O7  ASG d 221      26.871 -12.093  79.031  0.00  0.00    -0.274 OA
ATOM     77  C7  ASG d 221      26.831 -13.087  79.671  0.00  0.00     0.214 C 
ATOM     78  O6  ASG d 221      34.062 -11.788  81.830  0.00  0.00    -0.398 OA
ATOM     79  O1  ASG d 221      29.206 -13.134  83.507  0.00  0.00    -0.348 OA
ATOM     80  C5  ASG d 221      31.646 -11.786  80.954  0.00  0.00     0.088 C 
ATOM     81  C4  ASG d 221      30.568 -10.935  80.230  0.00  0.00     0.089 C 
ATOM     82  OSA ASG d 221      31.634  -9.123  82.821  0.00  0.00    -0.572 OA
ATOM     83  S   ASG d 221      30.973  -8.671  81.598  0.00  0.00     0.252 S 
ATOM     84  O5  ASG d 221      31.082 -12.164  82.268  0.00  0.00    -0.349 OA
ATOM     85  C8  ASG d 221      25.768 -14.150  79.347  0.00  0.00    -0.003 C 
ATOM     86  C6  ASG d 221      33.108 -11.207  80.953  0.00  0.00     0.043 C 
ATOM     87  N   ASG d 221      27.623 -13.222  80.894  0.00  0.00    -0.352 N 
ATOM     88  H   ASG d 221      28.380 -11.485  81.574  0.00  0.00     0.080 H 
ATOM     89  H   ASG d 221      30.045 -13.920  81.896  0.00  0.00     0.132 H 
ATOM     90  H   ASG d 221      28.834 -11.564  79.181  0.00  0.00     0.040 H 
ATOM     91  H   ASG d 221      30.003 -12.829  79.451  0.00  0.00     0.040 H 
ATOM     92  H   ASG d 221      34.914 -11.336  81.726  0.00  0.00     0.209 HD
ATOM     93  H   ASG d 221      31.841 -12.673  80.387  0.00  0.00     0.090 H 
ATOM     94  H   ASG d 221      30.978 -10.406  79.396  0.00  0.00     0.089 H 
ATOM     95  H   ASG d 221      25.285 -13.902  78.426  0.00  0.00     0.040 H 
ATOM     96  H   ASG d 221      25.043 -14.181  80.133  0.00  0.00     0.040 H 
ATOM     97  H   ASG d 221      26.237 -15.108  79.258  0.00  0.00     0.040 H 
ATOM     98  H   ASG d 221      33.489 -11.309  79.958  0.00  0.00     0.078 H 
ATOM     99  H   ASG d 221      32.995 -10.205  81.311  0.00  0.00     0.078 H 
ATOM    100  H   ASG d 221      27.363 -13.897  81.562  0.00  0.00     0.163 HD
ATOM    101  O5  BDP d 220      28.352 -16.062  85.290  0.00  0.00    -0.340 OA
ATOM    102  C5  BDP d 220      28.175 -14.860  84.568  0.00  0.00     0.152 C 
ATOM    103  C6  BDP d 220      27.201 -15.071  83.412  0.00  0.00     0.206 C 
ATOM    104  C1  BDP d 220      28.982 -15.828  86.531  0.00  0.00     0.160 C 
ATOM    105  C3  BDP d 220      30.418 -14.104  85.300  0.00  0.00     0.092 C 
ATOM    106  O2  BDP d 220      30.977 -14.934  87.498  0.00  0.00    -0.388 OA
ATOM    107  O6B BDP d 220      27.463 -15.964  82.571  0.00  0.00    -0.646 OA
ATOM    108  C2  BDP d 220      30.387 -15.293  86.268  0.00  0.00     0.110 C 
ATOM    109  O3  BDP d 220      31.749 -13.875  84.872  0.00  0.00    -0.390 OA
ATOM    110  O1  BDP d 220      29.077 -17.032  87.278  0.00  0.00    -0.348 OA
ATOM    111  O6A BDP d 220      26.186 -14.334  83.366  0.00  0.00    -0.646 OA
ATOM    112  C4  BDP d 220      29.529 -14.355  84.081  0.00  0.00     0.103 C 
ATOM    113  H   BDP d 220      27.750 -14.116  85.210  0.00  0.00     0.104 H 
ATOM    114  H   BDP d 220      28.405 -15.122  87.091  0.00  0.00     0.133 H 
ATOM    115  H   BDP d 220      30.045 -13.244  85.817  0.00  0.00     0.091 H 
ATOM    116  H   BDP d 220      30.952 -15.693  88.102  0.00  0.00     0.210 HD
ATOM    117  H   BDP d 220      30.941 -16.076  85.792  0.00  0.00     0.094 H 
ATOM    118  H   BDP d 220      32.078 -14.659  84.405  0.00  0.00     0.210 HD
ATOM    119  H   BDP d 220      30.037 -15.025  83.419  0.00  0.00     0.092 H 
ATOM    120  OSC ASG d 219      30.213 -21.692  88.224  0.00  0.00    -0.572 OA
ATOM    121  C5  ASG d 219      26.428 -19.070  88.848  0.00  0.00     0.090 C 
ATOM    122  C3  ASG d 219      27.969 -17.280  88.080  0.00  0.00     0.094 C 
ATOM    123  C6  ASG d 219      25.865 -20.518  88.647  0.00  0.00     0.043 C 
ATOM    124  C7  ASG d 219      29.848 -15.115  90.523  0.00  0.00     0.214 C 
ATOM    125  C4  ASG d 219      27.701 -18.776  88.008  0.00  0.00     0.114 C 
ATOM    126  S   ASG d 219      29.287 -20.851  87.469  0.00  0.00     0.252 S 
ATOM    127  C8  ASG d 219      30.183 -13.637  90.810  0.00  0.00    -0.003 C 
ATOM    128  O7  ASG d 219      30.498 -15.971  91.010  0.00  0.00    -0.274 OA
ATOM    129  O6  ASG d 219      24.819 -20.968  89.496  0.00  0.00    -0.398 OA
ATOM    130  OSB ASG d 219      28.172 -21.708  87.071  0.00  0.00    -0.572 OA
ATOM    131  O1  ASG d 219      27.382 -17.022  91.850  0.00  0.00    -0.348 OA
ATOM    132  O4  ASG d 219      28.779 -19.597  88.427  0.00  0.00    -0.246 OA
ATOM    133  OSA ASG d 219      29.940 -20.243  86.307  0.00  0.00    -0.572 OA
ATOM    134  O5  ASG d 219      26.785 -18.769  90.251  0.00  0.00    -0.349 OA
ATOM    135  N   ASG d 219      28.714 -15.471  89.673  0.00  0.00    -0.349 N 
ATOM    136  C2  ASG d 219      28.291 -16.874  89.510  0.00  0.00     0.087 C 
ATOM    137  C1  ASG d 219      27.143 -17.331  90.483  0.00  0.00     0.154 C 
ATOM    138  H   ASG d 219      25.616 -18.454  88.524  0.00  0.00     0.090 H 
ATOM    139  H   ASG d 219      27.113 -16.727  87.755  0.00  0.00     0.091 H 
ATOM    140  H   ASG d 219      26.685 -21.195  88.771  0.00  0.00     0.078 H 
ATOM    141  H   ASG d 219      25.417 -20.489  87.676  0.00  0.00     0.078 H 
ATOM    142  H   ASG d 219      27.566 -19.026  86.977  0.00  0.00     0.093 H 
ATOM    143  H   ASG d 219      29.493 -13.007  90.287  0.00  0.00     0.040 H 
ATOM    144  H   ASG d 219      31.179 -13.427  90.480  0.00  0.00     0.040 H 
ATOM    145  H   ASG d 219      30.109 -13.452  91.861  0.00  0.00     0.040 H 
ATOM    146  H   ASG d 219      25.145 -21.024  90.408  0.00  0.00     0.209 HD
ATOM    147  H   ASG d 219      28.223 -14.760  89.201  0.00  0.00     0.163 HD
ATOM    148  H   ASG d 219      29.174 -17.406  89.793  0.00  0.00     0.084 H 
ATOM    149  H   ASG d 219      26.283 -16.742  90.239  0.00  0.00     0.132 H 
ENDROOT
TORSDOF 38
ENDMDL
MODEL 13
REMARK VINA RESULT:      -7.3      5.202      6.749
REMARK  0 active torsions:
REMARK  status: ('A' for Active; 'I' for Inactive)
REMARK       I    between atoms: C6_2  and  C5_55 
REMARK       I    between atoms: O4_3  and  C4_83 
REMARK       I    between atoms: O4_3  and  S_75 
REMARK       I    between atoms: C6_4  and  C5_67 
REMARK       I    between atoms: O4_5  and  C4_61 
REMARK       I    between atoms: O4_5  and  S_71 
REMARK       I    between atoms: O3_6  and  C3_32 
REMARK       I    between atoms: C1_8  and  O1_30 
REMARK       I    between atoms: C3_12  and  O3_62 
REMARK       I    between atoms: C5_13  and  C6_25 
REMARK       I    between atoms: O1_14  and  C4_39 
REMARK       I    between atoms: O1_14  and  C1_23 
REMARK       I    between atoms: C5_15  and  C6_27 
REMARK       I    between atoms: C5_18  and  C6_44 
REMARK       I    between atoms: C3_19  and  O1_82 
REMARK       I    between atoms: C2_20  and  N_89 
REMARK       I    between atoms: C2_21  and  O2_80 
REMARK       I    between atoms: C1_24  and  O1_45 
REMARK       I    between atoms: C6_25  and  O6_48 
REMARK       I    between atoms: C6_27  and  O6_77 
REMARK       I    between atoms: C7_28  and  C8_35 
REMARK       I    between atoms: C7_28  and  N_70 
REMARK       I    between atoms: O1_30  and  C3_43 
REMARK       I    between atoms: C4_33  and  O4_53 
REMARK       I    between atoms: S_34  and  O4_53 
REMARK       I    between atoms: O2_40  and  C2_87 
REMARK       I    between atoms: C7_41  and  C8_81 
REMARK       I    between atoms: C7_41  and  N_89 
REMARK       I    between atoms: O6_42  and  C6_88 
REMARK       I    between atoms: O1_45  and  C4_90 
REMARK       I    between atoms: C7_46  and  C8_69 
REMARK       I    between atoms: C7_46  and  N_85 
REMARK       I    between atoms: C2_47  and  N_85 
REMARK       I    between atoms: O1_50  and  C4_73 
REMARK       I    between atoms: O1_50  and  C1_76 
REMARK       I    between atoms: C1_52  and  O1_82 
REMARK       I    between atoms: C3_54  and  O3_72 
REMARK       I    between atoms: C5_57  and  C6_88 
REMARK       I    between atoms: O1_59  and  C1_78 
REMARK       I    between atoms: O2_63  and  C2_68 
REMARK       I    between atoms: N_70  and  C2_74 
ROOT
ATOM      1  O6B BDP d 216      30.709  -9.973  90.946  0.00  0.00    -0.646 OA
ATOM      2  C6  BDP d 216      30.710  -9.992  92.196  0.00  0.00     0.206 C 
ATOM      3  C3  BDP d 216      28.297  -7.079  93.009  0.00  0.00     0.092 C 
ATOM      4  O6A BDP d 216      31.135 -10.950  92.876  0.00  0.00    -0.646 OA
ATOM      5  O5  BDP d 216      31.072  -7.699  92.785  0.00  0.00    -0.340 OA
ATOM      6  C4  BDP d 216      28.780  -8.395  92.403  0.00  0.00     0.103 C 
ATOM      7  O2  BDP d 216      28.998  -4.876  93.676  0.00  0.00    -0.388 OA
ATOM      8  C5  BDP d 216      30.164  -8.774  92.936  0.00  0.00     0.152 C 
ATOM      9  O1  BDP d 216      31.692  -5.572  93.484  0.00  0.00    -0.368 OA
ATOM     10  O3  BDP d 216      27.154  -6.626  92.313  0.00  0.00    -0.390 OA
ATOM     11  C1  BDP d 216      30.687  -6.565  93.532  0.00  0.00     0.156 C 
ATOM     12  C2  BDP d 216      29.392  -6.016  92.949  0.00  0.00     0.110 C 
ATOM     13  H   BDP d 216      28.048  -7.249  94.035  0.00  0.00     0.091 H 
ATOM     14  H   BDP d 216      28.882  -8.295  91.342  0.00  0.00     0.092 H 
ATOM     15  H   BDP d 216      28.173  -4.524  93.306  0.00  0.00     0.210 HD
ATOM     16  H   BDP d 216      30.058  -9.006  93.975  0.00  0.00     0.104 H 
ATOM     17  H   BDP d 216      32.515  -5.925  93.857  0.00  0.00     0.212 HD
ATOM     18  H   BDP d 216      27.382  -6.472  91.383  0.00  0.00     0.210 HD
ATOM     19  H   BDP d 216      30.544  -6.845  94.555  0.00  0.00     0.133 H 
ATOM     20  H   BDP d 216      29.551  -5.747  91.925  0.00  0.00     0.094 H 
ATOM     21  O4  ASG d 217      23.969 -10.609  90.809  0.00  0.00    -0.246 OA
ATOM     22  O7  ASG d 217      26.215 -12.138  94.434  0.00  0.00    -0.274 OA
ATOM     23  O1  ASG d 217      27.841  -9.367  92.695  0.00  0.00    -0.348 OA
ATOM     24  C5  ASG d 217      25.802  -9.585  89.539  0.00  0.00     0.090 C 
ATOM     25  C1  ASG d 217      27.256  -9.933  91.534  0.00  0.00     0.154 C 
ATOM     26  C6  ASG d 217      25.007  -8.542  88.672  0.00  0.00     0.043 C 
ATOM     27  OSA ASG d 217      22.445 -12.188  89.525  0.00  0.00    -0.572 OA
ATOM     28  C3  ASG d 217      26.031 -11.885  90.467  0.00  0.00     0.094 C 
ATOM     29  C7  ASG d 217      27.205 -12.540  93.930  0.00  0.00     0.214 C 
ATOM     30  C2  ASG d 217      26.615 -11.339  91.764  0.00  0.00     0.087 C 
ATOM     31  O5  ASG d 217      26.312  -9.024  90.809  0.00  0.00    -0.349 OA
ATOM     32  OSB ASG d 217      21.777  -9.893  89.779  0.00  0.00    -0.572 OA
ATOM     33  OSC ASG d 217      21.741 -11.399  91.651  0.00  0.00    -0.572 OA
ATOM     34  C8  ASG d 217      28.089 -13.545  94.691  0.00  0.00    -0.003 C 
ATOM     35  S   ASG d 217      22.427 -11.030  90.420  0.00  0.00     0.252 S 
ATOM     36  O6  ASG d 217      25.733  -7.751  87.741  0.00  0.00    -0.398 OA
ATOM     37  C4  ASG d 217      25.023 -10.886  89.902  0.00  0.00     0.114 C 
ATOM     38  N   ASG d 217      27.479 -12.257  92.525  0.00  0.00    -0.349 N 
ATOM     39  H   ASG d 217      26.607  -9.838  88.881  0.00  0.00     0.090 H 
ATOM     40  H   ASG d 217      28.098 -10.074  90.887  0.00  0.00     0.132 H 
ATOM     41  H   ASG d 217      24.522  -7.870  89.349  0.00  0.00     0.078 H 
ATOM     42  H   ASG d 217      24.360  -9.140  88.065  0.00  0.00     0.078 H 
ATOM     43  H   ASG d 217      26.847 -12.114  89.813  0.00  0.00     0.091 H 
ATOM     44  H   ASG d 217      25.777 -11.228  92.421  0.00  0.00     0.084 H 
ATOM     45  H   ASG d 217      27.746 -13.628  95.701  0.00  0.00     0.040 H 
ATOM     46  H   ASG d 217      29.102 -13.202  94.686  0.00  0.00     0.040 H 
ATOM     47  H   ASG d 217      28.033 -14.502  94.215  0.00  0.00     0.040 H 
ATOM     48  H   ASG d 217      26.350  -7.174  88.219  0.00  0.00     0.209 HD
ATOM     49  H   ASG d 217      24.558 -11.307  89.034  0.00  0.00     0.093 H 
ATOM     50  H   ASG d 217      28.248 -12.682  92.082  0.00  0.00     0.163 HD
ATOM     51  C6  BDP d 218      26.376 -15.794  87.160  0.00  0.00     0.206 C 
ATOM     52  O3  BDP d 218      24.709 -17.669  91.382  0.00  0.00    -0.390 OA
ATOM     53  C1  BDP d 218      25.735 -14.215  90.452  0.00  0.00     0.160 C 
ATOM     54  C2  BDP d 218      24.928 -15.316  91.133  0.00  0.00     0.110 C 
ATOM     55  O6A BDP d 218      27.506 -15.843  86.623  0.00  0.00    -0.646 OA
ATOM     56  O1  BDP d 218      25.191 -12.950  90.779  0.00  0.00    -0.348 OA
ATOM     57  C3  BDP d 218      25.512 -16.676  90.795  0.00  0.00     0.092 C 
ATOM     58  O5  BDP d 218      25.680 -14.442  89.057  0.00  0.00    -0.340 OA
ATOM     59  C5  BDP d 218      26.306 -15.658  88.680  0.00  0.00     0.152 C 
ATOM     60  C4  BDP d 218      25.558 -16.846  89.280  0.00  0.00     0.103 C 
ATOM     61  O2  BDP d 218      24.925 -15.146  92.533  0.00  0.00    -0.388 OA
ATOM     62  O6B BDP d 218      25.303 -15.869  86.522  0.00  0.00    -0.646 OA
ATOM     63  H   BDP d 218      24.693 -17.544  92.344  0.00  0.00     0.210 HD
ATOM     64  H   BDP d 218      26.752 -14.227  90.781  0.00  0.00     0.133 H 
ATOM     65  H   BDP d 218      23.921 -15.258  90.777  0.00  0.00     0.094 H 
ATOM     66  H   BDP d 218      26.509 -16.759  91.174  0.00  0.00     0.091 H 
ATOM     67  H   BDP d 218      27.305 -15.647  89.060  0.00  0.00     0.104 H 
ATOM     68  H   BDP d 218      24.556 -17.001  88.941  0.00  0.00     0.092 H 
ATOM     69  H   BDP d 218      25.835 -15.198  92.867  0.00  0.00     0.210 HD
ATOM     70  O4  ASG d 221      30.977 -21.965  77.215  0.00  0.00    -0.249 OA
ATOM     71  OSB ASG d 221      32.339 -19.968  76.407  0.00  0.00    -0.572 OA
ATOM     72  OSC ASG d 221      33.400 -22.109  76.424  0.00  0.00    -0.572 OA
ATOM     73  C2  ASG d 221      28.739 -22.860  78.590  0.00  0.00     0.062 C 
ATOM     74  C1  ASG d 221      29.453 -22.890  79.985  0.00  0.00     0.151 C 
ATOM     75  C3  ASG d 221      29.423 -23.781  77.603  0.00  0.00    -0.014 C 
ATOM     76  O7  ASG d 221      26.957 -23.309  76.375  0.00  0.00    -0.274 OA
ATOM     77  C7  ASG d 221      26.517 -23.460  77.463  0.00  0.00     0.214 C 
ATOM     78  O6  ASG d 221      33.673 -24.265  80.067  0.00  0.00    -0.398 OA
ATOM     79  O1  ASG d 221      28.991 -21.897  80.896  0.00  0.00    -0.348 OA
ATOM     80  C5  ASG d 221      31.474 -23.837  78.807  0.00  0.00     0.088 C 
ATOM     81  C4  ASG d 221      30.864 -23.357  77.462  0.00  0.00     0.089 C 
ATOM     82  OSA ASG d 221      32.954 -20.961  78.472  0.00  0.00    -0.572 OA
ATOM     83  S   ASG d 221      32.459 -21.235  77.124  0.00  0.00     0.252 S 
ATOM     84  O5  ASG d 221      30.950 -22.939  79.859  0.00  0.00    -0.349 OA
ATOM     85  C8  ASG d 221      25.045 -23.874  77.630  0.00  0.00    -0.003 C 
ATOM     86  C6  ASG d 221      33.024 -24.104  78.814  0.00  0.00     0.043 C 
ATOM     87  N   ASG d 221      27.278 -23.050  78.642  0.00  0.00    -0.352 N 
ATOM     88  H   ASG d 221      28.848 -21.859  78.229  0.00  0.00     0.080 H 
ATOM     89  H   ASG d 221      29.162 -23.815  80.438  0.00  0.00     0.132 H 
ATOM     90  H   ASG d 221      28.935 -23.716  76.653  0.00  0.00     0.040 H 
ATOM     91  H   ASG d 221      29.374 -24.791  77.953  0.00  0.00     0.040 H 
ATOM     92  H   ASG d 221      34.619 -24.422  79.923  0.00  0.00     0.209 HD
ATOM     93  H   ASG d 221      31.154 -24.839  79.008  0.00  0.00     0.090 H 
ATOM     94  H   ASG d 221      31.380 -23.775  76.624  0.00  0.00     0.089 H 
ATOM     95  H   ASG d 221      24.640 -24.143  76.677  0.00  0.00     0.040 H 
ATOM     96  H   ASG d 221      24.488 -23.056  78.036  0.00  0.00     0.040 H 
ATOM     97  H   ASG d 221      24.983 -24.711  78.293  0.00  0.00     0.040 H 
ATOM     98  H   ASG d 221      33.194 -24.999  78.253  0.00  0.00     0.078 H 
ATOM     99  H   ASG d 221      33.447 -23.209  78.409  0.00  0.00     0.078 H 
ATOM    100  H   ASG d 221      26.803 -22.896  79.491  0.00  0.00     0.163 HD
ATOM    101  O5  BDP d 220      27.042 -22.102  83.836  0.00  0.00    -0.340 OA
ATOM    102  C5  BDP d 220      27.385 -21.788  82.501  0.00  0.00     0.152 C 
ATOM    103  C6  BDP d 220      26.306 -22.287  81.543  0.00  0.00     0.206 C 
ATOM    104  C1  BDP d 220      27.842 -21.386  84.752  0.00  0.00     0.160 C 
ATOM    105  C3  BDP d 220      29.781 -21.782  83.129  0.00  0.00     0.092 C 
ATOM    106  O2  BDP d 220      30.116 -21.034  85.401  0.00  0.00    -0.388 OA
ATOM    107  O6B BDP d 220      26.010 -23.505  81.565  0.00  0.00    -0.646 OA
ATOM    108  C2  BDP d 220      29.291 -21.833  84.582  0.00  0.00     0.110 C 
ATOM    109  O3  BDP d 220      31.001 -22.494  83.014  0.00  0.00    -0.390 OA
ATOM    110  O1  BDP d 220      27.430 -21.649  86.086  0.00  0.00    -0.348 OA
ATOM    111  O6A BDP d 220      25.772 -21.445  80.780  0.00  0.00    -0.646 OA
ATOM    112  C4  BDP d 220      28.750 -22.383  82.172  0.00  0.00     0.103 C 
ATOM    113  H   BDP d 220      27.445 -20.726  82.386  0.00  0.00     0.104 H 
ATOM    114  H   BDP d 220      27.744 -20.338  84.563  0.00  0.00     0.133 H 
ATOM    115  H   BDP d 220      29.928 -20.756  82.864  0.00  0.00     0.091 H 
ATOM    116  H   BDP d 220      29.797 -21.073  86.316  0.00  0.00     0.210 HD
ATOM    117  H   BDP d 220      29.344 -22.862  84.875  0.00  0.00     0.094 H 
ATOM    118  H   BDP d 220      30.857 -23.423  83.256  0.00  0.00     0.210 HD
ATOM    119  H   BDP d 220      28.795 -23.450  82.247  0.00  0.00     0.092 H 
ATOM    120  OSC ASG d 219      26.285 -24.306  90.027  0.00  0.00    -0.572 OA
ATOM    121  C5  ASG d 219      24.324 -20.703  87.844  0.00  0.00     0.090 C 
ATOM    122  C3  ASG d 219      26.438 -20.790  86.543  0.00  0.00     0.094 C 
ATOM    123  C6  ASG d 219      23.116 -21.477  88.473  0.00  0.00     0.043 C 
ATOM    124  C7  ASG d 219      29.388 -18.623  87.429  0.00  0.00     0.214 C 
ATOM    125  C4  ASG d 219      25.478 -21.629  87.372  0.00  0.00     0.114 C 
ATOM    126  S   ASG d 219      25.799 -23.917  88.705  0.00  0.00     0.252 S 
ATOM    127  C8  ASG d 219      30.422 -17.677  86.785  0.00  0.00    -0.003 C 
ATOM    128  O7  ASG d 219      29.597 -19.084  88.494  0.00  0.00    -0.274 OA
ATOM    129  O6  ASG d 219      22.085 -20.734  89.108  0.00  0.00    -0.398 OA
ATOM    130  OSB ASG d 219      24.372 -24.234  88.673  0.00  0.00    -0.572 OA
ATOM    131  O1  ASG d 219      26.476 -17.837  88.973  0.00  0.00    -0.348 OA
ATOM    132  O4  ASG d 219      26.068 -22.297  88.476  0.00  0.00    -0.246 OA
ATOM    133  OSA ASG d 219      26.528 -24.610  87.640  0.00  0.00    -0.572 OA
ATOM    134  O5  ASG d 219      24.937 -19.723  88.766  0.00  0.00    -0.349 OA
ATOM    135  N   ASG d 219      28.135 -18.933  86.745  0.00  0.00    -0.349 N 
ATOM    136  C2  ASG d 219      27.074 -19.714  87.408  0.00  0.00     0.087 C 
ATOM    137  C1  ASG d 219      25.966 -18.847  88.113  0.00  0.00     0.154 C 
ATOM    138  H   ASG d 219      23.877 -20.208  87.008  0.00  0.00     0.090 H 
ATOM    139  H   ASG d 219      25.923 -20.314  85.735  0.00  0.00     0.091 H 
ATOM    140  H   ASG d 219      23.517 -22.147  89.203  0.00  0.00     0.078 H 
ATOM    141  H   ASG d 219      22.631 -21.926  87.632  0.00  0.00     0.078 H 
ATOM    142  H   ASG d 219      25.124 -22.421  86.745  0.00  0.00     0.093 H 
ATOM    143  H   ASG d 219      30.066 -17.358  85.827  0.00  0.00     0.040 H 
ATOM    144  H   ASG d 219      31.352 -18.192  86.667  0.00  0.00     0.040 H 
ATOM    145  H   ASG d 219      30.565 -16.823  87.414  0.00  0.00     0.040 H 
ATOM    146  H   ASG d 219      22.445 -20.288  89.892  0.00  0.00     0.209 HD
ATOM    147  H   ASG d 219      27.996 -18.616  85.823  0.00  0.00     0.163 HD
ATOM    148  H   ASG d 219      27.618 -20.216  88.180  0.00  0.00     0.084 H 
ATOM    149  H   ASG d 219      25.474 -18.295  87.341  0.00  0.00     0.132 H 
ENDROOT
TORSDOF 38
ENDMDL
MODEL 14
REMARK VINA RESULT:      -7.3      4.339     16.100
REMARK  0 active torsions:
REMARK  status: ('A' for Active; 'I' for Inactive)
REMARK       I    between atoms: C6_2  and  C5_55 
REMARK       I    between atoms: O4_3  and  C4_83 
REMARK       I    between atoms: O4_3  and  S_75 
REMARK       I    between atoms: C6_4  and  C5_67 
REMARK       I    between atoms: O4_5  and  C4_61 
REMARK       I    between atoms: O4_5  and  S_71 
REMARK       I    between atoms: O3_6  and  C3_32 
REMARK       I    between atoms: C1_8  and  O1_30 
REMARK       I    between atoms: C3_12  and  O3_62 
REMARK       I    between atoms: C5_13  and  C6_25 
REMARK       I    between atoms: O1_14  and  C4_39 
REMARK       I    between atoms: O1_14  and  C1_23 
REMARK       I    between atoms: C5_15  and  C6_27 
REMARK       I    between atoms: C5_18  and  C6_44 
REMARK       I    between atoms: C3_19  and  O1_82 
REMARK       I    between atoms: C2_20  and  N_89 
REMARK       I    between atoms: C2_21  and  O2_80 
REMARK       I    between atoms: C1_24  and  O1_45 
REMARK       I    between atoms: C6_25  and  O6_48 
REMARK       I    between atoms: C6_27  and  O6_77 
REMARK       I    between atoms: C7_28  and  C8_35 
REMARK       I    between atoms: C7_28  and  N_70 
REMARK       I    between atoms: O1_30  and  C3_43 
REMARK       I    between atoms: C4_33  and  O4_53 
REMARK       I    between atoms: S_34  and  O4_53 
REMARK       I    between atoms: O2_40  and  C2_87 
REMARK       I    between atoms: C7_41  and  C8_81 
REMARK       I    between atoms: C7_41  and  N_89 
REMARK       I    between atoms: O6_42  and  C6_88 
REMARK       I    between atoms: O1_45  and  C4_90 
REMARK       I    between atoms: C7_46  and  C8_69 
REMARK       I    between atoms: C7_46  and  N_85 
REMARK       I    between atoms: C2_47  and  N_85 
REMARK       I    between atoms: O1_50  and  C4_73 
REMARK       I    between atoms: O1_50  and  C1_76 
REMARK       I    between atoms: C1_52  and  O1_82 
REMARK       I    between atoms: C3_54  and  O3_72 
REMARK       I    between atoms: C5_57  and  C6_88 
REMARK       I    between atoms: O1_59  and  C1_78 
REMARK       I    between atoms: O2_63  and  C2_68 
REMARK       I    between atoms: N_70  and  C2_74 
ROOT
ATOM      1  O6B BDP d 216      31.038 -17.861  82.395  0.00  0.00    -0.646 OA
ATOM      2  C6  BDP d 216      31.813 -17.069  81.817  0.00  0.00     0.206 C 
ATOM      3  C3  BDP d 216      30.050 -16.626  78.401  0.00  0.00     0.092 C 
ATOM      4  O6A BDP d 216      32.692 -16.405  82.405  0.00  0.00    -0.646 OA
ATOM      5  O5  BDP d 216      32.146 -18.084  79.674  0.00  0.00    -0.340 OA
ATOM      6  C4  BDP d 216      30.229 -16.618  79.918  0.00  0.00     0.103 C 
ATOM      7  O2  BDP d 216      30.707 -17.746  76.375  0.00  0.00    -0.388 OA
ATOM      8  C5  BDP d 216      31.681 -16.906  80.306  0.00  0.00     0.152 C 
ATOM      9  O1  BDP d 216      32.769 -19.098  77.678  0.00  0.00    -0.368 OA
ATOM     10  O3  BDP d 216      28.674 -16.620  78.084  0.00  0.00    -0.390 OA
ATOM     11  C1  BDP d 216      32.156 -17.968  78.267  0.00  0.00     0.156 C 
ATOM     12  C2  BDP d 216      30.717 -17.851  77.780  0.00  0.00     0.110 C 
ATOM     13  H   BDP d 216      30.514 -15.749  78.001  0.00  0.00     0.091 H 
ATOM     14  H   BDP d 216      29.639 -17.394  80.361  0.00  0.00     0.092 H 
ATOM     15  H   BDP d 216      29.791 -17.672  76.063  0.00  0.00     0.210 HD
ATOM     16  H   BDP d 216      32.273 -16.074  79.984  0.00  0.00     0.104 H 
ATOM     17  H   BDP d 216      33.685 -19.168  77.991  0.00  0.00     0.212 HD
ATOM     18  H   BDP d 216      28.255 -17.416  78.449  0.00  0.00     0.210 HD
ATOM     19  H   BDP d 216      32.714 -17.100  77.985  0.00  0.00     0.133 H 
ATOM     20  H   BDP d 216      30.172 -18.723  78.075  0.00  0.00     0.094 H 
ATOM     21  O4  ASG d 217      25.817 -13.654  81.448  0.00  0.00    -0.246 OA
ATOM     22  O7  ASG d 217      30.004 -11.924  81.540  0.00  0.00    -0.274 OA
ATOM     23  O1  ASG d 217      29.814 -15.386  80.388  0.00  0.00    -0.348 OA
ATOM     24  C5  ASG d 217      26.315 -16.052  81.604  0.00  0.00     0.090 C 
ATOM     25  C1  ASG d 217      28.720 -15.481  81.286  0.00  0.00     0.154 C 
ATOM     26  C6  ASG d 217      25.022 -16.659  80.947  0.00  0.00     0.043 C 
ATOM     27  OSA ASG d 217      24.058 -12.754  83.047  0.00  0.00    -0.572 OA
ATOM     28  C3  ASG d 217      27.377 -14.431  83.168  0.00  0.00     0.094 C 
ATOM     29  C7  ASG d 217      30.514 -12.617  82.349  0.00  0.00     0.214 C 
ATOM     30  C2  ASG d 217      28.556 -14.240  82.223  0.00  0.00     0.087 C 
ATOM     31  O5  ASG d 217      27.418 -15.842  80.641  0.00  0.00    -0.349 OA
ATOM     32  OSB ASG d 217      23.387 -13.373  80.824  0.00  0.00    -0.572 OA
ATOM     33  OSC ASG d 217      24.719 -11.411  81.204  0.00  0.00    -0.572 OA
ATOM     34  C8  ASG d 217      31.805 -12.148  83.044  0.00  0.00    -0.003 C 
ATOM     35  S   ASG d 217      24.440 -12.774  81.635  0.00  0.00     0.252 S 
ATOM     36  O6  ASG d 217      24.902 -18.073  80.886  0.00  0.00    -0.398 OA
ATOM     37  C4  ASG d 217      26.112 -14.701  82.357  0.00  0.00     0.114 C 
ATOM     38  N   ASG d 217      29.820 -13.804  82.839  0.00  0.00    -0.349 N 
ATOM     39  H   ASG d 217      26.566 -16.808  82.318  0.00  0.00     0.090 H 
ATOM     40  H   ASG d 217      28.992 -16.308  81.907  0.00  0.00     0.132 H 
ATOM     41  H   ASG d 217      24.973 -16.292  79.943  0.00  0.00     0.078 H 
ATOM     42  H   ASG d 217      24.226 -16.353  81.595  0.00  0.00     0.078 H 
ATOM     43  H   ASG d 217      27.636 -15.204  83.861  0.00  0.00     0.091 H 
ATOM     44  H   ASG d 217      28.298 -13.392  81.623  0.00  0.00     0.084 H 
ATOM     45  H   ASG d 217      32.175 -11.271  82.555  0.00  0.00     0.040 H 
ATOM     46  H   ASG d 217      32.541 -12.923  82.989  0.00  0.00     0.040 H 
ATOM     47  H   ASG d 217      31.597 -11.925  84.070  0.00  0.00     0.040 H 
ATOM     48  H   ASG d 217      25.596 -18.432  80.311  0.00  0.00     0.209 HD
ATOM     49  H   ASG d 217      25.273 -14.756  83.020  0.00  0.00     0.093 H 
ATOM     50  H   ASG d 217      30.200 -14.317  83.588  0.00  0.00     0.163 HD
ATOM     51  C6  BDP d 218      26.132 -14.710  88.139  0.00  0.00     0.206 C 
ATOM     52  O3  BDP d 218      27.703 -10.125  87.340  0.00  0.00    -0.390 OA
ATOM     53  C1  BDP d 218      27.454 -13.076  85.085  0.00  0.00     0.160 C 
ATOM     54  C2  BDP d 218      27.399 -11.611  85.511  0.00  0.00     0.110 C 
ATOM     55  O6A BDP d 218      26.682 -15.686  88.697  0.00  0.00    -0.646 OA
ATOM     56  O1  BDP d 218      27.064 -13.196  83.731  0.00  0.00    -0.348 OA
ATOM     57  C3  BDP d 218      27.827 -11.474  86.961  0.00  0.00     0.092 C 
ATOM     58  O5  BDP d 218      26.580 -13.801  85.929  0.00  0.00    -0.340 OA
ATOM     59  C5  BDP d 218      26.998 -13.785  87.285  0.00  0.00     0.152 C 
ATOM     60  C4  BDP d 218      26.950 -12.363  87.836  0.00  0.00     0.103 C 
ATOM     61  O2  BDP d 218      28.239 -10.819  84.700  0.00  0.00    -0.388 OA
ATOM     62  O6B BDP d 218      24.916 -14.439  88.259  0.00  0.00    -0.646 OA
ATOM     63  H   BDP d 218      28.267  -9.577  86.772  0.00  0.00     0.210 HD
ATOM     64  H   BDP d 218      28.447 -13.463  85.174  0.00  0.00     0.133 H 
ATOM     65  H   BDP d 218      26.391 -11.271  85.399  0.00  0.00     0.094 H 
ATOM     66  H   BDP d 218      28.845 -11.780  87.080  0.00  0.00     0.091 H 
ATOM     67  H   BDP d 218      28.005 -14.141  87.325  0.00  0.00     0.104 H 
ATOM     68  H   BDP d 218      25.985 -11.905  87.898  0.00  0.00     0.092 H 
ATOM     69  H   BDP d 218      29.157 -11.119  84.795  0.00  0.00     0.210 HD
ATOM     70  O4  ASG d 221      24.391 -20.498  99.166  0.00  0.00    -0.249 OA
ATOM     71  OSB ASG d 221      24.677 -22.826  98.170  0.00  0.00    -0.572 OA
ATOM     72  OSC ASG d 221      25.799 -22.348 100.224  0.00  0.00    -0.572 OA
ATOM     73  C2  ASG d 221      23.628 -17.862  98.757  0.00  0.00     0.062 C 
ATOM     74  C1  ASG d 221      25.047 -17.393  98.284  0.00  0.00     0.151 C 
ATOM     75  C3  ASG d 221      23.673 -18.413 100.166  0.00  0.00    -0.014 C 
ATOM     76  O7  ASG d 221      20.940 -17.971  99.781  0.00  0.00    -0.274 OA
ATOM     77  C7  ASG d 221      21.292 -16.953  99.291  0.00  0.00     0.214 C 
ATOM     78  O6  ASG d 221      28.553 -19.125 100.385  0.00  0.00    -0.398 OA
ATOM     79  O1  ASG d 221      25.117 -17.058  96.902  0.00  0.00    -0.348 OA
ATOM     80  C5  ASG d 221      26.013 -18.838 100.114  0.00  0.00     0.088 C 
ATOM     81  C4  ASG d 221      24.645 -19.566 100.205  0.00  0.00     0.089 C 
ATOM     82  OSA ASG d 221      26.562 -21.388  98.172  0.00  0.00    -0.572 OA
ATOM     83  S   ASG d 221      25.384 -21.801  98.932  0.00  0.00     0.252 S 
ATOM     84  O5  ASG d 221      26.135 -18.328  98.731  0.00  0.00    -0.349 OA
ATOM     85  C8  ASG d 221      20.310 -15.771  99.224  0.00  0.00    -0.003 C 
ATOM     86  C6  ASG d 221      27.254 -19.609 100.694  0.00  0.00     0.043 C 
ATOM     87  N   ASG d 221      22.554 -16.872  98.557  0.00  0.00    -0.352 N 
ATOM     88  H   ASG d 221      23.353 -18.664  98.105  0.00  0.00     0.080 H 
ATOM     89  H   ASG d 221      25.226 -16.466  98.787  0.00  0.00     0.132 H 
ATOM     90  H   ASG d 221      22.700 -18.754 100.451  0.00  0.00     0.040 H 
ATOM     91  H   ASG d 221      23.988 -17.649 100.846  0.00  0.00     0.040 H 
ATOM     92  H   ASG d 221      29.218 -19.692 100.804  0.00  0.00     0.209 HD
ATOM     93  H   ASG d 221      26.025 -18.012 100.795  0.00  0.00     0.090 H 
ATOM     94  H   ASG d 221      24.584 -20.182 101.078  0.00  0.00     0.089 H 
ATOM     95  H   ASG d 221      19.445 -15.992  99.812  0.00  0.00     0.040 H 
ATOM     96  H   ASG d 221      20.019 -15.606  98.208  0.00  0.00     0.040 H 
ATOM     97  H   ASG d 221      20.785 -14.891  99.605  0.00  0.00     0.040 H 
ATOM     98  H   ASG d 221      27.161 -19.605 101.760  0.00  0.00     0.078 H 
ATOM     99  H   ASG d 221      27.211 -20.569 100.225  0.00  0.00     0.078 H 
ATOM    100  H   ASG d 221      22.689 -16.139  97.914  0.00  0.00     0.163 HD
ATOM    101  O5  BDP d 220      25.451 -13.964  95.229  0.00  0.00    -0.340 OA
ATOM    102  C5  BDP d 220      24.849 -15.162  95.676  0.00  0.00     0.152 C 
ATOM    103  C6  BDP d 220      23.489 -14.872  96.306  0.00  0.00     0.206 C 
ATOM    104  C1  BDP d 220      26.539 -14.226  94.370  0.00  0.00     0.160 C 
ATOM    105  C3  BDP d 220      27.093 -16.183  95.924  0.00  0.00     0.092 C 
ATOM    106  O2  BDP d 220      28.653 -15.338  94.286  0.00  0.00    -0.388 OA
ATOM    107  O6B BDP d 220      23.438 -14.062  97.262  0.00  0.00    -0.646 OA
ATOM    108  C2  BDP d 220      27.617 -14.958  95.164  0.00  0.00     0.110 C 
ATOM    109  O3  BDP d 220      28.062 -16.609  96.865  0.00  0.00    -0.390 OA
ATOM    110  O1  BDP d 220      27.079 -13.013  93.864  0.00  0.00    -0.348 OA
ATOM    111  O6A BDP d 220      22.490 -15.466  95.831  0.00  0.00    -0.646 OA
ATOM    112  C4  BDP d 220      25.785 -15.868  96.652  0.00  0.00     0.103 C 
ATOM    113  H   BDP d 220      24.681 -15.812  94.843  0.00  0.00     0.104 H 
ATOM    114  H   BDP d 220      26.204 -14.821  93.547  0.00  0.00     0.133 H 
ATOM    115  H   BDP d 220      26.903 -16.959  95.213  0.00  0.00     0.091 H 
ATOM    116  H   BDP d 220      28.977 -14.557  93.811  0.00  0.00     0.210 HD
ATOM    117  H   BDP d 220      27.978 -14.280  95.910  0.00  0.00     0.094 H 
ATOM    118  H   BDP d 220      28.227 -15.898  97.505  0.00  0.00     0.210 HD
ATOM    119  H   BDP d 220      26.010 -15.303  97.532  0.00  0.00     0.092 H 
ATOM    120  OSC ASG d 219      28.987  -8.513  93.982  0.00  0.00    -0.572 OA
ATOM    121  C5  ASG d 219      25.631 -10.566  91.509  0.00  0.00     0.090 C 
ATOM    122  C3  ASG d 219      26.476 -12.582  92.689  0.00  0.00     0.094 C 
ATOM    123  C6  ASG d 219      25.188  -9.066  91.589  0.00  0.00     0.043 C 
ATOM    124  C7  ASG d 219      29.015 -14.870  91.107  0.00  0.00     0.214 C 
ATOM    125  C4  ASG d 219      26.359 -11.068  92.786  0.00  0.00     0.114 C 
ATOM    126  S   ASG d 219      27.741  -9.254  94.168  0.00  0.00     0.252 S 
ATOM    127  C8  ASG d 219      29.290 -16.366  90.848  0.00  0.00    -0.003 C 
ATOM    128  O7  ASG d 219      29.897 -14.090  91.040  0.00  0.00    -0.274 OA
ATOM    129  O6  ASG d 219      24.681  -8.440  90.419  0.00  0.00    -0.398 OA
ATOM    130  OSB ASG d 219      26.659  -8.272  94.124  0.00  0.00    -0.572 OA
ATOM    131  O1  ASG d 219      27.606 -12.589  89.035  0.00  0.00    -0.348 OA
ATOM    132  O4  ASG d 219      27.587 -10.383  92.964  0.00  0.00    -0.246 OA
ATOM    133  OSA ASG d 219      27.742  -9.997  95.431  0.00  0.00    -0.572 OA
ATOM    134  O5  ASG d 219      26.542 -10.850  90.380  0.00  0.00    -0.349 OA
ATOM    135  N   ASG d 219      27.664 -14.402  91.407  0.00  0.00    -0.349 N 
ATOM    136  C2  ASG d 219      27.357 -12.963  91.510  0.00  0.00     0.087 C 
ATOM    137  C1  ASG d 219      26.817 -12.312  90.184  0.00  0.00     0.154 C 
ATOM    138  H   ASG d 219      24.700 -11.080  91.383  0.00  0.00     0.090 H 
ATOM    139  H   ASG d 219      25.514 -13.027  92.551  0.00  0.00     0.091 H 
ATOM    140  H   ASG d 219      26.041  -8.502  91.903  0.00  0.00     0.078 H 
ATOM    141  H   ASG d 219      24.354  -9.077  92.259  0.00  0.00     0.078 H 
ATOM    142  H   ASG d 219      25.804 -10.848  93.674  0.00  0.00     0.093 H 
ATOM    143  H   ASG d 219      28.379 -16.919  90.951  0.00  0.00     0.040 H 
ATOM    144  H   ASG d 219      30.008 -16.724  91.556  0.00  0.00     0.040 H 
ATOM    145  H   ASG d 219      29.673 -16.492  89.857  0.00  0.00     0.040 H 
ATOM    146  H   ASG d 219      25.383  -8.388  89.750  0.00  0.00     0.209 HD
ATOM    147  H   ASG d 219      26.944 -15.060  91.544  0.00  0.00     0.163 HD
ATOM    148  H   ASG d 219      28.324 -12.544  91.695  0.00  0.00     0.084 H 
ATOM    149  H   ASG d 219      25.883 -12.788  89.969  0.00  0.00     0.132 H 
ENDROOT
TORSDOF 38
ENDMDL
MODEL 15
REMARK VINA RESULT:      -7.2      4.765     15.613
REMARK  0 active torsions:
REMARK  status: ('A' for Active; 'I' for Inactive)
REMARK       I    between atoms: C6_2  and  C5_55 
REMARK       I    between atoms: O4_3  and  C4_83 
REMARK       I    between atoms: O4_3  and  S_75 
REMARK       I    between atoms: C6_4  and  C5_67 
REMARK       I    between atoms: O4_5  and  C4_61 
REMARK       I    between atoms: O4_5  and  S_71 
REMARK       I    between atoms: O3_6  and  C3_32 
REMARK       I    between atoms: C1_8  and  O1_30 
REMARK       I    between atoms: C3_12  and  O3_62 
REMARK       I    between atoms: C5_13  and  C6_25 
REMARK       I    between atoms: O1_14  and  C4_39 
REMARK       I    between atoms: O1_14  and  C1_23 
REMARK       I    between atoms: C5_15  and  C6_27 
REMARK       I    between atoms: C5_18  and  C6_44 
REMARK       I    between atoms: C3_19  and  O1_82 
REMARK       I    between atoms: C2_20  and  N_89 
REMARK       I    between atoms: C2_21  and  O2_80 
REMARK       I    between atoms: C1_24  and  O1_45 
REMARK       I    between atoms: C6_25  and  O6_48 
REMARK       I    between atoms: C6_27  and  O6_77 
REMARK       I    between atoms: C7_28  and  C8_35 
REMARK       I    between atoms: C7_28  and  N_70 
REMARK       I    between atoms: O1_30  and  C3_43 
REMARK       I    between atoms: C4_33  and  O4_53 
REMARK       I    between atoms: S_34  and  O4_53 
REMARK       I    between atoms: O2_40  and  C2_87 
REMARK       I    between atoms: C7_41  and  C8_81 
REMARK       I    between atoms: C7_41  and  N_89 
REMARK       I    between atoms: O6_42  and  C6_88 
REMARK       I    between atoms: O1_45  and  C4_90 
REMARK       I    between atoms: C7_46  and  C8_69 
REMARK       I    between atoms: C7_46  and  N_85 
REMARK       I    between atoms: C2_47  and  N_85 
REMARK       I    between atoms: O1_50  and  C4_73 
REMARK       I    between atoms: O1_50  and  C1_76 
REMARK       I    between atoms: C1_52  and  O1_82 
REMARK       I    between atoms: C3_54  and  O3_72 
REMARK       I    between atoms: C5_57  and  C6_88 
REMARK       I    between atoms: O1_59  and  C1_78 
REMARK       I    between atoms: O2_63  and  C2_68 
REMARK       I    between atoms: N_70  and  C2_74 
ROOT
ATOM      1  O6B BDP d 216      27.465 -17.211  83.638  0.00  0.00    -0.646 OA
ATOM      2  C6  BDP d 216      28.420 -16.645  83.063  0.00  0.00     0.206 C 
ATOM      3  C3  BDP d 216      26.562 -14.411  80.507  0.00  0.00     0.092 C 
ATOM      4  O6A BDP d 216      29.586 -16.624  83.510  0.00  0.00    -0.646 OA
ATOM      5  O5  BDP d 216      27.908 -16.915  80.739  0.00  0.00    -0.340 OA
ATOM      6  C4  BDP d 216      26.956 -14.990  81.865  0.00  0.00     0.103 C 
ATOM      7  O2  BDP d 216      26.301 -14.939  78.174  0.00  0.00    -0.388 OA
ATOM      8  C5  BDP d 216      28.148 -15.941  81.736  0.00  0.00     0.152 C 
ATOM      9  O1  BDP d 216      27.672 -17.350  78.469  0.00  0.00    -0.368 OA
ATOM     10  O3  BDP d 216      25.316 -13.755  80.613  0.00  0.00    -0.390 OA
ATOM     11  C1  BDP d 216      27.753 -16.343  79.458  0.00  0.00     0.156 C 
ATOM     12  C2  BDP d 216      26.478 -15.510  79.450  0.00  0.00     0.110 C 
ATOM     13  H   BDP d 216      27.313 -13.710  80.207  0.00  0.00     0.091 H 
ATOM     14  H   BDP d 216      26.150 -15.569  82.265  0.00  0.00     0.092 H 
ATOM     15  H   BDP d 216      25.489 -14.408  78.167  0.00  0.00     0.210 HD
ATOM     16  H   BDP d 216      29.001 -15.356  81.462  0.00  0.00     0.104 H 
ATOM     17  H   BDP d 216      28.486 -17.878  78.477  0.00  0.00     0.212 HD
ATOM     18  H   BDP d 216      24.637 -14.392  80.885  0.00  0.00     0.210 HD
ATOM     19  H   BDP d 216      28.600 -15.727  79.238  0.00  0.00     0.133 H 
ATOM     20  H   BDP d 216      25.643 -16.139  79.677  0.00  0.00     0.094 H 
ATOM     21  O4  ASG d 217      24.725 -11.235  85.257  0.00  0.00    -0.246 OA
ATOM     22  O7  ASG d 217      29.192 -11.444  84.537  0.00  0.00    -0.274 OA
ATOM     23  O1  ASG d 217      27.240 -13.933  82.711  0.00  0.00    -0.348 OA
ATOM     24  C5  ASG d 217      24.067 -13.531  84.696  0.00  0.00     0.090 C 
ATOM     25  C1  ASG d 217      26.381 -13.886  83.838  0.00  0.00     0.154 C 
ATOM     26  C6  ASG d 217      22.556 -13.316  84.318  0.00  0.00     0.043 C 
ATOM     27  OSA ASG d 217      23.856 -10.314  87.462  0.00  0.00    -0.572 OA
ATOM     28  C3  ASG d 217      25.989 -13.098  86.220  0.00  0.00     0.094 C 
ATOM     29  C7  ASG d 217      29.440 -12.511  84.977  0.00  0.00     0.214 C 
ATOM     30  C2  ASG d 217      26.959 -13.081  85.046  0.00  0.00     0.087 C 
ATOM     31  O5  ASG d 217      24.978 -13.462  83.532  0.00  0.00    -0.349 OA
ATOM     32  OSB ASG d 217      22.640  -9.823  85.448  0.00  0.00    -0.572 OA
ATOM     33  OSC ASG d 217      24.772  -8.803  85.876  0.00  0.00    -0.572 OA
ATOM     34  C8  ASG d 217      30.891 -12.857  85.358  0.00  0.00    -0.003 C 
ATOM     35  S   ASG d 217      23.961 -10.003  86.036  0.00  0.00     0.252 S 
ATOM     36  O6  ASG d 217      21.785 -14.455  83.964  0.00  0.00    -0.398 OA
ATOM     37  C4  ASG d 217      24.635 -12.553  85.770  0.00  0.00     0.114 C 
ATOM     38  N   ASG d 217      28.359 -13.416  85.355  0.00  0.00    -0.349 N 
ATOM     39  H   ASG d 217      24.045 -14.519  85.107  0.00  0.00     0.090 H 
ATOM     40  H   ASG d 217      26.329 -14.911  84.142  0.00  0.00     0.132 H 
ATOM     41  H   ASG d 217      22.529 -12.643  83.486  0.00  0.00     0.078 H 
ATOM     42  H   ASG d 217      22.105 -12.960  85.221  0.00  0.00     0.078 H 
ATOM     43  H   ASG d 217      25.962 -14.095  86.607  0.00  0.00     0.091 H 
ATOM     44  H   ASG d 217      27.036 -12.051  84.763  0.00  0.00     0.084 H 
ATOM     45  H   ASG d 217      31.545 -12.089  85.004  0.00  0.00     0.040 H 
ATOM     46  H   ASG d 217      31.163 -13.791  84.912  0.00  0.00     0.040 H 
ATOM     47  H   ASG d 217      30.972 -12.933  86.423  0.00  0.00     0.040 H 
ATOM     48  H   ASG d 217      22.135 -14.840  83.145  0.00  0.00     0.209 HD
ATOM     49  H   ASG d 217      23.980 -12.493  86.615  0.00  0.00     0.093 H 
ATOM     50  H   ASG d 217      28.568 -14.259  85.819  0.00  0.00     0.163 HD
ATOM     51  C6  BDP d 218      25.541 -14.530  91.127  0.00  0.00     0.206 C 
ATOM     52  O3  BDP d 218      28.918 -10.966  91.007  0.00  0.00    -0.390 OA
ATOM     53  C1  BDP d 218      26.981 -12.622  88.295  0.00  0.00     0.160 C 
ATOM     54  C2  BDP d 218      27.680 -11.494  89.049  0.00  0.00     0.110 C 
ATOM     55  O6A BDP d 218      25.653 -15.770  91.256  0.00  0.00    -0.646 OA
ATOM     56  O1  BDP d 218      26.376 -12.111  87.122  0.00  0.00    -0.348 OA
ATOM     57  C3  BDP d 218      28.341 -12.038  90.303  0.00  0.00     0.092 C 
ATOM     58  O5  BDP d 218      26.013 -13.182  89.160  0.00  0.00    -0.340 OA
ATOM     59  C5  BDP d 218      26.593 -13.793  90.301  0.00  0.00     0.152 C 
ATOM     60  C4  BDP d 218      27.298 -12.747  91.160  0.00  0.00     0.103 C 
ATOM     61  O2  BDP d 218      28.655 -10.875  88.240  0.00  0.00    -0.388 OA
ATOM     62  O6B BDP d 218      24.626 -13.859  91.654  0.00  0.00    -0.646 OA
ATOM     63  H   BDP d 218      29.578 -10.529  90.446  0.00  0.00     0.210 HD
ATOM     64  H   BDP d 218      27.681 -13.375  87.999  0.00  0.00     0.133 H 
ATOM     65  H   BDP d 218      26.942 -10.768  89.317  0.00  0.00     0.094 H 
ATOM     66  H   BDP d 218      29.105 -12.742  90.047  0.00  0.00     0.091 H 
ATOM     67  H   BDP d 218      27.312 -14.509  89.963  0.00  0.00     0.104 H 
ATOM     68  H   BDP d 218      26.679 -11.996  91.605  0.00  0.00     0.092 H 
ATOM     69  H   BDP d 218      29.331 -11.526  87.991  0.00  0.00     0.210 HD
ATOM     70  O4  ASG d 221      23.034 -22.525 100.505  0.00  0.00    -0.249 OA
ATOM     71  OSB ASG d 221      22.047 -24.287  98.951  0.00  0.00    -0.572 OA
ATOM     72  OSC ASG d 221      23.565 -25.019 100.645  0.00  0.00    -0.572 OA
ATOM     73  C2  ASG d 221      23.531 -19.834 100.966  0.00  0.00     0.062 C 
ATOM     74  C1  ASG d 221      24.913 -19.834 100.226  0.00  0.00     0.151 C 
ATOM     75  C3  ASG d 221      23.532 -20.800 102.131  0.00  0.00    -0.014 C 
ATOM     76  O7  ASG d 221      21.295 -19.212 102.668  0.00  0.00    -0.274 OA
ATOM     77  C7  ASG d 221      21.999 -18.316 102.351  0.00  0.00     0.214 C 
ATOM     78  O6  ASG d 221      27.489 -23.411 100.753  0.00  0.00    -0.398 OA
ATOM     79  O1  ASG d 221      24.917 -19.106  99.001  0.00  0.00    -0.348 OA
ATOM     80  C5  ASG d 221      25.366 -22.070 101.305  0.00  0.00     0.088 C 
ATOM     81  C4  ASG d 221      23.849 -22.182 101.615  0.00  0.00     0.089 C 
ATOM     82  OSA ASG d 221      24.360 -23.805  98.745  0.00  0.00    -0.572 OA
ATOM     83  S   ASG d 221      23.258 -23.949  99.695  0.00  0.00     0.252 S 
ATOM     84  O5  ASG d 221      25.496 -21.213 100.106  0.00  0.00    -0.349 OA
ATOM     85  C8  ASG d 221      21.683 -16.896 102.850  0.00  0.00    -0.003 C 
ATOM     86  C6  ASG d 221      26.179 -23.416 101.303  0.00  0.00     0.043 C 
ATOM     87  N   ASG d 221      23.024 -18.497 101.323  0.00  0.00    -0.352 N 
ATOM     88  H   ASG d 221      22.818 -20.188 100.251  0.00  0.00     0.080 H 
ATOM     89  H   ASG d 221      25.578 -19.284 100.858  0.00  0.00     0.132 H 
ATOM     90  H   ASG d 221      22.568 -20.803 102.596  0.00  0.00     0.040 H 
ATOM     91  H   ASG d 221      24.267 -20.503 102.850  0.00  0.00     0.040 H 
ATOM     92  H   ASG d 221      27.870 -24.300 100.817  0.00  0.00     0.209 HD
ATOM     93  H   ASG d 221      25.866 -21.600 102.127  0.00  0.00     0.090 H 
ATOM     94  H   ASG d 221      23.644 -22.979 102.297  0.00  0.00     0.089 H 
ATOM     95  H   ASG d 221      20.917 -16.942 103.595  0.00  0.00     0.040 H 
ATOM     96  H   ASG d 221      21.349 -16.295 102.030  0.00  0.00     0.040 H 
ATOM     97  H   ASG d 221      22.565 -16.462 103.272  0.00  0.00     0.040 H 
ATOM     98  H   ASG d 221      26.264 -23.736 102.320  0.00  0.00     0.078 H 
ATOM     99  H   ASG d 221      25.622 -24.059 100.654  0.00  0.00     0.078 H 
ATOM    100  H   ASG d 221      23.383 -17.706 100.859  0.00  0.00     0.163 HD
ATOM    101  O5  BDP d 220      26.388 -16.029  98.079  0.00  0.00    -0.340 OA
ATOM    102  C5  BDP d 220      25.375 -16.966  98.387  0.00  0.00     0.152 C 
ATOM    103  C6  BDP d 220      24.422 -16.395  99.433  0.00  0.00     0.206 C 
ATOM    104  C1  BDP d 220      27.083 -16.392  96.905  0.00  0.00     0.160 C 
ATOM    105  C3  BDP d 220      26.895 -18.808  97.728  0.00  0.00     0.092 C 
ATOM    106  O2  BDP d 220      28.395 -18.149  95.954  0.00  0.00    -0.388 OA
ATOM    107  O6B BDP d 220      24.902 -16.008 100.525  0.00  0.00    -0.646 OA
ATOM    108  C2  BDP d 220      27.805 -17.712  97.159  0.00  0.00     0.110 C 
ATOM    109  O3  BDP d 220      27.688 -19.875  98.220  0.00  0.00    -0.390 OA
ATOM    110  O1  BDP d 220      28.039 -15.399  96.564  0.00  0.00    -0.348 OA
ATOM    111  O6A BDP d 220      23.202 -16.346  99.142  0.00  0.00    -0.646 OA
ATOM    112  C4  BDP d 220      26.014 -18.270  98.856  0.00  0.00     0.103 C 
ATOM    113  H   BDP d 220      24.798 -17.172  97.510  0.00  0.00     0.104 H 
ATOM    114  H   BDP d 220      26.386 -16.489  96.098  0.00  0.00     0.133 H 
ATOM    115  H   BDP d 220      26.259 -19.155  96.941  0.00  0.00     0.091 H 
ATOM    116  H   BDP d 220      28.967 -17.449  95.603  0.00  0.00     0.210 HD
ATOM    117  H   BDP d 220      28.550 -17.529  97.905  0.00  0.00     0.094 H 
ATOM    118  H   BDP d 220      28.260 -19.550  98.933  0.00  0.00     0.210 HD
ATOM    119  H   BDP d 220      26.608 -18.175  99.740  0.00  0.00     0.092 H 
ATOM    120  OSC ASG d 219      31.813 -12.351  97.177  0.00  0.00    -0.572 OA
ATOM    121  C5  ASG d 219      27.550 -11.939  95.373  0.00  0.00     0.090 C 
ATOM    122  C3  ASG d 219      27.533 -14.393  95.749  0.00  0.00     0.094 C 
ATOM    123  C6  ASG d 219      27.874 -10.509  95.927  0.00  0.00     0.043 C 
ATOM    124  C7  ASG d 219      28.438 -16.814  93.009  0.00  0.00     0.214 C 
ATOM    125  C4  ASG d 219      28.149 -13.088  96.229  0.00  0.00     0.114 C 
ATOM    126  S   ASG d 219      30.411 -12.554  97.537  0.00  0.00     0.252 S 
ATOM    127  C8  ASG d 219      27.942 -18.111  92.338  0.00  0.00    -0.003 C 
ATOM    128  O7  ASG d 219      29.559 -16.474  92.875  0.00  0.00    -0.274 OA
ATOM    129  O6  ASG d 219      27.543  -9.378  95.135  0.00  0.00    -0.398 OA
ATOM    130  OSB ASG d 219      29.917 -11.273  98.039  0.00  0.00    -0.572 OA
ATOM    131  O1  ASG d 219      27.950 -13.606  92.030  0.00  0.00    -0.348 OA
ATOM    132  O4  ASG d 219      29.566 -13.049  96.199  0.00  0.00    -0.246 OA
ATOM    133  OSA ASG d 219      30.261 -13.617  98.535  0.00  0.00    -0.572 OA
ATOM    134  O5  ASG d 219      28.039 -12.157  93.995  0.00  0.00    -0.349 OA
ATOM    135  N   ASG d 219      27.524 -15.982  93.789  0.00  0.00    -0.349 N 
ATOM    136  C2  ASG d 219      27.941 -14.667  94.311  0.00  0.00     0.087 C 
ATOM    137  C1  ASG d 219      27.568 -13.448  93.390  0.00  0.00     0.154 C 
ATOM    138  H   ASG d 219      26.481 -11.966  95.405  0.00  0.00     0.090 H 
ATOM    139  H   ASG d 219      26.465 -14.346  95.795  0.00  0.00     0.091 H 
ATOM    140  H   ASG d 219      28.929 -10.472  96.104  0.00  0.00     0.078 H 
ATOM    141  H   ASG d 219      27.245 -10.416  96.787  0.00  0.00     0.078 H 
ATOM    142  H   ASG d 219      27.905 -12.982  97.265  0.00  0.00     0.093 H 
ATOM    143  H   ASG d 219      26.907 -18.258  92.568  0.00  0.00     0.040 H 
ATOM    144  H   ASG d 219      28.511 -18.940  92.704  0.00  0.00     0.040 H 
ATOM    145  H   ASG d 219      28.064 -18.034  91.279  0.00  0.00     0.040 H 
ATOM    146  H   ASG d 219      28.075  -9.384  94.323  0.00  0.00     0.209 HD
ATOM    147  H   ASG d 219      26.611 -16.306  93.970  0.00  0.00     0.163 HD
ATOM    148  H   ASG d 219      29.008 -14.754  94.301  0.00  0.00     0.084 H 
ATOM    149  H   ASG d 219      26.500 -13.412  93.348  0.00  0.00     0.132 H 
ENDROOT
TORSDOF 38
ENDMDL
MODEL 16
REMARK VINA RESULT:      -7.1      4.126     15.961
REMARK  0 active torsions:
REMARK  status: ('A' for Active; 'I' for Inactive)
REMARK       I    between atoms: C6_2  and  C5_55 
REMARK       I    between atoms: O4_3  and  C4_83 
REMARK       I    between atoms: O4_3  and  S_75 
REMARK       I    between atoms: C6_4  and  C5_67 
REMARK       I    between atoms: O4_5  and  C4_61 
REMARK       I    between atoms: O4_5  and  S_71 
REMARK       I    between atoms: O3_6  and  C3_32 
REMARK       I    between atoms: C1_8  and  O1_30 
REMARK       I    between atoms: C3_12  and  O3_62 
REMARK       I    between atoms: C5_13  and  C6_25 
REMARK       I    between atoms: O1_14  and  C4_39 
REMARK       I    between atoms: O1_14  and  C1_23 
REMARK       I    between atoms: C5_15  and  C6_27 
REMARK       I    between atoms: C5_18  and  C6_44 
REMARK       I    between atoms: C3_19  and  O1_82 
REMARK       I    between atoms: C2_20  and  N_89 
REMARK       I    between atoms: C2_21  and  O2_80 
REMARK       I    between atoms: C1_24  and  O1_45 
REMARK       I    between atoms: C6_25  and  O6_48 
REMARK       I    between atoms: C6_27  and  O6_77 
REMARK       I    between atoms: C7_28  and  C8_35 
REMARK       I    between atoms: C7_28  and  N_70 
REMARK       I    between atoms: O1_30  and  C3_43 
REMARK       I    between atoms: C4_33  and  O4_53 
REMARK       I    between atoms: S_34  and  O4_53 
REMARK       I    between atoms: O2_40  and  C2_87 
REMARK       I    between atoms: C7_41  and  C8_81 
REMARK       I    between atoms: C7_41  and  N_89 
REMARK       I    between atoms: O6_42  and  C6_88 
REMARK       I    between atoms: O1_45  and  C4_90 
REMARK       I    between atoms: C7_46  and  C8_69 
REMARK       I    between atoms: C7_46  and  N_85 
REMARK       I    between atoms: C2_47  and  N_85 
REMARK       I    between atoms: O1_50  and  C4_73 
REMARK       I    between atoms: O1_50  and  C1_76 
REMARK       I    between atoms: C1_52  and  O1_82 
REMARK       I    between atoms: C3_54  and  O3_72 
REMARK       I    between atoms: C5_57  and  C6_88 
REMARK       I    between atoms: O1_59  and  C1_78 
REMARK       I    between atoms: O2_63  and  C2_68 
REMARK       I    between atoms: N_70  and  C2_74 
ROOT
ATOM      1  O6B BDP d 216      29.185 -18.993  82.210  0.00  0.00    -0.646 OA
ATOM      2  C6  BDP d 216      30.387 -18.839  81.906  0.00  0.00     0.206 C 
ATOM      3  C3  BDP d 216      30.098 -16.693  78.699  0.00  0.00     0.092 C 
ATOM      4  O6A BDP d 216      31.336 -19.066  82.686  0.00  0.00    -0.646 OA
ATOM      5  O5  BDP d 216      30.443 -19.386  79.575  0.00  0.00    -0.340 OA
ATOM      6  C4  BDP d 216      29.911 -17.094  80.161  0.00  0.00     0.103 C 
ATOM      7  O2  BDP d 216      30.301 -17.555  76.461  0.00  0.00    -0.388 OA
ATOM      8  C5  BDP d 216      30.718 -18.349  80.498  0.00  0.00     0.152 C 
ATOM      9  O1  BDP d 216      30.682 -20.155  77.395  0.00  0.00    -0.368 OA
ATOM     10  O3  BDP d 216      29.153 -15.703  78.352  0.00  0.00    -0.390 OA
ATOM     11  C1  BDP d 216      30.825 -19.045  78.259  0.00  0.00     0.156 C 
ATOM     12  C2  BDP d 216      29.941 -17.902  77.779  0.00  0.00     0.110 C 
ATOM     13  H   BDP d 216      31.087 -16.303  78.578  0.00  0.00     0.091 H 
ATOM     14  H   BDP d 216      28.885 -17.334  80.347  0.00  0.00     0.092 H 
ATOM     15  H   BDP d 216      29.738 -16.827  76.153  0.00  0.00     0.210 HD
ATOM     16  H   BDP d 216      31.755 -18.093  80.445  0.00  0.00     0.104 H 
ATOM     17  H   BDP d 216      31.247 -20.880  77.705  0.00  0.00     0.212 HD
ATOM     18  H   BDP d 216      28.257 -16.059  78.462  0.00  0.00     0.210 HD
ATOM     19  H   BDP d 216      31.853 -18.747  78.253  0.00  0.00     0.133 H 
ATOM     20  H   BDP d 216      28.918 -18.214  77.797  0.00  0.00     0.094 H 
ATOM     21  O4  ASG d 217      28.220 -12.291  82.322  0.00  0.00    -0.246 OA
ATOM     22  O7  ASG d 217      32.399 -13.889  83.035  0.00  0.00    -0.274 OA
ATOM     23  O1  ASG d 217      30.292 -16.021  80.947  0.00  0.00    -0.348 OA
ATOM     24  C5  ASG d 217      27.021 -14.370  81.810  0.00  0.00     0.090 C 
ATOM     25  C1  ASG d 217      29.231 -15.521  81.745  0.00  0.00     0.154 C 
ATOM     26  C6  ASG d 217      25.818 -13.811  80.966  0.00  0.00     0.043 C 
ATOM     27  OSA ASG d 217      27.154 -10.764  84.052  0.00  0.00    -0.572 OA
ATOM     28  C3  ASG d 217      28.508 -14.220  83.802  0.00  0.00     0.094 C 
ATOM     29  C7  ASG d 217      32.160 -14.881  83.632  0.00  0.00     0.214 C 
ATOM     30  C2  ASG d 217      29.703 -14.700  82.988  0.00  0.00     0.087 C 
ATOM     31  O5  ASG d 217      28.176 -14.782  80.982  0.00  0.00    -0.349 OA
ATOM     32  OSB ASG d 217      26.737 -10.337  81.724  0.00  0.00    -0.572 OA
ATOM     33  OSC ASG d 217      28.894  -9.902  82.687  0.00  0.00    -0.572 OA
ATOM     34  C8  ASG d 217      33.265 -15.545  84.473  0.00  0.00    -0.003 C 
ATOM     35  S   ASG d 217      27.724 -10.770  82.705  0.00  0.00     0.252 S 
ATOM     36  O6  ASG d 217      24.839 -14.730  80.504  0.00  0.00    -0.398 OA
ATOM     37  C4  ASG d 217      27.574 -13.409  82.907  0.00  0.00     0.114 C 
ATOM     38  N   ASG d 217      30.784 -15.354  83.744  0.00  0.00    -0.349 N 
ATOM     39  H   ASG d 217      26.571 -15.215  82.288  0.00  0.00     0.090 H 
ATOM     40  H   ASG d 217      28.770 -16.413  82.115  0.00  0.00     0.132 H 
ATOM     41  H   ASG d 217      26.231 -13.327  80.106  0.00  0.00     0.078 H 
ATOM     42  H   ASG d 217      25.288 -13.178  81.648  0.00  0.00     0.078 H 
ATOM     43  H   ASG d 217      28.057 -15.078  84.257  0.00  0.00     0.091 H 
ATOM     44  H   ASG d 217      30.183 -13.807  82.645  0.00  0.00     0.084 H 
ATOM     45  H   ASG d 217      34.203 -15.075  84.264  0.00  0.00     0.040 H 
ATOM     46  H   ASG d 217      33.325 -16.584  84.225  0.00  0.00     0.040 H 
ATOM     47  H   ASG d 217      33.035 -15.438  85.513  0.00  0.00     0.040 H 
ATOM     48  H   ASG d 217      25.245 -15.346  79.874  0.00  0.00     0.209 HD
ATOM     49  H   ASG d 217      26.777 -13.008  83.499  0.00  0.00     0.093 H 
ATOM     50  H   ASG d 217      30.577 -16.118  84.329  0.00  0.00     0.163 HD
ATOM     51  C6  BDP d 218      26.348 -14.517  88.448  0.00  0.00     0.206 C 
ATOM     52  O3  BDP d 218      30.609 -12.145  89.029  0.00  0.00    -0.390 OA
ATOM     53  C1  BDP d 218      29.021 -13.663  86.026  0.00  0.00     0.160 C 
ATOM     54  C2  BDP d 218      29.826 -12.659  86.846  0.00  0.00     0.110 C 
ATOM     55  O6A BDP d 218      26.011 -15.690  88.724  0.00  0.00    -0.646 OA
ATOM     56  O1  BDP d 218      28.945 -13.232  84.680  0.00  0.00    -0.348 OA
ATOM     57  C3  BDP d 218      29.920 -13.121  88.289  0.00  0.00     0.092 C 
ATOM     58  O5  BDP d 218      27.732 -13.753  86.601  0.00  0.00    -0.340 OA
ATOM     59  C5  BDP d 218      27.761 -14.277  87.919  0.00  0.00     0.152 C 
ATOM     60  C4  BDP d 218      28.517 -13.332  88.848  0.00  0.00     0.103 C 
ATOM     61  O2  BDP d 218      31.126 -12.505  86.320  0.00  0.00    -0.388 OA
ATOM     62  O6B BDP d 218      25.597 -13.527  88.600  0.00  0.00    -0.646 OA
ATOM     63  H   BDP d 218      31.498 -12.025  88.659  0.00  0.00     0.210 HD
ATOM     64  H   BDP d 218      29.489 -14.625  86.034  0.00  0.00     0.133 H 
ATOM     65  H   BDP d 218      29.322 -11.716  86.802  0.00  0.00     0.094 H 
ATOM     66  H   BDP d 218      30.451 -14.048  88.350  0.00  0.00     0.091 H 
ATOM     67  H   BDP d 218      28.269 -15.218  87.889  0.00  0.00     0.104 H 
ATOM     68  H   BDP d 218      28.083 -12.367  89.005  0.00  0.00     0.092 H 
ATOM     69  H   BDP d 218      31.592 -13.356  86.356  0.00  0.00     0.210 HD
ATOM     70  O4  ASG d 221      19.006 -19.559  97.326  0.00  0.00    -0.249 OA
ATOM     71  OSB ASG d 221      17.942 -21.228  95.721  0.00  0.00    -0.572 OA
ATOM     72  OSC ASG d 221      18.638 -22.028  97.862  0.00  0.00    -0.572 OA
ATOM     73  C2  ASG d 221      20.215 -17.082  97.654  0.00  0.00     0.062 C 
ATOM     74  C1  ASG d 221      21.663 -17.614  97.379  0.00  0.00     0.151 C 
ATOM     75  C3  ASG d 221      19.595 -17.773  98.850  0.00  0.00    -0.014 C 
ATOM     76  O7  ASG d 221      17.940 -15.544  98.517  0.00  0.00    -0.274 OA
ATOM     77  C7  ASG d 221      18.955 -14.961  98.347  0.00  0.00     0.214 C 
ATOM     78  O6  ASG d 221      22.698 -21.607  99.017  0.00  0.00    -0.398 OA
ATOM     79  O1  ASG d 221      22.225 -17.161  96.151  0.00  0.00    -0.348 OA
ATOM     80  C5  ASG d 221      21.063 -19.641  98.756  0.00  0.00     0.088 C 
ATOM     81  C4  ASG d 221      19.567 -19.258  98.593  0.00  0.00     0.089 C 
ATOM     82  OSA ASG d 221      20.254 -21.470  96.192  0.00  0.00    -0.572 OA
ATOM     83  S   ASG d 221      18.957 -21.114  96.765  0.00  0.00     0.252 S 
ATOM     84  O5  ASG d 221      21.775 -19.099  97.578  0.00  0.00    -0.349 OA
ATOM     85  C8  ASG d 221      19.000 -13.441  98.585  0.00  0.00    -0.003 C 
ATOM     86  C6  ASG d 221      21.363 -21.138  99.135  0.00  0.00     0.043 C 
ATOM     87  N   ASG d 221      20.096 -15.614  97.707  0.00  0.00    -0.352 N 
ATOM     88  H   ASG d 221      19.639 -17.348  96.793  0.00  0.00     0.080 H 
ATOM     89  H   ASG d 221      22.281 -17.165  98.129  0.00  0.00     0.132 H 
ATOM     90  H   ASG d 221      18.597 -17.414  98.995  0.00  0.00     0.040 H 
ATOM     91  H   ASG d 221      20.171 -17.566  99.728  0.00  0.00     0.040 H 
ATOM     92  H   ASG d 221      22.738 -22.540  99.281  0.00  0.00     0.209 HD
ATOM     93  H   ASG d 221      21.454 -19.187  99.643  0.00  0.00     0.090 H 
ATOM     94  H   ASG d 221      18.942 -19.822  99.253  0.00  0.00     0.089 H 
ATOM     95  H   ASG d 221      18.094 -13.128  99.058  0.00  0.00     0.040 H 
ATOM     96  H   ASG d 221      19.107 -12.936  97.647  0.00  0.00     0.040 H 
ATOM     97  H   ASG d 221      19.832 -13.204  99.214  0.00  0.00     0.040 H 
ATOM     98  H   ASG d 221      21.069 -21.272 100.155  0.00  0.00     0.078 H 
ATOM     99  H   ASG d 221      20.818 -21.707  98.412  0.00  0.00     0.078 H 
ATOM    100  H   ASG d 221      20.802 -15.060  97.302  0.00  0.00     0.163 HD
ATOM    101  O5  BDP d 220      24.807 -14.858  95.433  0.00  0.00    -0.340 OA
ATOM    102  C5  BDP d 220      23.501 -15.394  95.503  0.00  0.00     0.152 C 
ATOM    103  C6  BDP d 220      22.547 -14.390  96.145  0.00  0.00     0.206 C 
ATOM    104  C1  BDP d 220      25.627 -15.616  94.571  0.00  0.00     0.160 C 
ATOM    105  C3  BDP d 220      24.453 -17.681  95.526  0.00  0.00     0.092 C 
ATOM    106  O2  BDP d 220      26.496 -17.819  94.245  0.00  0.00    -0.388 OA
ATOM    107  O6B BDP d 220      22.823 -13.956  97.289  0.00  0.00    -0.646 OA
ATOM    108  C2  BDP d 220      25.786 -17.015  95.161  0.00  0.00     0.110 C 
ATOM    109  O3  BDP d 220      24.696 -18.816  96.339  0.00  0.00    -0.390 OA
ATOM    110  O1  BDP d 220      26.909 -15.018  94.447  0.00  0.00    -0.348 OA
ATOM    111  O6A BDP d 220      21.531 -14.053  95.489  0.00  0.00    -0.646 OA
ATOM    112  C4  BDP d 220      23.532 -16.712  96.270  0.00  0.00     0.103 C 
ATOM    113  H   BDP d 220      23.139 -15.589  94.515  0.00  0.00     0.104 H 
ATOM    114  H   BDP d 220      25.174 -15.662  93.602  0.00  0.00     0.133 H 
ATOM    115  H   BDP d 220      23.968 -17.975  94.618  0.00  0.00     0.091 H 
ATOM    116  H   BDP d 220      27.335 -17.389  94.021  0.00  0.00     0.210 HD
ATOM    117  H   BDP d 220      26.326 -16.913  96.079  0.00  0.00     0.094 H 
ATOM    118  H   BDP d 220      25.135 -18.538  97.158  0.00  0.00     0.210 HD
ATOM    119  H   BDP d 220      23.872 -16.625  97.281  0.00  0.00     0.092 H 
ATOM    120  OSC ASG d 219      31.169 -13.106  95.894  0.00  0.00    -0.572 OA
ATOM    121  C5  ASG d 219      27.906 -11.850  92.834  0.00  0.00     0.090 C 
ATOM    122  C3  ASG d 219      26.990 -14.082  93.422  0.00  0.00     0.094 C 
ATOM    123  C6  ASG d 219      28.521 -10.493  93.320  0.00  0.00     0.043 C 
ATOM    124  C7  ASG d 219      27.741 -17.130  91.342  0.00  0.00     0.214 C 
ATOM    125  C4  ASG d 219      27.850 -12.939  93.940  0.00  0.00     0.114 C 
ATOM    126  S   ASG d 219      29.735 -12.832  95.823  0.00  0.00     0.252 S 
ATOM    127  C8  ASG d 219      27.044 -18.336  90.680  0.00  0.00    -0.003 C 
ATOM    128  O7  ASG d 219      28.906 -17.153  91.527  0.00  0.00    -0.274 OA
ATOM    129  O6  ASG d 219      28.796  -9.484  92.359  0.00  0.00    -0.398 OA
ATOM    130  OSB ASG d 219      29.573 -11.393  96.022  0.00  0.00    -0.572 OA
ATOM    131  O1  ASG d 219      28.601 -14.161  89.955  0.00  0.00    -0.348 OA
ATOM    132  O4  ASG d 219      29.158 -13.309  94.344  0.00  0.00    -0.246 OA
ATOM    133  OSA ASG d 219      28.992 -13.601  96.824  0.00  0.00    -0.572 OA
ATOM    134  O5  ASG d 219      28.639 -12.453  91.701  0.00  0.00    -0.349 OA
ATOM    135  N   ASG d 219      26.978 -15.943  91.718  0.00  0.00    -0.349 N 
ATOM    136  C2  ASG d 219      27.649 -14.726  92.213  0.00  0.00     0.087 C 
ATOM    137  C1  ASG d 219      27.950 -13.647  91.109  0.00  0.00     0.154 C 
ATOM    138  H   ASG d 219      26.917 -11.567  92.538  0.00  0.00     0.090 H 
ATOM    139  H   ASG d 219      26.024 -13.727  93.132  0.00  0.00     0.091 H 
ATOM    140  H   ASG d 219      29.444 -10.723  93.809  0.00  0.00     0.078 H 
ATOM    141  H   ASG d 219      27.754 -10.065  93.932  0.00  0.00     0.078 H 
ATOM    142  H   ASG d 219      27.392 -12.575  94.835  0.00  0.00     0.093 H 
ATOM    143  H   ASG d 219      25.996 -18.138  90.592  0.00  0.00     0.040 H 
ATOM    144  H   ASG d 219      27.194 -19.208  91.281  0.00  0.00     0.040 H 
ATOM    145  H   ASG d 219      27.458 -18.498  89.707  0.00  0.00     0.040 H 
ATOM    146  H   ASG d 219      29.491  -9.794  91.755  0.00  0.00     0.209 HD
ATOM    147  H   ASG d 219      25.997 -15.954  91.639  0.00  0.00     0.163 HD
ATOM    148  H   ASG d 219      28.592 -15.112  92.541  0.00  0.00     0.084 H 
ATOM    149  H   ASG d 219      27.002 -13.319  90.737  0.00  0.00     0.132 H 
ENDROOT
TORSDOF 38
ENDMDL
MODEL 17
REMARK VINA RESULT:      -7.0      3.903     15.641
REMARK  0 active torsions:
REMARK  status: ('A' for Active; 'I' for Inactive)
REMARK       I    between atoms: C6_2  and  C5_55 
REMARK       I    between atoms: O4_3  and  C4_83 
REMARK       I    between atoms: O4_3  and  S_75 
REMARK       I    between atoms: C6_4  and  C5_67 
REMARK       I    between atoms: O4_5  and  C4_61 
REMARK       I    between atoms: O4_5  and  S_71 
REMARK       I    between atoms: O3_6  and  C3_32 
REMARK       I    between atoms: C1_8  and  O1_30 
REMARK       I    between atoms: C3_12  and  O3_62 
REMARK       I    between atoms: C5_13  and  C6_25 
REMARK       I    between atoms: O1_14  and  C4_39 
REMARK       I    between atoms: O1_14  and  C1_23 
REMARK       I    between atoms: C5_15  and  C6_27 
REMARK       I    between atoms: C5_18  and  C6_44 
REMARK       I    between atoms: C3_19  and  O1_82 
REMARK       I    between atoms: C2_20  and  N_89 
REMARK       I    between atoms: C2_21  and  O2_80 
REMARK       I    between atoms: C1_24  and  O1_45 
REMARK       I    between atoms: C6_25  and  O6_48 
REMARK       I    between atoms: C6_27  and  O6_77 
REMARK       I    between atoms: C7_28  and  C8_35 
REMARK       I    between atoms: C7_28  and  N_70 
REMARK       I    between atoms: O1_30  and  C3_43 
REMARK       I    between atoms: C4_33  and  O4_53 
REMARK       I    between atoms: S_34  and  O4_53 
REMARK       I    between atoms: O2_40  and  C2_87 
REMARK       I    between atoms: C7_41  and  C8_81 
REMARK       I    between atoms: C7_41  and  N_89 
REMARK       I    between atoms: O6_42  and  C6_88 
REMARK       I    between atoms: O1_45  and  C4_90 
REMARK       I    between atoms: C7_46  and  C8_69 
REMARK       I    between atoms: C7_46  and  N_85 
REMARK       I    between atoms: C2_47  and  N_85 
REMARK       I    between atoms: O1_50  and  C4_73 
REMARK       I    between atoms: O1_50  and  C1_76 
REMARK       I    between atoms: C1_52  and  O1_82 
REMARK       I    between atoms: C3_54  and  O3_72 
REMARK       I    between atoms: C5_57  and  C6_88 
REMARK       I    between atoms: O1_59  and  C1_78 
REMARK       I    between atoms: O2_63  and  C2_68 
REMARK       I    between atoms: N_70  and  C2_74 
ROOT
ATOM      1  O6B BDP d 216      31.674  -8.447  83.056  0.00  0.00    -0.646 OA
ATOM      2  C6  BDP d 216      30.974  -7.933  82.157  0.00  0.00     0.206 C 
ATOM      3  C3  BDP d 216      32.312  -9.745  79.011  0.00  0.00     0.092 C 
ATOM      4  O6A BDP d 216      29.931  -7.282  82.376  0.00  0.00    -0.646 OA
ATOM      5  O5  BDP d 216      32.579  -7.319  80.488  0.00  0.00    -0.340 OA
ATOM      6  C4  BDP d 216      31.698  -9.577  80.400  0.00  0.00     0.103 C 
ATOM      7  O2  BDP d 216      33.880  -8.792  77.455  0.00  0.00    -0.388 OA
ATOM      8  C5  BDP d 216      31.422  -8.104  80.708  0.00  0.00     0.152 C 
ATOM      9  O1  BDP d 216      34.050  -6.429  78.926  0.00  0.00    -0.368 OA
ATOM     10  O3  BDP d 216      32.793 -11.064  78.860  0.00  0.00    -0.390 OA
ATOM     11  C1  BDP d 216      32.992  -7.342  79.139  0.00  0.00     0.156 C 
ATOM     12  C2  BDP d 216      33.453  -8.753  78.797  0.00  0.00     0.110 C 
ATOM     13  H   BDP d 216      31.555  -9.552  78.280  0.00  0.00     0.091 H 
ATOM     14  H   BDP d 216      32.382  -9.919  81.148  0.00  0.00     0.092 H 
ATOM     15  H   BDP d 216      34.175  -9.690  77.235  0.00  0.00     0.210 HD
ATOM     16  H   BDP d 216      30.642  -7.776  80.053  0.00  0.00     0.104 H 
ATOM     17  H   BDP d 216      33.752  -5.532  79.145  0.00  0.00     0.212 HD
ATOM     18  H   BDP d 216      33.479 -11.236  79.524  0.00  0.00     0.210 HD
ATOM     19  H   BDP d 216      32.174  -7.057  78.511  0.00  0.00     0.133 H 
ATOM     20  H   BDP d 216      34.267  -9.024  79.437  0.00  0.00     0.094 H 
ATOM     21  O4  ASG d 217      29.676 -14.656  81.238  0.00  0.00    -0.246 OA
ATOM     22  O7  ASG d 217      26.982 -11.145  80.271  0.00  0.00    -0.274 OA
ATOM     23  O1  ASG d 217      30.538 -10.330  80.445  0.00  0.00    -0.348 OA
ATOM     24  C5  ASG d 217      31.620 -13.490  82.179  0.00  0.00     0.090 C 
ATOM     25  C1  ASG d 217      30.585 -11.351  81.428  0.00  0.00     0.154 C 
ATOM     26  C6  ASG d 217      32.749 -14.553  81.919  0.00  0.00     0.043 C 
ATOM     27  OSA ASG d 217      28.757 -16.602  82.592  0.00  0.00    -0.572 OA
ATOM     28  C3  ASG d 217      29.315 -12.941  82.948  0.00  0.00     0.094 C 
ATOM     29  C7  ASG d 217      27.163 -10.458  81.215  0.00  0.00     0.214 C 
ATOM     30  C2  ASG d 217      29.179 -11.865  81.878  0.00  0.00     0.087 C 
ATOM     31  O5  ASG d 217      31.493 -12.493  81.094  0.00  0.00    -0.349 OA
ATOM     32  OSB ASG d 217      30.308 -17.065  80.816  0.00  0.00    -0.572 OA
ATOM     33  OSC ASG d 217      28.064 -16.354  80.335  0.00  0.00    -0.572 OA
ATOM     34  C8  ASG d 217      26.144  -9.357  81.559  0.00  0.00    -0.003 C 
ATOM     35  S   ASG d 217      29.194 -16.229  81.246  0.00  0.00     0.252 S 
ATOM     36  O6  ASG d 217      34.062 -14.261  82.375  0.00  0.00    -0.398 OA
ATOM     37  C4  ASG d 217      30.194 -14.074  82.422  0.00  0.00     0.114 C 
ATOM     38  N   ASG d 217      28.224 -10.782  82.163  0.00  0.00    -0.349 N 
ATOM     39  H   ASG d 217      31.963 -13.032  83.083  0.00  0.00     0.090 H 
ATOM     40  H   ASG d 217      31.019 -10.853  82.269  0.00  0.00     0.132 H 
ATOM     41  H   ASG d 217      32.806 -14.704  80.861  0.00  0.00     0.078 H 
ATOM     42  H   ASG d 217      32.450 -15.404  82.497  0.00  0.00     0.078 H 
ATOM     43  H   ASG d 217      29.679 -12.471  83.838  0.00  0.00     0.091 H 
ATOM     44  H   ASG d 217      28.714 -12.356  81.047  0.00  0.00     0.084 H 
ATOM     45  H   ASG d 217      25.445  -9.255  80.756  0.00  0.00     0.040 H 
ATOM     46  H   ASG d 217      26.657  -8.429  81.704  0.00  0.00     0.040 H 
ATOM     47  H   ASG d 217      25.622  -9.621  82.455  0.00  0.00     0.040 H 
ATOM     48  H   ASG d 217      34.408 -13.492  81.894  0.00  0.00     0.209 HD
ATOM     49  H   ASG d 217      30.223 -14.862  83.146  0.00  0.00     0.093 H 
ATOM     50  H   ASG d 217      28.303 -10.270  83.000  0.00  0.00     0.163 HD
ATOM     51  C6  BDP d 218      28.064 -14.057  87.798  0.00  0.00     0.206 C 
ATOM     52  O3  BDP d 218      23.857 -13.872  85.269  0.00  0.00    -0.390 OA
ATOM     53  C1  BDP d 218      27.382 -13.259  84.243  0.00  0.00     0.160 C 
ATOM     54  C2  BDP d 218      25.936 -13.733  84.126  0.00  0.00     0.110 C 
ATOM     55  O6A BDP d 218      28.579 -13.250  88.603  0.00  0.00    -0.646 OA
ATOM     56  O1  BDP d 218      28.093 -13.597  83.067  0.00  0.00    -0.348 OA
ATOM     57  C3  BDP d 218      25.164 -13.364  85.380  0.00  0.00     0.092 C 
ATOM     58  O5  BDP d 218      27.950 -13.887  85.375  0.00  0.00    -0.340 OA
ATOM     59  C5  BDP d 218      27.324 -13.494  86.586  0.00  0.00     0.152 C 
ATOM     60  C4  BDP d 218      25.868 -13.949  86.600  0.00  0.00     0.103 C 
ATOM     61  O2  BDP d 218      25.305 -13.156  83.004  0.00  0.00    -0.388 OA
ATOM     62  O6B BDP d 218      28.104 -15.300  87.942  0.00  0.00    -0.646 OA
ATOM     63  H   BDP d 218      23.427 -13.489  84.488  0.00  0.00     0.210 HD
ATOM     64  H   BDP d 218      27.427 -12.196  84.357  0.00  0.00     0.133 H 
ATOM     65  H   BDP d 218      25.945 -14.797  84.008  0.00  0.00     0.094 H 
ATOM     66  H   BDP d 218      25.120 -12.301  85.492  0.00  0.00     0.091 H 
ATOM     67  H   BDP d 218      27.356 -12.426  86.642  0.00  0.00     0.104 H 
ATOM     68  H   BDP d 218      25.696 -15.005  86.598  0.00  0.00     0.092 H 
ATOM     69  H   BDP d 218      25.291 -12.191  83.101  0.00  0.00     0.210 HD
ATOM     70  O4  ASG d 221      29.615 -14.069 100.277  0.00  0.00    -0.249 OA
ATOM     71  OSB ASG d 221      31.978 -13.124 100.144  0.00  0.00    -0.572 OA
ATOM     72  OSC ASG d 221      30.494 -12.189 101.765  0.00  0.00    -0.572 OA
ATOM     73  C2  ASG d 221      27.623 -15.558  99.045  0.00  0.00     0.062 C 
ATOM     74  C1  ASG d 221      27.001 -14.333  98.291  0.00  0.00     0.151 C 
ATOM     75  C3  ASG d 221      27.582 -15.357 100.545  0.00  0.00    -0.014 C 
ATOM     76  O7  ASG d 221      28.063 -18.101 100.319  0.00  0.00    -0.274 OA
ATOM     77  C7  ASG d 221      27.243 -18.057  99.467  0.00  0.00     0.214 C 
ATOM     78  O6  ASG d 221      26.828 -10.479 100.486  0.00  0.00    -0.398 OA
ATOM     79  O1  ASG d 221      27.193 -14.362  96.879  0.00  0.00    -0.348 OA
ATOM     80  C5  ASG d 221      27.353 -12.994 100.400  0.00  0.00     0.088 C 
ATOM     81  C4  ASG d 221      28.334 -14.094 100.887  0.00  0.00     0.089 C 
ATOM     82  OSA ASG d 221      30.192 -11.732  99.439  0.00  0.00    -0.572 OA
ATOM     83  S   ASG d 221      30.594 -12.743 100.415  0.00  0.00     0.252 S 
ATOM     84  O5  ASG d 221      27.377 -13.023  98.921  0.00  0.00    -0.349 OA
ATOM     85  C8  ASG d 221      26.478 -19.337  99.089  0.00  0.00    -0.003 C 
ATOM     86  C6  ASG d 221      27.493 -11.584 101.081  0.00  0.00     0.043 C 
ATOM     87  N   ASG d 221      27.104 -16.871  98.623  0.00  0.00    -0.352 N 
ATOM     88  H   ASG d 221      28.651 -15.589  98.751  0.00  0.00     0.080 H 
ATOM     89  H   ASG d 221      25.942 -14.429  98.411  0.00  0.00     0.132 H 
ATOM     90  H   ASG d 221      28.042 -16.192 101.032  0.00  0.00     0.040 H 
ATOM     91  H   ASG d 221      26.567 -15.276 100.874  0.00  0.00     0.040 H 
ATOM     92  H   ASG d 221      27.000  -9.679 101.006  0.00  0.00     0.209 HD
ATOM     93  H   ASG d 221      26.363 -13.221 100.740  0.00  0.00     0.090 H 
ATOM     94  H   ASG d 221      28.577 -13.977 101.921  0.00  0.00     0.089 H 
ATOM     95  H   ASG d 221      26.690 -20.103  99.806  0.00  0.00     0.040 H 
ATOM     96  H   ASG d 221      26.785 -19.663  98.118  0.00  0.00     0.040 H 
ATOM     97  H   ASG d 221      25.428 -19.136  99.082  0.00  0.00     0.040 H 
ATOM     98  H   ASG d 221      27.121 -11.676 102.080  0.00  0.00     0.078 H 
ATOM     99  H   ASG d 221      28.532 -11.348 100.989  0.00  0.00     0.078 H 
ATOM    100  H   ASG d 221      26.653 -16.952  97.751  0.00  0.00     0.163 HD
ATOM    101  O5  BDP d 220      24.967 -14.931  94.196  0.00  0.00    -0.340 OA
ATOM    102  C5  BDP d 220      26.030 -15.163  95.098  0.00  0.00     0.152 C 
ATOM    103  C6  BDP d 220      25.903 -16.549  95.725  0.00  0.00     0.206 C 
ATOM    104  C1  BDP d 220      25.225 -13.812  93.375  0.00  0.00     0.160 C 
ATOM    105  C3  BDP d 220      26.246 -12.720  95.454  0.00  0.00     0.092 C 
ATOM    106  O2  BDP d 220      25.681 -11.467  93.468  0.00  0.00    -0.388 OA
ATOM    107  O6B BDP d 220      24.843 -16.832  96.332  0.00  0.00    -0.646 OA
ATOM    108  C2  BDP d 220      25.295 -12.570  94.259  0.00  0.00     0.110 C 
ATOM    109  O3  BDP d 220      26.019 -11.670  96.376  0.00  0.00    -0.390 OA
ATOM    110  O1  BDP d 220      24.188 -13.643  92.420  0.00  0.00    -0.348 OA
ATOM    111  O6A BDP d 220      26.875 -17.334  95.599  0.00  0.00    -0.646 OA
ATOM    112  C4  BDP d 220      26.047 -14.064  96.157  0.00  0.00     0.103 C 
ATOM    113  H   BDP d 220      26.960 -15.136  94.571  0.00  0.00     0.104 H 
ATOM    114  H   BDP d 220      26.149 -13.961  92.856  0.00  0.00     0.133 H 
ATOM    115  H   BDP d 220      27.250 -12.678  95.087  0.00  0.00     0.091 H 
ATOM    116  H   BDP d 220      25.074 -11.382  92.716  0.00  0.00     0.210 HD
ATOM    117  H   BDP d 220      24.320 -12.420  94.674  0.00  0.00     0.094 H 
ATOM    118  H   BDP d 220      25.106 -11.717  96.702  0.00  0.00     0.210 HD
ATOM    119  H   BDP d 220      25.160 -14.012  96.751  0.00  0.00     0.092 H 
ATOM    120  OSC ASG d 219      19.629 -13.111  90.737  0.00  0.00    -0.572 OA
ATOM    121  C5  ASG d 219      23.267 -15.733  89.519  0.00  0.00     0.090 C 
ATOM    122  C3  ASG d 219      24.399 -14.344  91.238  0.00  0.00     0.094 C 
ATOM    123  C6  ASG d 219      22.020 -16.589  89.109  0.00  0.00     0.043 C 
ATOM    124  C7  ASG d 219      26.340 -11.253  90.309  0.00  0.00     0.214 C 
ATOM    125  C4  ASG d 219      23.048 -14.892  90.806  0.00  0.00     0.114 C 
ATOM    126  S   ASG d 219      20.553 -14.092  91.304  0.00  0.00     0.252 S 
ATOM    127  C8  ASG d 219      27.693 -10.559  90.569  0.00  0.00    -0.003 C 
ATOM    128  O7  ASG d 219      25.434 -10.632  89.879  0.00  0.00    -0.274 OA
ATOM    129  O6  ASG d 219      22.031 -17.253  87.853  0.00  0.00    -0.398 OA
ATOM    130  OSB ASG d 219      19.985 -15.411  91.029  0.00  0.00    -0.572 OA
ATOM    131  O1  ASG d 219      25.451 -13.256  87.726  0.00  0.00    -0.348 OA
ATOM    132  O4  ASG d 219      22.043 -13.913  90.600  0.00  0.00    -0.246 OA
ATOM    133  OSA ASG d 219      20.748 -13.878  92.740  0.00  0.00    -0.572 OA
ATOM    134  O5  ASG d 219      23.691 -14.778  88.473  0.00  0.00    -0.349 OA
ATOM    135  N   ASG d 219      26.174 -12.681  90.565  0.00  0.00    -0.349 N 
ATOM    136  C2  ASG d 219      24.938 -13.389  90.184  0.00  0.00     0.087 C 
ATOM    137  C1  ASG d 219      24.992 -14.093  88.779  0.00  0.00     0.154 C 
ATOM    138  H   ASG d 219      24.019 -16.476  89.681  0.00  0.00     0.090 H 
ATOM    139  H   ASG d 219      25.105 -15.138  91.369  0.00  0.00     0.091 H 
ATOM    140  H   ASG d 219      21.174 -15.934  89.112  0.00  0.00     0.078 H 
ATOM    141  H   ASG d 219      22.007 -17.385  89.823  0.00  0.00     0.078 H 
ATOM    142  H   ASG d 219      22.673 -15.487  91.612  0.00  0.00     0.093 H 
ATOM    143  H   ASG d 219      28.391 -11.272  90.956  0.00  0.00     0.040 H 
ATOM    144  H   ASG d 219      27.558  -9.769  91.278  0.00  0.00     0.040 H 
ATOM    145  H   ASG d 219      28.068 -10.155  89.652  0.00  0.00     0.040 H 
ATOM    146  H   ASG d 219      22.043 -16.595  87.140  0.00  0.00     0.209 HD
ATOM    147  H   ASG d 219      26.902 -13.182  91.001  0.00  0.00     0.163 HD
ATOM    148  H   ASG d 219      24.237 -12.584  90.106  0.00  0.00     0.084 H 
ATOM    149  H   ASG d 219      25.745 -14.850  88.845  0.00  0.00     0.132 H 
ENDROOT
TORSDOF 38
ENDMDL
MODEL 18
REMARK VINA RESULT:      -7.0      3.752     15.368
REMARK  0 active torsions:
REMARK  status: ('A' for Active; 'I' for Inactive)
REMARK       I    between atoms: C6_2  and  C5_55 
REMARK       I    between atoms: O4_3  and  C4_83 
REMARK       I    between atoms: O4_3  and  S_75 
REMARK       I    between atoms: C6_4  and  C5_67 
REMARK       I    between atoms: O4_5  and  C4_61 
REMARK       I    between atoms: O4_5  and  S_71 
REMARK       I    between atoms: O3_6  and  C3_32 
REMARK       I    between atoms: C1_8  and  O1_30 
REMARK       I    between atoms: C3_12  and  O3_62 
REMARK       I    between atoms: C5_13  and  C6_25 
REMARK       I    between atoms: O1_14  and  C4_39 
REMARK       I    between atoms: O1_14  and  C1_23 
REMARK       I    between atoms: C5_15  and  C6_27 
REMARK       I    between atoms: C5_18  and  C6_44 
REMARK       I    between atoms: C3_19  and  O1_82 
REMARK       I    between atoms: C2_20  and  N_89 
REMARK       I    between atoms: C2_21  and  O2_80 
REMARK       I    between atoms: C1_24  and  O1_45 
REMARK       I    between atoms: C6_25  and  O6_48 
REMARK       I    between atoms: C6_27  and  O6_77 
REMARK       I    between atoms: C7_28  and  C8_35 
REMARK       I    between atoms: C7_28  and  N_70 
REMARK       I    between atoms: O1_30  and  C3_43 
REMARK       I    between atoms: C4_33  and  O4_53 
REMARK       I    between atoms: S_34  and  O4_53 
REMARK       I    between atoms: O2_40  and  C2_87 
REMARK       I    between atoms: C7_41  and  C8_81 
REMARK       I    between atoms: C7_41  and  N_89 
REMARK       I    between atoms: O6_42  and  C6_88 
REMARK       I    between atoms: O1_45  and  C4_90 
REMARK       I    between atoms: C7_46  and  C8_69 
REMARK       I    between atoms: C7_46  and  N_85 
REMARK       I    between atoms: C2_47  and  N_85 
REMARK       I    between atoms: O1_50  and  C4_73 
REMARK       I    between atoms: O1_50  and  C1_76 
REMARK       I    between atoms: C1_52  and  O1_82 
REMARK       I    between atoms: C3_54  and  O3_72 
REMARK       I    between atoms: C5_57  and  C6_88 
REMARK       I    between atoms: O1_59  and  C1_78 
REMARK       I    between atoms: O2_63  and  C2_68 
REMARK       I    between atoms: N_70  and  C2_74 
ROOT
ATOM      1  O6B BDP d 216      30.476 -10.164  85.252  0.00  0.00    -0.646 OA
ATOM      2  C6  BDP d 216      29.671  -9.865  84.344  0.00  0.00     0.206 C 
ATOM      3  C3  BDP d 216      31.334 -11.521  81.268  0.00  0.00     0.092 C 
ATOM      4  O6A BDP d 216      28.514  -9.444  84.553  0.00  0.00    -0.646 OA
ATOM      5  O5  BDP d 216      31.085  -9.015  82.608  0.00  0.00    -0.340 OA
ATOM      6  C4  BDP d 216      30.714 -11.411  82.659  0.00  0.00     0.103 C 
ATOM      7  O2  BDP d 216      32.640 -10.342  79.626  0.00  0.00    -0.388 OA
ATOM      8  C5  BDP d 216      30.128 -10.018  82.896  0.00  0.00     0.152 C 
ATOM      9  O1  BDP d 216      32.310  -7.918  80.966  0.00  0.00    -0.368 OA
ATOM     10  O3  BDP d 216      32.088 -12.712  81.175  0.00  0.00    -0.390 OA
ATOM     11  C1  BDP d 216      31.478  -9.025  81.252  0.00  0.00     0.156 C 
ATOM     12  C2  BDP d 216      32.230 -10.320  80.974  0.00  0.00     0.110 C 
ATOM     13  H   BDP d 216      30.545 -11.538  80.546  0.00  0.00     0.091 H 
ATOM     14  H   BDP d 216      31.466 -11.554  83.408  0.00  0.00     0.092 H 
ATOM     15  H   BDP d 216      33.120 -11.166  79.448  0.00  0.00     0.210 HD
ATOM     16  H   BDP d 216      29.288  -9.904  82.243  0.00  0.00     0.104 H 
ATOM     17  H   BDP d 216      31.826  -7.096  81.144  0.00  0.00     0.212 HD
ATOM     18  H   BDP d 216      32.803 -12.694  81.831  0.00  0.00     0.210 HD
ATOM     19  H   BDP d 216      30.610  -8.959  80.629  0.00  0.00     0.133 H 
ATOM     20  H   BDP d 216      33.090 -10.372  81.608  0.00  0.00     0.094 H 
ATOM     21  O4  ASG d 217      29.854 -16.752  83.814  0.00  0.00    -0.246 OA
ATOM     22  O7  ASG d 217      26.451 -13.967  82.725  0.00  0.00    -0.274 OA
ATOM     23  O1  ASG d 217      29.747 -12.393  82.772  0.00  0.00    -0.348 OA
ATOM     24  C5  ASG d 217      31.509 -15.141  84.645  0.00  0.00     0.090 C 
ATOM     25  C1  ASG d 217      30.025 -13.322  83.806  0.00  0.00     0.154 C 
ATOM     26  C6  ASG d 217      32.839 -15.948  84.416  0.00  0.00     0.043 C 
ATOM     27  OSA ASG d 217      29.395 -18.770  85.290  0.00  0.00    -0.572 OA
ATOM     28  C3  ASG d 217      29.149 -15.060  85.438  0.00  0.00     0.094 C 
ATOM     29  C7  ASG d 217      26.489 -13.204  83.627  0.00  0.00     0.214 C 
ATOM     30  C2  ASG d 217      28.770 -14.103  84.316  0.00  0.00     0.087 C 
ATOM     31  O5  ASG d 217      31.156 -14.259  83.512  0.00  0.00    -0.349 OA
ATOM     32  OSB ASG d 217      30.989 -18.986  83.505  0.00  0.00    -0.572 OA
ATOM     33  OSC ASG d 217      28.639 -18.806  83.040  0.00  0.00    -0.572 OA
ATOM     34  C8  ASG d 217      25.259 -12.332  83.936  0.00  0.00    -0.003 C 
ATOM     35  S   ASG d 217      29.725 -18.388  83.917  0.00  0.00     0.252 S 
ATOM     36  O6  ASG d 217      34.062 -15.353  84.824  0.00  0.00    -0.398 OA
ATOM     37  C4  ASG d 217      30.247 -16.004  84.953  0.00  0.00     0.114 C 
ATOM     38  N   ASG d 217      27.606 -13.236  84.565  0.00  0.00    -0.349 N 
ATOM     39  H   ASG d 217      31.754 -14.569  85.516  0.00  0.00     0.090 H 
ATOM     40  H   ASG d 217      30.351 -12.695  84.610  0.00  0.00     0.132 H 
ATOM     41  H   ASG d 217      32.915 -16.143  83.366  0.00  0.00     0.078 H 
ATOM     42  H   ASG d 217      32.739 -16.809  85.044  0.00  0.00     0.078 H 
ATOM     43  H   ASG d 217      29.412 -14.473  86.293  0.00  0.00     0.091 H 
ATOM     44  H   ASG d 217      28.413 -14.729  83.524  0.00  0.00     0.084 H 
ATOM     45  H   ASG d 217      24.545 -12.429  83.145  0.00  0.00     0.040 H 
ATOM     46  H   ASG d 217      25.560 -11.309  84.019  0.00  0.00     0.040 H 
ATOM     47  H   ASG d 217      24.818 -12.651  84.857  0.00  0.00     0.040 H 
ATOM     48  H   ASG d 217      34.227 -14.557  84.295  0.00  0.00     0.209 HD
ATOM     49  H   ASG d 217      30.455 -16.726  85.716  0.00  0.00     0.093 H 
ATOM     50  H   ASG d 217      27.581 -12.673  85.373  0.00  0.00     0.163 HD
ATOM     51  C6  BDP d 218      28.226 -16.143  90.368  0.00  0.00     0.206 C 
ATOM     52  O3  BDP d 218      24.050 -17.016  87.933  0.00  0.00    -0.390 OA
ATOM     53  C1  BDP d 218      27.346 -15.715  86.793  0.00  0.00     0.160 C 
ATOM     54  C2  BDP d 218      26.036 -16.496  86.736  0.00  0.00     0.110 C 
ATOM     55  O6A BDP d 218      28.563 -15.199  91.117  0.00  0.00    -0.646 OA
ATOM     56  O1  BDP d 218      28.100 -15.957  85.621  0.00  0.00    -0.348 OA
ATOM     57  C3  BDP d 218      25.217 -16.232  87.986  0.00  0.00     0.092 C 
ATOM     58  O5  BDP d 218      28.050 -16.140  87.944  0.00  0.00    -0.340 OA
ATOM     59  C5  BDP d 218      27.367 -15.823  89.146  0.00  0.00     0.152 C 
ATOM     60  C4  BDP d 218      26.045 -16.581  89.219  0.00  0.00     0.103 C 
ATOM     61  O2  BDP d 218      25.282 -16.134  85.600  0.00  0.00    -0.388 OA
ATOM     62  O6B BDP d 218      28.536 -17.337  90.577  0.00  0.00    -0.646 OA
ATOM     63  H   BDP d 218      23.539 -16.780  87.143  0.00  0.00     0.210 HD
ATOM     64  H   BDP d 218      27.161 -14.663  86.850  0.00  0.00     0.133 H 
ATOM     65  H   BDP d 218      26.275 -17.538  86.674  0.00  0.00     0.094 H 
ATOM     66  H   BDP d 218      24.944 -15.199  88.043  0.00  0.00     0.091 H 
ATOM     67  H   BDP d 218      27.167 -14.772  89.145  0.00  0.00     0.104 H 
ATOM     68  H   BDP d 218      26.106 -17.647  89.276  0.00  0.00     0.092 H 
ATOM     69  H   BDP d 218      25.060 -15.191  85.646  0.00  0.00     0.210 HD
ATOM     70  O4  ASG d 221      29.885 -15.109 102.791  0.00  0.00    -0.249 OA
ATOM     71  OSB ASG d 221      31.985 -13.685 102.552  0.00  0.00    -0.572 OA
ATOM     72  OSC ASG d 221      30.351 -13.002 104.156  0.00  0.00    -0.572 OA
ATOM     73  C2  ASG d 221      28.250 -17.061 101.687  0.00  0.00     0.062 C 
ATOM     74  C1  ASG d 221      27.368 -16.045 100.883  0.00  0.00     0.151 C 
ATOM     75  C3  ASG d 221      28.184 -16.789 103.175  0.00  0.00    -0.014 C 
ATOM     76  O7  ASG d 221      29.246 -19.373 103.083  0.00  0.00    -0.274 OA
ATOM     77  C7  ASG d 221      28.428 -19.555 102.249  0.00  0.00     0.214 C 
ATOM     78  O6  ASG d 221      26.388 -12.201 102.874  0.00  0.00    -0.398 OA
ATOM     79  O1  ASG d 221      27.546 -16.111  99.471  0.00  0.00    -0.348 OA
ATOM     80  C5  ASG d 221      27.445 -14.544 102.910  0.00  0.00     0.088 C 
ATOM     81  C4  ASG d 221      28.647 -15.376 103.431  0.00  0.00     0.089 C 
ATOM     82  OSA ASG d 221      29.931 -12.755 101.816  0.00  0.00    -0.572 OA
ATOM     83  S   ASG d 221      30.555 -13.597 102.835  0.00  0.00     0.252 S 
ATOM     84  O5  ASG d 221      27.458 -14.651 101.434  0.00  0.00    -0.349 OA
ATOM     85  C8  ASG d 221      27.955 -20.990 101.958  0.00  0.00    -0.003 C 
ATOM     86  C6  ASG d 221      27.283 -13.100 103.512  0.00  0.00     0.043 C 
ATOM     87  N   ASG d 221      28.024 -18.477 101.347  0.00  0.00    -0.352 N 
ATOM     88  H   ASG d 221      29.257 -16.886 101.371  0.00  0.00     0.080 H 
ATOM     89  H   ASG d 221      26.357 -16.361 101.034  0.00  0.00     0.132 H 
ATOM     90  H   ASG d 221      28.819 -17.475 103.695  0.00  0.00     0.040 H 
ATOM     91  H   ASG d 221      27.179 -16.910 103.522  0.00  0.00     0.040 H 
ATOM     92  H   ASG d 221      26.388 -11.354 103.347  0.00  0.00     0.209 HD
ATOM     93  H   ASG d 221      26.532 -14.959 103.284  0.00  0.00     0.090 H 
ATOM     94  H   ASG d 221      28.871 -15.150 104.452  0.00  0.00     0.089 H 
ATOM     95  H   ASG d 221      28.336 -21.650 102.709  0.00  0.00     0.040 H 
ATOM     96  H   ASG d 221      28.313 -21.296 100.998  0.00  0.00     0.040 H 
ATOM     97  H   ASG d 221      26.885 -21.021 101.965  0.00  0.00     0.040 H 
ATOM     98  H   ASG d 221      26.951 -13.213 104.523  0.00  0.00     0.078 H 
ATOM     99  H   ASG d 221      28.246 -12.651 103.382  0.00  0.00     0.078 H 
ATOM    100  H   ASG d 221      27.591 -18.703 100.492  0.00  0.00     0.163 HD
ATOM    101  O5  BDP d 220      25.466 -17.301  96.875  0.00  0.00    -0.340 OA
ATOM    102  C5  BDP d 220      26.564 -17.245  97.763  0.00  0.00     0.152 C 
ATOM    103  C6  BDP d 220      26.749 -18.588  98.465  0.00  0.00     0.206 C 
ATOM    104  C1  BDP d 220      25.466 -16.201  95.990  0.00  0.00     0.160 C 
ATOM    105  C3  BDP d 220      26.249 -14.798  97.983  0.00  0.00     0.092 C 
ATOM    106  O2  BDP d 220      25.402 -13.812  95.948  0.00  0.00    -0.388 OA
ATOM    107  O6B BDP d 220      25.782 -19.058  99.112  0.00  0.00    -0.646 OA
ATOM    108  C2  BDP d 220      25.274 -14.925  96.805  0.00  0.00     0.110 C 
ATOM    109  O3  BDP d 220      25.809 -13.770  98.854  0.00  0.00    -0.390 OA
ATOM    110  O1  BDP d 220      24.406 -16.315  95.052  0.00  0.00    -0.348 OA
ATOM    111  O6A BDP d 220      27.866 -19.151  98.358  0.00  0.00    -0.646 OA
ATOM    112  C4  BDP d 220      26.355 -16.111  98.761  0.00  0.00     0.103 C 
ATOM    113  H   BDP d 220      27.461 -17.048  97.214  0.00  0.00     0.104 H 
ATOM    114  H   BDP d 220      26.394 -16.176  95.458  0.00  0.00     0.133 H 
ATOM    115  H   BDP d 220      27.215 -14.560  97.591  0.00  0.00     0.091 H 
ATOM    116  H   BDP d 220      24.782 -13.902  95.207  0.00  0.00     0.210 HD
ATOM    117  H   BDP d 220      24.295 -14.966  97.235  0.00  0.00     0.094 H 
ATOM    118  H   BDP d 220      24.933 -13.996  99.204  0.00  0.00     0.210 HD
ATOM    119  H   BDP d 220      25.484 -16.218  99.373  0.00  0.00     0.092 H 
ATOM    120  OSC ASG d 219      19.821 -16.878  93.451  0.00  0.00    -0.572 OA
ATOM    121  C5  ASG d 219      23.927 -18.716  92.288  0.00  0.00     0.090 C 
ATOM    122  C3  ASG d 219      24.751 -17.019  93.904  0.00  0.00     0.094 C 
ATOM    123  C6  ASG d 219      22.892 -19.843  91.954  0.00  0.00     0.043 C 
ATOM    124  C7  ASG d 219      25.962 -13.640  92.768  0.00  0.00     0.214 C 
ATOM    125  C4  ASG d 219      23.545 -17.871  93.534  0.00  0.00     0.114 C 
ATOM    126  S   ASG d 219      20.942 -17.602  94.047  0.00  0.00     0.252 S 
ATOM    127  C8  ASG d 219      27.135 -12.656  92.958  0.00  0.00    -0.003 C 
ATOM    128  O7  ASG d 219      24.938 -13.255  92.326  0.00  0.00    -0.274 OA
ATOM    129  O6  ASG d 219      23.032 -20.560  90.735  0.00  0.00    -0.398 OA
ATOM    130  OSB ASG d 219      20.671 -19.026  93.856  0.00  0.00    -0.572 OA
ATOM    131  O1  ASG d 219      25.500 -15.932  90.315  0.00  0.00    -0.348 OA
ATOM    132  O4  ASG d 219      22.350 -17.145  93.300  0.00  0.00    -0.246 OA
ATOM    133  OSA ASG d 219      21.103 -17.270  95.465  0.00  0.00    -0.572 OA
ATOM    134  O5  ASG d 219      24.122 -17.752  91.184  0.00  0.00    -0.349 OA
ATOM    135  N   ASG d 219      26.114 -15.053  93.103  0.00  0.00    -0.349 N 
ATOM    136  C2  ASG d 219      25.057 -16.032  92.789  0.00  0.00     0.087 C 
ATOM    137  C1  ASG d 219      25.246 -16.787  91.422  0.00  0.00     0.154 C 
ATOM    138  H   ASG d 219      24.825 -19.268  92.472  0.00  0.00     0.090 H 
ATOM    139  H   ASG d 219      25.613 -17.633  94.060  0.00  0.00     0.091 H 
ATOM    140  H   ASG d 219      21.924 -19.388  91.942  0.00  0.00     0.078 H 
ATOM    141  H   ASG d 219      23.060 -20.582  92.709  0.00  0.00     0.078 H 
ATOM    142  H   ASG d 219      23.318 -18.486  94.379  0.00  0.00     0.093 H 
ATOM    143  H   ASG d 219      27.976 -13.178  93.365  0.00  0.00     0.040 H 
ATOM    144  H   ASG d 219      26.840 -11.875  93.627  0.00  0.00     0.040 H 
ATOM    145  H   ASG d 219      27.403 -12.233  92.012  0.00  0.00     0.040 H 
ATOM    146  H   ASG d 219      22.893 -19.957  89.988  0.00  0.00     0.209 HD
ATOM    147  H   ASG d 219      26.938 -15.359  93.547  0.00  0.00     0.163 HD
ATOM    148  H   ASG d 219      24.197 -15.404  92.685  0.00  0.00     0.084 H 
ATOM    149  H   ASG d 219      26.147 -17.358  91.511  0.00  0.00     0.132 H 
ENDROOT
TORSDOF 38
ENDMDL
MODEL 19
REMARK VINA RESULT:      -6.9      4.273     16.363
REMARK  0 active torsions:
REMARK  status: ('A' for Active; 'I' for Inactive)
REMARK       I    between atoms: C6_2  and  C5_55 
REMARK       I    between atoms: O4_3  and  C4_83 
REMARK       I    between atoms: O4_3  and  S_75 
REMARK       I    between atoms: C6_4  and  C5_67 
REMARK       I    between atoms: O4_5  and  C4_61 
REMARK       I    between atoms: O4_5  and  S_71 
REMARK       I    between atoms: O3_6  and  C3_32 
REMARK       I    between atoms: C1_8  and  O1_30 
REMARK       I    between atoms: C3_12  and  O3_62 
REMARK       I    between atoms: C5_13  and  C6_25 
REMARK       I    between atoms: O1_14  and  C4_39 
REMARK       I    between atoms: O1_14  and  C1_23 
REMARK       I    between atoms: C5_15  and  C6_27 
REMARK       I    between atoms: C5_18  and  C6_44 
REMARK       I    between atoms: C3_19  and  O1_82 
REMARK       I    between atoms: C2_20  and  N_89 
REMARK       I    between atoms: C2_21  and  O2_80 
REMARK       I    between atoms: C1_24  and  O1_45 
REMARK       I    between atoms: C6_25  and  O6_48 
REMARK       I    between atoms: C6_27  and  O6_77 
REMARK       I    between atoms: C7_28  and  C8_35 
REMARK       I    between atoms: C7_28  and  N_70 
REMARK       I    between atoms: O1_30  and  C3_43 
REMARK       I    between atoms: C4_33  and  O4_53 
REMARK       I    between atoms: S_34  and  O4_53 
REMARK       I    between atoms: O2_40  and  C2_87 
REMARK       I    between atoms: C7_41  and  C8_81 
REMARK       I    between atoms: C7_41  and  N_89 
REMARK       I    between atoms: O6_42  and  C6_88 
REMARK       I    between atoms: O1_45  and  C4_90 
REMARK       I    between atoms: C7_46  and  C8_69 
REMARK       I    between atoms: C7_46  and  N_85 
REMARK       I    between atoms: C2_47  and  N_85 
REMARK       I    between atoms: O1_50  and  C4_73 
REMARK       I    between atoms: O1_50  and  C1_76 
REMARK       I    between atoms: C1_52  and  O1_82 
REMARK       I    between atoms: C3_54  and  O3_72 
REMARK       I    between atoms: C5_57  and  C6_88 
REMARK       I    between atoms: O1_59  and  C1_78 
REMARK       I    between atoms: O2_63  and  C2_68 
REMARK       I    between atoms: N_70  and  C2_74 
ROOT
ATOM      1  O6B BDP d 216      31.223 -17.367  83.203  0.00  0.00    -0.646 OA
ATOM      2  C6  BDP d 216      31.878 -16.670  82.398  0.00  0.00     0.206 C 
ATOM      3  C3  BDP d 216      29.883 -17.196  79.125  0.00  0.00     0.092 C 
ATOM      4  O6A BDP d 216      32.718 -15.813  82.746  0.00  0.00    -0.646 OA
ATOM      5  O5  BDP d 216      32.187 -18.128  80.524  0.00  0.00    -0.340 OA
ATOM      6  C4  BDP d 216      30.149 -16.816  80.581  0.00  0.00     0.103 C 
ATOM      7  O2  BDP d 216      30.531 -18.701  77.363  0.00  0.00    -0.388 OA
ATOM      8  C5  BDP d 216      31.643 -16.879  80.905  0.00  0.00     0.152 C 
ATOM      9  O1  BDP d 216      32.793 -19.526  78.769  0.00  0.00    -0.368 OA
ATOM     10  O3  BDP d 216      28.497 -17.383  78.927  0.00  0.00    -0.390 OA
ATOM     11  C1  BDP d 216      32.103 -18.346  79.132  0.00  0.00     0.156 C 
ATOM     12  C2  BDP d 216      30.634 -18.471  78.749  0.00  0.00     0.110 C 
ATOM     13  H   BDP d 216      30.231 -16.402  78.499  0.00  0.00     0.091 H 
ATOM     14  H   BDP d 216      29.668 -17.513  81.235  0.00  0.00     0.092 H 
ATOM     15  H   BDP d 216      29.596 -18.781  77.117  0.00  0.00     0.210 HD
ATOM     16  H   BDP d 216      32.127 -16.098  80.355  0.00  0.00     0.104 H 
ATOM     17  H   BDP d 216      33.728 -19.441  79.015  0.00  0.00     0.212 HD
ATOM     18  H   BDP d 216      28.184 -18.104  79.497  0.00  0.00     0.210 HD
ATOM     19  H   BDP d 216      32.553 -17.524  78.615  0.00  0.00     0.133 H 
ATOM     20  H   BDP d 216      30.200 -19.293  79.278  0.00  0.00     0.094 H 
ATOM     21  O4  ASG d 217      25.554 -13.965  81.743  0.00  0.00    -0.246 OA
ATOM     22  O7  ASG d 217      29.540 -11.909  81.098  0.00  0.00    -0.274 OA
ATOM     23  O1  ASG d 217      29.638 -15.548  80.789  0.00  0.00    -0.348 OA
ATOM     24  C5  ASG d 217      26.302 -16.206  82.403  0.00  0.00     0.090 C 
ATOM     25  C1  ASG d 217      28.614 -15.522  81.769  0.00  0.00     0.154 C 
ATOM     26  C6  ASG d 217      25.042 -17.060  82.009  0.00  0.00     0.043 C 
ATOM     27  OSA ASG d 217      23.809 -12.868  83.230  0.00  0.00    -0.572 OA
ATOM     28  C3  ASG d 217      27.283 -14.178  83.464  0.00  0.00     0.094 C 
ATOM     29  C7  ASG d 217      30.165 -12.346  82.001  0.00  0.00     0.214 C 
ATOM     30  C2  ASG d 217      28.379 -14.115  82.408  0.00  0.00     0.087 C 
ATOM     31  O5  ASG d 217      27.320 -16.136  81.331  0.00  0.00    -0.349 OA
ATOM     32  OSB ASG d 217      23.075 -14.048  81.270  0.00  0.00    -0.572 OA
ATOM     33  OSC ASG d 217      24.220 -11.944  81.082  0.00  0.00    -0.572 OA
ATOM     34  C8  ASG d 217      31.440 -11.618  82.464  0.00  0.00    -0.003 C 
ATOM     35  S   ASG d 217      24.107 -13.187  81.834  0.00  0.00     0.252 S 
ATOM     36  O6  ASG d 217      25.064 -18.454  82.282  0.00  0.00    -0.398 OA
ATOM     37  C4  ASG d 217      26.007 -14.739  82.840  0.00  0.00     0.114 C 
ATOM     38  N   ASG d 217      29.625 -13.439  82.804  0.00  0.00    -0.349 N 
ATOM     39  H   ASG d 217      26.671 -16.750  83.248  0.00  0.00     0.090 H 
ATOM     40  H   ASG d 217      29.005 -16.154  82.539  0.00  0.00     0.132 H 
ATOM     41  H   ASG d 217      24.897 -16.945  80.954  0.00  0.00     0.078 H 
ATOM     42  H   ASG d 217      24.258 -16.679  82.631  0.00  0.00     0.078 H 
ATOM     43  H   ASG d 217      27.659 -14.741  84.292  0.00  0.00     0.091 H 
ATOM     44  H   ASG d 217      28.001 -13.457  81.653  0.00  0.00     0.084 H 
ATOM     45  H   ASG d 217      31.688 -10.852  81.759  0.00  0.00     0.040 H 
ATOM     46  H   ASG d 217      32.246 -12.318  82.528  0.00  0.00     0.040 H 
ATOM     47  H   ASG d 217      31.271 -11.178  83.425  0.00  0.00     0.040 H 
ATOM     48  H   ASG d 217      25.756 -18.877  81.750  0.00  0.00     0.209 HD
ATOM     49  H   ASG d 217      25.218 -14.708  83.563  0.00  0.00     0.093 H 
ATOM     50  H   ASG d 217      30.099 -13.727  83.617  0.00  0.00     0.163 HD
ATOM     51  C6  BDP d 218      26.366 -13.385  88.450  0.00  0.00     0.206 C 
ATOM     52  O3  BDP d 218      27.410  -9.000  86.500  0.00  0.00    -0.390 OA
ATOM     53  C1  BDP d 218      27.333 -12.409  85.008  0.00  0.00     0.160 C 
ATOM     54  C2  BDP d 218      27.154 -10.895  85.090  0.00  0.00     0.110 C 
ATOM     55  O6A BDP d 218      27.045 -14.152  89.170  0.00  0.00    -0.646 OA
ATOM     56  O1  BDP d 218      26.879 -12.878  83.752  0.00  0.00    -0.348 OA
ATOM     57  C3  BDP d 218      27.649 -10.384  86.430  0.00  0.00     0.092 C 
ATOM     58  O5  BDP d 218      26.589 -12.987  86.062  0.00  0.00    -0.340 OA
ATOM     59  C5  BDP d 218      27.081 -12.617  87.340  0.00  0.00     0.152 C 
ATOM     60  C4  BDP d 218      26.921 -11.114  87.554  0.00  0.00     0.103 C 
ATOM     61  O2  BDP d 218      27.859 -10.247  84.054  0.00  0.00    -0.388 OA
ATOM     62  O6B BDP d 218      25.138 -13.199  88.603  0.00  0.00    -0.646 OA
ATOM     63  H   BDP d 218      27.881  -8.554  85.778  0.00  0.00     0.210 HD
ATOM     64  H   BDP d 218      28.364 -12.677  85.102  0.00  0.00     0.133 H 
ATOM     65  H   BDP d 218      26.111 -10.679  84.985  0.00  0.00     0.094 H 
ATOM     66  H   BDP d 218      28.699 -10.565  86.534  0.00  0.00     0.091 H 
ATOM     67  H   BDP d 218      28.120 -12.866  87.379  0.00  0.00     0.104 H 
ATOM     68  H   BDP d 218      25.919 -10.740  87.587  0.00  0.00     0.092 H 
ATOM     69  H   BDP d 218      28.807 -10.437  84.141  0.00  0.00     0.210 HD
ATOM     70  O4  ASG d 221      25.873 -16.544 100.613  0.00  0.00    -0.249 OA
ATOM     71  OSB ASG d 221      26.337 -19.007 100.155  0.00  0.00    -0.572 OA
ATOM     72  OSC ASG d 221      27.523 -17.965 101.948  0.00  0.00    -0.572 OA
ATOM     73  C2  ASG d 221      24.822 -14.153  99.674  0.00  0.00     0.062 C 
ATOM     74  C1  ASG d 221      26.156 -13.689  98.994  0.00  0.00     0.151 C 
ATOM     75  C3  ASG d 221      25.006 -14.351 101.164  0.00  0.00    -0.014 C 
ATOM     76  O7  ASG d 221      22.224 -14.248 100.910  0.00  0.00    -0.274 OA
ATOM     77  C7  ASG d 221      22.441 -13.348 100.173  0.00  0.00     0.214 C 
ATOM     78  O6  ASG d 221      29.937 -14.571 101.145  0.00  0.00    -0.398 OA
ATOM     79  O1  ASG d 221      26.110 -13.684  97.570  0.00  0.00    -0.348 OA
ATOM     80  C5  ASG d 221      27.370 -14.574 101.021  0.00  0.00     0.088 C 
ATOM     81  C4  ASG d 221      26.091 -15.375 101.387  0.00  0.00     0.089 C 
ATOM     82  OSA ASG d 221      28.062 -17.453  99.676  0.00  0.00    -0.572 OA
ATOM     83  S   ASG d 221      26.979 -17.775 100.603  0.00  0.00     0.252 S 
ATOM     84  O5  ASG d 221      27.358 -14.396  99.553  0.00  0.00    -0.349 OA
ATOM     85  C8  ASG d 221      21.341 -12.303  99.917  0.00  0.00    -0.003 C 
ATOM     86  C6  ASG d 221      28.715 -15.078 101.661  0.00  0.00     0.043 C 
ATOM     87  N   ASG d 221      23.643 -13.334  99.341  0.00  0.00    -0.352 N 
ATOM     88  H   ASG d 221      24.594 -15.106  99.247  0.00  0.00     0.080 H 
ATOM     89  H   ASG d 221      26.268 -12.658  99.255  0.00  0.00     0.132 H 
ATOM     90  H   ASG d 221      24.091 -14.698 101.596  0.00  0.00     0.040 H 
ATOM     91  H   ASG d 221      25.281 -13.425 101.623  0.00  0.00     0.040 H 
ATOM     92  H   ASG d 221      30.681 -14.964 101.628  0.00  0.00     0.209 HD
ATOM     93  H   ASG d 221      27.337 -13.613 101.492  0.00  0.00     0.090 H 
ATOM     94  H   ASG d 221      26.144 -15.771 102.379  0.00  0.00     0.089 H 
ATOM     95  H   ASG d 221      20.539 -12.453 100.608  0.00  0.00     0.040 H 
ATOM     96  H   ASG d 221      20.976 -12.408  98.917  0.00  0.00     0.040 H 
ATOM     97  H   ASG d 221      21.746 -11.321 100.047  0.00  0.00     0.040 H 
ATOM     98  H   ASG d 221      28.684 -14.831 102.701  0.00  0.00     0.078 H 
ATOM     99  H   ASG d 221      28.743 -16.122 101.428  0.00  0.00     0.078 H 
ATOM    100  H   ASG d 221      23.665 -12.764  98.538  0.00  0.00     0.163 HD
ATOM    101  O5  BDP d 220      26.028 -11.053  95.213  0.00  0.00    -0.340 OA
ATOM    102  C5  BDP d 220      25.579 -12.159  95.969  0.00  0.00     0.152 C 
ATOM    103  C6  BDP d 220      24.235 -11.847  96.624  0.00  0.00     0.206 C 
ATOM    104  C1  BDP d 220      27.085 -11.415  94.352  0.00  0.00     0.160 C 
ATOM    105  C3  BDP d 220      27.926 -12.897  96.263  0.00  0.00     0.092 C 
ATOM    106  O2  BDP d 220      29.293 -12.331  94.354  0.00  0.00    -0.388 OA
ATOM    107  O6B BDP d 220      24.158 -10.842  97.370  0.00  0.00    -0.646 OA
ATOM    108  C2  BDP d 220      28.277 -11.845  95.203  0.00  0.00     0.110 C 
ATOM    109  O3  BDP d 220      28.987 -13.005  97.194  0.00  0.00    -0.390 OA
ATOM    110  O1  BDP d 220      27.468 -10.314  93.540  0.00  0.00    -0.348 OA
ATOM    111  O6A BDP d 220      23.276 -12.619  96.380  0.00  0.00    -0.646 OA
ATOM    112  C4  BDP d 220      26.637 -12.533  97.002  0.00  0.00     0.103 C 
ATOM    113  H   BDP d 220      25.430 -12.999  95.323  0.00  0.00     0.104 H 
ATOM    114  H   BDP d 220      26.765 -12.215  93.716  0.00  0.00     0.133 H 
ATOM    115  H   BDP d 220      27.775 -13.832  95.765  0.00  0.00     0.091 H 
ATOM    116  H   BDP d 220      29.507 -11.659  93.689  0.00  0.00     0.210 HD
ATOM    117  H   BDP d 220      28.610 -10.982  95.742  0.00  0.00     0.094 H 
ATOM    118  H   BDP d 220      29.115 -12.153  97.639  0.00  0.00     0.210 HD
ATOM    119  H   BDP d 220      26.855 -11.760  97.709  0.00  0.00     0.092 H 
ATOM    120  OSC ASG d 219      28.909  -5.767  92.471  0.00  0.00    -0.572 OA
ATOM    121  C5  ASG d 219      25.642  -8.624  90.813  0.00  0.00     0.090 C 
ATOM    122  C3  ASG d 219      26.756 -10.225  92.350  0.00  0.00     0.094 C 
ATOM    123  C6  ASG d 219      25.053  -7.190  90.583  0.00  0.00     0.043 C 
ATOM    124  C7  ASG d 219      29.419 -12.595  91.134  0.00  0.00     0.214 C 
ATOM    125  C4  ASG d 219      26.491  -8.747  92.108  0.00  0.00     0.114 C 
ATOM    126  S   ASG d 219      27.759  -6.547  92.922  0.00  0.00     0.252 S 
ATOM    127  C8  ASG d 219      29.829 -14.080  91.202  0.00  0.00    -0.003 C 
ATOM    128  O7  ASG d 219      30.211 -11.780  90.819  0.00  0.00    -0.274 OA
ATOM    129  O6  ASG d 219      24.418  -6.903  89.345  0.00  0.00    -0.398 OA
ATOM    130  OSB ASG d 219      26.581  -5.699  92.742  0.00  0.00    -0.572 OA
ATOM    131  O1  ASG d 219      27.666 -10.995  88.716  0.00  0.00    -0.348 OA
ATOM    132  O4  ASG d 219      27.651  -7.936  92.025  0.00  0.00    -0.246 OA
ATOM    133  OSA ASG d 219      27.909  -6.968  94.317  0.00  0.00    -0.572 OA
ATOM    134  O5  ASG d 219      26.509  -9.086  89.709  0.00  0.00    -0.349 OA
ATOM    135  N   ASG d 219      28.047 -12.187  91.427  0.00  0.00    -0.349 N 
ATOM    136  C2  ASG d 219      27.601 -10.796  91.222  0.00  0.00     0.087 C 
ATOM    137  C1  ASG d 219      26.920 -10.524  89.831  0.00  0.00     0.154 C 
ATOM    138  H   ASG d 219      24.763  -9.230  90.883  0.00  0.00     0.090 H 
ATOM    139  H   ASG d 219      25.838 -10.772  92.395  0.00  0.00     0.091 H 
ATOM    140  H   ASG d 219      25.861  -6.497  90.690  0.00  0.00     0.078 H 
ATOM    141  H   ASG d 219      24.265  -7.115  91.302  0.00  0.00     0.078 H 
ATOM    142  H   ASG d 219      25.970  -8.372  92.964  0.00  0.00     0.093 H 
ATOM    143  H   ASG d 219      28.988 -14.669  91.502  0.00  0.00     0.040 H 
ATOM    144  H   ASG d 219      30.620 -14.198  91.913  0.00  0.00     0.040 H 
ATOM    145  H   ASG d 219      30.165 -14.402  90.239  0.00  0.00     0.040 H 
ATOM    146  H   ASG d 219      25.070  -6.950  88.628  0.00  0.00     0.209 HD
ATOM    147  H   ASG d 219      27.407 -12.854  91.768  0.00  0.00     0.163 HD
ATOM    148  H   ASG d 219      28.529 -10.263  91.228  0.00  0.00     0.084 H 
ATOM    149  H   ASG d 219      26.030 -11.116  89.806  0.00  0.00     0.132 H 
ENDROOT
TORSDOF 38
ENDMDL
MODEL 20
REMARK VINA RESULT:      -6.9      4.122     16.206
REMARK  0 active torsions:
REMARK  status: ('A' for Active; 'I' for Inactive)
REMARK       I    between atoms: C6_2  and  C5_55 
REMARK       I    between atoms: O4_3  and  C4_83 
REMARK       I    between atoms: O4_3  and  S_75 
REMARK       I    between atoms: C6_4  and  C5_67 
REMARK       I    between atoms: O4_5  and  C4_61 
REMARK       I    between atoms: O4_5  and  S_71 
REMARK       I    between atoms: O3_6  and  C3_32 
REMARK       I    between atoms: C1_8  and  O1_30 
REMARK       I    between atoms: C3_12  and  O3_62 
REMARK       I    between atoms: C5_13  and  C6_25 
REMARK       I    between atoms: O1_14  and  C4_39 
REMARK       I    between atoms: O1_14  and  C1_23 
REMARK       I    between atoms: C5_15  and  C6_27 
REMARK       I    between atoms: C5_18  and  C6_44 
REMARK       I    between atoms: C3_19  and  O1_82 
REMARK       I    between atoms: C2_20  and  N_89 
REMARK       I    between atoms: C2_21  and  O2_80 
REMARK       I    between atoms: C1_24  and  O1_45 
REMARK       I    between atoms: C6_25  and  O6_48 
REMARK       I    between atoms: C6_27  and  O6_77 
REMARK       I    between atoms: C7_28  and  C8_35 
REMARK       I    between atoms: C7_28  and  N_70 
REMARK       I    between atoms: O1_30  and  C3_43 
REMARK       I    between atoms: C4_33  and  O4_53 
REMARK       I    between atoms: S_34  and  O4_53 
REMARK       I    between atoms: O2_40  and  C2_87 
REMARK       I    between atoms: C7_41  and  C8_81 
REMARK       I    between atoms: C7_41  and  N_89 
REMARK       I    between atoms: O6_42  and  C6_88 
REMARK       I    between atoms: O1_45  and  C4_90 
REMARK       I    between atoms: C7_46  and  C8_69 
REMARK       I    between atoms: C7_46  and  N_85 
REMARK       I    between atoms: C2_47  and  N_85 
REMARK       I    between atoms: O1_50  and  C4_73 
REMARK       I    between atoms: O1_50  and  C1_76 
REMARK       I    between atoms: C1_52  and  O1_82 
REMARK       I    between atoms: C3_54  and  O3_72 
REMARK       I    between atoms: C5_57  and  C6_88 
REMARK       I    between atoms: O1_59  and  C1_78 
REMARK       I    between atoms: O2_63  and  C2_68 
REMARK       I    between atoms: N_70  and  C2_74 
ROOT
ATOM      1  O6B BDP d 216      28.176 -20.116  85.735  0.00  0.00    -0.646 OA
ATOM      2  C6  BDP d 216      28.826 -19.840  84.704  0.00  0.00     0.206 C 
ATOM      3  C3  BDP d 216      26.128 -20.246  81.961  0.00  0.00     0.092 C 
ATOM      4  O6A BDP d 216      29.938 -19.269  84.716  0.00  0.00    -0.646 OA
ATOM      5  O5  BDP d 216      28.285 -21.632  83.211  0.00  0.00    -0.340 OA
ATOM      6  C4  BDP d 216      26.793 -19.721  83.232  0.00  0.00     0.103 C 
ATOM      7  O2  BDP d 216      25.911 -22.176  80.539  0.00  0.00    -0.388 OA
ATOM      8  C5  BDP d 216      28.233 -20.225  83.352  0.00  0.00     0.152 C 
ATOM      9  O1  BDP d 216      28.064 -23.447  81.777  0.00  0.00    -0.368 OA
ATOM     10  O3  BDP d 216      24.740 -19.986  82.008  0.00  0.00    -0.390 OA
ATOM     11  C1  BDP d 216      27.850 -22.058  81.937  0.00  0.00     0.156 C 
ATOM     12  C2  BDP d 216      26.366 -21.746  81.802  0.00  0.00     0.110 C 
ATOM     13  H   BDP d 216      26.559 -19.745  81.121  0.00  0.00     0.091 H 
ATOM     14  H   BDP d 216      26.273 -20.082  84.095  0.00  0.00     0.092 H 
ATOM     15  H   BDP d 216      24.966 -21.978  80.452  0.00  0.00     0.210 HD
ATOM     16  H   BDP d 216      28.802 -19.768  82.570  0.00  0.00     0.104 H 
ATOM     17  H   BDP d 216      29.010 -23.641  81.863  0.00  0.00     0.212 HD
ATOM     18  H   BDP d 216      24.352 -20.442  82.771  0.00  0.00     0.210 HD
ATOM     19  H   BDP d 216      28.408 -21.546  81.181  0.00  0.00     0.133 H 
ATOM     20  H   BDP d 216      25.825 -22.261  82.568  0.00  0.00     0.094 H 
ATOM     21  O4  ASG d 217      23.615 -15.321  84.298  0.00  0.00    -0.246 OA
ATOM     22  O7  ASG d 217      27.806 -14.890  82.635  0.00  0.00    -0.274 OA
ATOM     23  O1  ASG d 217      26.741 -18.339  83.197  0.00  0.00    -0.348 OA
ATOM     24  C5  ASG d 217      23.776 -17.524  85.367  0.00  0.00     0.090 C 
ATOM     25  C1  ASG d 217      26.001 -17.790  84.275  0.00  0.00     0.154 C 
ATOM     26  C6  ASG d 217      22.264 -17.957  85.368  0.00  0.00     0.043 C 
ATOM     27  OSA ASG d 217      22.629 -13.448  85.705  0.00  0.00    -0.572 OA
ATOM     28  C3  ASG d 217      25.519 -15.790  85.764  0.00  0.00     0.094 C 
ATOM     29  C7  ASG d 217      28.446 -15.340  83.521  0.00  0.00     0.214 C 
ATOM     30  C2  ASG d 217      26.338 -16.295  84.583  0.00  0.00     0.087 C 
ATOM     31  O5  ASG d 217      24.521 -17.998  84.181  0.00  0.00    -0.349 OA
ATOM     32  OSB ASG d 217      21.183 -14.646  84.206  0.00  0.00    -0.572 OA
ATOM     33  OSC ASG d 217      22.841 -13.125  83.363  0.00  0.00    -0.572 OA
ATOM     34  C8  ASG d 217      29.947 -15.016  83.614  0.00  0.00    -0.003 C 
ATOM     35  S   ASG d 217      22.520 -14.098  84.399  0.00  0.00     0.252 S 
ATOM     36  O6  ASG d 217      21.924 -19.202  85.963  0.00  0.00    -0.398 OA
ATOM     37  C4  ASG d 217      24.033 -15.990  85.476  0.00  0.00     0.114 C 
ATOM     38  N   ASG d 217      27.783 -16.021  84.629  0.00  0.00    -0.349 N 
ATOM     39  H   ASG d 217      24.133 -17.997  86.259  0.00  0.00     0.090 H 
ATOM     40  H   ASG d 217      26.336 -18.366  85.113  0.00  0.00     0.132 H 
ATOM     41  H   ASG d 217      21.944 -17.995  84.347  0.00  0.00     0.078 H 
ATOM     42  H   ASG d 217      21.779 -17.228  85.983  0.00  0.00     0.078 H 
ATOM     43  H   ASG d 217      25.873 -16.287  86.643  0.00  0.00     0.091 H 
ATOM     44  H   ASG d 217      26.026 -15.697  83.752  0.00  0.00     0.084 H 
ATOM     45  H   ASG d 217      30.261 -14.521  82.719  0.00  0.00     0.040 H 
ATOM     46  H   ASG d 217      30.501 -15.923  83.733  0.00  0.00     0.040 H 
ATOM     47  H   ASG d 217      30.123 -14.377  84.456  0.00  0.00     0.040 H 
ATOM     48  H   ASG d 217      22.331 -19.923  85.458  0.00  0.00     0.209 HD
ATOM     49  H   ASG d 217      23.458 -15.563  86.273  0.00  0.00     0.093 H 
ATOM     50  H   ASG d 217      28.308 -16.299  85.414  0.00  0.00     0.163 HD
ATOM     51  C6  BDP d 218      25.944 -13.840  90.492  0.00  0.00     0.206 C 
ATOM     52  O3  BDP d 218      27.825 -10.500  87.421  0.00  0.00    -0.390 OA
ATOM     53  C1  BDP d 218      26.419 -13.893  86.816  0.00  0.00     0.160 C 
ATOM     54  C2  BDP d 218      26.723 -12.420  86.556  0.00  0.00     0.110 C 
ATOM     55  O6A BDP d 218      26.497 -14.646  91.274  0.00  0.00    -0.646 OA
ATOM     56  O1  BDP d 218      25.593 -14.400  85.785  0.00  0.00    -0.348 OA
ATOM     57  C3  BDP d 218      27.618 -11.871  87.653  0.00  0.00     0.092 C 
ATOM     58  O5  BDP d 218      25.773 -13.983  88.071  0.00  0.00    -0.340 OA
ATOM     59  C5  BDP d 218      26.609 -13.575  89.142  0.00  0.00     0.152 C 
ATOM     60  C4  BDP d 218      26.955 -12.094  89.008  0.00  0.00     0.103 C 
ATOM     61  O2  BDP d 218      27.358 -12.249  85.308  0.00  0.00    -0.388 OA
ATOM     62  O6B BDP d 218      24.890 -13.225  90.763  0.00  0.00    -0.646 OA
ATOM     63  H   BDP d 218      28.247 -10.379  86.555  0.00  0.00     0.210 HD
ATOM     64  H   BDP d 218      27.318 -14.472  86.828  0.00  0.00     0.133 H 
ATOM     65  H   BDP d 218      25.796 -11.886  86.548  0.00  0.00     0.094 H 
ATOM     66  H   BDP d 218      28.562 -12.375  87.652  0.00  0.00     0.091 H 
ATOM     67  H   BDP d 218      27.510 -14.149  89.096  0.00  0.00     0.104 H 
ATOM     68  H   BDP d 218      26.142 -11.403  89.089  0.00  0.00     0.092 H 
ATOM     69  H   BDP d 218      28.201 -12.728  85.306  0.00  0.00     0.210 HD
ATOM     70  O4  ASG d 221      27.079 -14.374 103.005  0.00  0.00    -0.249 OA
ATOM     71  OSB ASG d 221      26.675 -16.889 103.093  0.00  0.00    -0.572 OA
ATOM     72  OSC ASG d 221      28.466 -16.001 104.401  0.00  0.00    -0.572 OA
ATOM     73  C2  ASG d 221      26.622 -11.982 101.674  0.00  0.00     0.062 C 
ATOM     74  C1  ASG d 221      27.860 -12.129 100.725  0.00  0.00     0.151 C 
ATOM     75  C3  ASG d 221      27.044 -11.957 103.128  0.00  0.00    -0.014 C 
ATOM     76  O7  ASG d 221      24.433 -10.966 103.243  0.00  0.00    -0.274 OA
ATOM     77  C7  ASG d 221      24.750 -10.343 102.290  0.00  0.00     0.214 C 
ATOM     78  O6  ASG d 221      31.565 -13.831 102.481  0.00  0.00    -0.398 OA
ATOM     79  O1  ASG d 221      27.522 -12.368  99.362  0.00  0.00    -0.348 OA
ATOM     80  C5  ASG d 221      29.148 -12.988 102.718  0.00  0.00     0.088 C 
ATOM     81  C4  ASG d 221      27.794 -13.228 103.438  0.00  0.00     0.089 C 
ATOM     82  OSA ASG d 221      28.648 -16.125 102.021  0.00  0.00    -0.572 OA
ATOM     83  S   ASG d 221      27.736 -15.887 103.138  0.00  0.00     0.252 S 
ATOM     84  O5  ASG d 221      28.884 -13.087 101.266  0.00  0.00    -0.349 OA
ATOM     85  C8  ASG d 221      23.987  -9.053 101.944  0.00  0.00    -0.003 C 
ATOM     86  C6  ASG d 221      30.383 -13.792 103.267  0.00  0.00     0.043 C 
ATOM     87  N   ASG d 221      25.700 -10.888 101.320  0.00  0.00    -0.352 N 
ATOM     88  H   ASG d 221      26.033 -12.863 101.524  0.00  0.00     0.080 H 
ATOM     89  H   ASG d 221      28.328 -11.167 100.713  0.00  0.00     0.132 H 
ATOM     90  H   ASG d 221      26.178 -11.888 103.753  0.00  0.00     0.040 H 
ATOM     91  H   ASG d 221      27.674 -11.110 103.309  0.00  0.00     0.040 H 
ATOM     92  H   ASG d 221      32.239 -14.358 102.937  0.00  0.00     0.209 HD
ATOM     93  H   ASG d 221      29.504 -12.004 102.944  0.00  0.00     0.090 H 
ATOM     94  H   ASG d 221      27.931 -13.431 104.479  0.00  0.00     0.089 H 
ATOM     95  H   ASG d 221      23.339  -8.794 102.755  0.00  0.00     0.040 H 
ATOM     96  H   ASG d 221      23.406  -9.208 101.059  0.00  0.00     0.040 H 
ATOM     97  H   ASG d 221      24.685  -8.259 101.777  0.00  0.00     0.040 H 
ATOM     98  H   ASG d 221      30.645 -13.364 104.212  0.00  0.00     0.078 H 
ATOM     99  H   ASG d 221      30.046 -14.807 103.290  0.00  0.00     0.078 H 
ATOM    100  H   ASG d 221      25.723 -10.516 100.409  0.00  0.00     0.163 HD
ATOM    101  O5  BDP d 220      27.742 -10.341  96.476  0.00  0.00    -0.340 OA
ATOM    102  C5  BDP d 220      27.150 -11.073  97.531  0.00  0.00     0.152 C 
ATOM    103  C6  BDP d 220      26.130 -10.211  98.271  0.00  0.00     0.206 C 
ATOM    104  C1  BDP d 220      28.438 -11.190  95.590  0.00  0.00     0.160 C 
ATOM    105  C3  BDP d 220      29.174 -12.494  97.666  0.00  0.00     0.092 C 
ATOM    106  O2  BDP d 220      30.219 -12.782  95.507  0.00  0.00    -0.388 OA
ATOM    107  O6B BDP d 220      26.516  -9.120  98.757  0.00  0.00    -0.646 OA
ATOM    108  C2  BDP d 220      29.596 -11.835  96.346  0.00  0.00     0.110 C 
ATOM    109  O3  BDP d 220      30.325 -12.784  98.440  0.00  0.00    -0.390 OA
ATOM    110  O1  BDP d 220      28.955 -10.451  94.493  0.00  0.00    -0.348 OA
ATOM    111  O6A BDP d 220      24.955 -10.644  98.354  0.00  0.00    -0.646 OA
ATOM    112  C4  BDP d 220      28.239 -11.587  98.467  0.00  0.00     0.103 C 
ATOM    113  H   BDP d 220      26.624 -11.915  97.132  0.00  0.00     0.104 H 
ATOM    114  H   BDP d 220      27.767 -11.935  95.216  0.00  0.00     0.133 H 
ATOM    115  H   BDP d 220      28.650 -13.397  97.433  0.00  0.00     0.091 H 
ATOM    116  H   BDP d 220      30.480 -12.355  94.677  0.00  0.00     0.210 HD
ATOM    117  H   BDP d 220      30.277 -11.053  96.611  0.00  0.00     0.094 H 
ATOM    118  H   BDP d 220      30.793 -11.959  98.645  0.00  0.00     0.210 HD
ATOM    119  H   BDP d 220      28.821 -10.819  98.930  0.00  0.00     0.092 H 
ATOM    120  OSC ASG d 219      31.438  -6.935  92.174  0.00  0.00    -0.572 OA
ATOM    121  C5  ASG d 219      27.192  -8.769  91.719  0.00  0.00     0.090 C 
ATOM    122  C3  ASG d 219      28.070 -10.344  93.426  0.00  0.00     0.094 C 
ATOM    123  C6  ASG d 219      27.027  -7.288  91.235  0.00  0.00     0.043 C 
ATOM    124  C7  ASG d 219      29.584 -13.655  92.459  0.00  0.00     0.214 C 
ATOM    125  C4  ASG d 219      28.216  -8.934  92.875  0.00  0.00     0.114 C 
ATOM    126  S   ASG d 219      30.227  -7.183  92.954  0.00  0.00     0.252 S 
ATOM    127  C8  ASG d 219      29.535 -15.152  92.825  0.00  0.00    -0.003 C 
ATOM    128  O7  ASG d 219      30.500 -13.227  91.851  0.00  0.00    -0.274 OA
ATOM    129  O6  ASG d 219      26.263  -7.033  90.064  0.00  0.00    -0.398 OA
ATOM    130  OSB ASG d 219      29.347  -6.036  92.740  0.00  0.00    -0.572 OA
ATOM    131  O1  ASG d 219      27.927 -12.024  89.993  0.00  0.00    -0.348 OA
ATOM    132  O4  ASG d 219      29.522  -8.593  92.440  0.00  0.00    -0.246 OA
ATOM    133  OSA ASG d 219      30.532  -7.370  94.375  0.00  0.00    -0.572 OA
ATOM    134  O5  ASG d 219      27.631  -9.690  90.649  0.00  0.00    -0.349 OA
ATOM    135  N   ASG d 219      28.490 -12.761  92.832  0.00  0.00    -0.349 N 
ATOM    136  C2  ASG d 219      28.450 -11.363  92.363  0.00  0.00     0.087 C 
ATOM    137  C1  ASG d 219      27.607 -11.134  91.055  0.00  0.00     0.154 C 
ATOM    138  H   ASG d 219      26.207  -9.019  92.053  0.00  0.00     0.090 H 
ATOM    139  H   ASG d 219      27.061 -10.530  93.728  0.00  0.00     0.091 H 
ATOM    140  H   ASG d 219      28.009  -6.902  91.059  0.00  0.00     0.078 H 
ATOM    141  H   ASG d 219      26.466  -6.821  92.017  0.00  0.00     0.078 H 
ATOM    142  H   ASG d 219      28.022  -8.256  93.679  0.00  0.00     0.093 H 
ATOM    143  H   ASG d 219      28.637 -15.357  93.371  0.00  0.00     0.040 H 
ATOM    144  H   ASG d 219      30.384 -15.400  93.427  0.00  0.00     0.040 H 
ATOM    145  H   ASG d 219      29.549 -15.739  91.930  0.00  0.00     0.040 H 
ATOM    146  H   ASG d 219      26.706  -7.428  89.297  0.00  0.00     0.209 HD
ATOM    147  H   ASG d 219      27.766 -13.097  93.408  0.00  0.00     0.163 HD
ATOM    148  H   ASG d 219      29.475 -11.184  92.112  0.00  0.00     0.084 H 
ATOM    149  H   ASG d 219      26.596 -11.384  91.296  0.00  0.00     0.132 H 
ENDROOT
TORSDOF 38
ENDMDL
MODEL 21
REMARK VINA RESULT:      -6.9      2.557      2.881
REMARK  0 active torsions:
REMARK  status: ('A' for Active; 'I' for Inactive)
REMARK       I    between atoms: C6_2  and  C5_55 
REMARK       I    between atoms: O4_3  and  C4_83 
REMARK       I    between atoms: O4_3  and  S_75 
REMARK       I    between atoms: C6_4  and  C5_67 
REMARK       I    between atoms: O4_5  and  C4_61 
REMARK       I    between atoms: O4_5  and  S_71 
REMARK       I    between atoms: O3_6  and  C3_32 
REMARK       I    between atoms: C1_8  and  O1_30 
REMARK       I    between atoms: C3_12  and  O3_62 
REMARK       I    between atoms: C5_13  and  C6_25 
REMARK       I    between atoms: O1_14  and  C4_39 
REMARK       I    between atoms: O1_14  and  C1_23 
REMARK       I    between atoms: C5_15  and  C6_27 
REMARK       I    between atoms: C5_18  and  C6_44 
REMARK       I    between atoms: C3_19  and  O1_82 
REMARK       I    between atoms: C2_20  and  N_89 
REMARK       I    between atoms: C2_21  and  O2_80 
REMARK       I    between atoms: C1_24  and  O1_45 
REMARK       I    between atoms: C6_25  and  O6_48 
REMARK       I    between atoms: C6_27  and  O6_77 
REMARK       I    between atoms: C7_28  and  C8_35 
REMARK       I    between atoms: C7_28  and  N_70 
REMARK       I    between atoms: O1_30  and  C3_43 
REMARK       I    between atoms: C4_33  and  O4_53 
REMARK       I    between atoms: S_34  and  O4_53 
REMARK       I    between atoms: O2_40  and  C2_87 
REMARK       I    between atoms: C7_41  and  C8_81 
REMARK       I    between atoms: C7_41  and  N_89 
REMARK       I    between atoms: O6_42  and  C6_88 
REMARK       I    between atoms: O1_45  and  C4_90 
REMARK       I    between atoms: C7_46  and  C8_69 
REMARK       I    between atoms: C7_46  and  N_85 
REMARK       I    between atoms: C2_47  and  N_85 
REMARK       I    between atoms: O1_50  and  C4_73 
REMARK       I    between atoms: O1_50  and  C1_76 
REMARK       I    between atoms: C1_52  and  O1_82 
REMARK       I    between atoms: C3_54  and  O3_72 
REMARK       I    between atoms: C5_57  and  C6_88 
REMARK       I    between atoms: O1_59  and  C1_78 
REMARK       I    between atoms: O2_63  and  C2_68 
REMARK       I    between atoms: N_70  and  C2_74 
ROOT
ATOM      1  O6B BDP d 216      28.945 -12.368  99.338  0.00  0.00    -0.646 OA
ATOM      2  C6  BDP d 216      29.036 -13.241 100.227  0.00  0.00     0.206 C 
ATOM      3  C3  BDP d 216      26.133 -12.245 102.584  0.00  0.00     0.092 C 
ATOM      4  O6A BDP d 216      29.698 -14.294 100.102  0.00  0.00    -0.646 OA
ATOM      5  O5  BDP d 216      28.954 -11.975 102.258  0.00  0.00    -0.340 OA
ATOM      6  C4  BDP d 216      26.836 -12.651 101.290  0.00  0.00     0.103 C 
ATOM      7  O2  BDP d 216      26.406 -11.028 104.641  0.00  0.00    -0.388 OA
ATOM      8  C5  BDP d 216      28.302 -13.009 101.545  0.00  0.00     0.152 C 
ATOM      9  O1  BDP d 216      29.166 -10.848 104.279  0.00  0.00    -0.368 OA
ATOM     10  O3  BDP d 216      24.876 -11.676 102.283  0.00  0.00    -0.390 OA
ATOM     11  C1  BDP d 216      28.395 -11.774 103.539  0.00  0.00     0.156 C 
ATOM     12  C2  BDP d 216      26.977 -11.245 103.371  0.00  0.00     0.110 C 
ATOM     13  H   BDP d 216      25.998 -13.120 103.184  0.00  0.00     0.091 H 
ATOM     14  H   BDP d 216      26.841 -11.831 100.602  0.00  0.00     0.092 H 
ATOM     15  H   BDP d 216      25.502 -10.691 104.536  0.00  0.00     0.210 HD
ATOM     16  H   BDP d 216      28.320 -13.907 102.126  0.00  0.00     0.104 H 
ATOM     17  H   BDP d 216      30.068 -11.189 104.384  0.00  0.00     0.212 HD
ATOM     18  H   BDP d 216      25.002 -10.884 101.738  0.00  0.00     0.210 HD
ATOM     19  H   BDP d 216      28.385 -12.702 104.072  0.00  0.00     0.133 H 
ATOM     20  H   BDP d 216      27.005 -10.322 102.832  0.00  0.00     0.094 H 
ATOM     21  O4  ASG d 217      22.491 -14.051  98.167  0.00  0.00    -0.246 OA
ATOM     22  O7  ASG d 217      25.253 -17.169  99.949  0.00  0.00    -0.274 OA
ATOM     23  O1  ASG d 217      26.142 -13.717 100.746  0.00  0.00    -0.348 OA
ATOM     24  C5  ASG d 217      23.979 -12.100  98.125  0.00  0.00     0.090 C 
ATOM     25  C1  ASG d 217      25.609 -13.428  99.464  0.00  0.00     0.154 C 
ATOM     26  C6  ASG d 217      22.925 -10.933  98.139  0.00  0.00     0.043 C 
ATOM     27  OSA ASG d 217      21.243 -14.572  96.015  0.00  0.00    -0.572 OA
ATOM     28  C3  ASG d 217      24.745 -14.299  97.240  0.00  0.00     0.094 C 
ATOM     29  C7  ASG d 217      26.267 -16.908  99.403  0.00  0.00     0.214 C 
ATOM     30  C2  ASG d 217      25.291 -14.695  98.606  0.00  0.00     0.087 C 
ATOM     31  O5  ASG d 217      24.448 -12.482  99.475  0.00  0.00    -0.349 OA
ATOM     32  OSB ASG d 217      20.132 -13.277  97.707  0.00  0.00    -0.572 OA
ATOM     33  OSC ASG d 217      20.541 -15.623  98.024  0.00  0.00    -0.572 OA
ATOM     34  C8  ASG d 217      27.392 -17.957  99.347  0.00  0.00    -0.003 C 
ATOM     35  S   ASG d 217      21.047 -14.383  97.452  0.00  0.00     0.252 S 
ATOM     36  O6  ASG d 217      23.404  -9.597  98.076  0.00  0.00    -0.398 OA
ATOM     37  C4  ASG d 217      23.514 -13.412  97.422  0.00  0.00     0.114 C 
ATOM     38  N   ASG d 217      26.378 -15.688  98.608  0.00  0.00    -0.349 N 
ATOM     39  H   ASG d 217      24.771 -11.665  97.552  0.00  0.00     0.090 H 
ATOM     40  H   ASG d 217      26.414 -12.915  98.980  0.00  0.00     0.132 H 
ATOM     41  H   ASG d 217      22.360 -11.026  99.042  0.00  0.00     0.078 H 
ATOM     42  H   ASG d 217      22.376 -11.060  97.229  0.00  0.00     0.078 H 
ATOM     43  H   ASG d 217      25.542 -13.847  96.688  0.00  0.00     0.091 H 
ATOM     44  H   ASG d 217      24.497 -15.236  99.078  0.00  0.00     0.084 H 
ATOM     45  H   ASG d 217      27.145 -18.778  99.987  0.00  0.00     0.040 H 
ATOM     46  H   ASG d 217      28.309 -17.514  99.674  0.00  0.00     0.040 H 
ATOM     47  H   ASG d 217      27.503 -18.309  98.342  0.00  0.00     0.040 H 
ATOM     48  H   ASG d 217      23.919  -9.400  98.875  0.00  0.00     0.209 HD
ATOM     49  H   ASG d 217      23.087 -13.201  96.463  0.00  0.00     0.093 H 
ATOM     50  H   ASG d 217      27.186 -15.528  98.069  0.00  0.00     0.163 HD
ATOM     51  C6  BDP d 218      25.663 -14.682  92.206  0.00  0.00     0.206 C 
ATOM     52  O3  BDP d 218      24.721 -19.228  93.813  0.00  0.00    -0.390 OA
ATOM     53  C1  BDP d 218      24.938 -15.973  95.605  0.00  0.00     0.160 C 
ATOM     54  C2  BDP d 218      24.428 -17.370  95.266  0.00  0.00     0.110 C 
ATOM     55  O6A BDP d 218      26.738 -14.124  91.891  0.00  0.00    -0.646 OA
ATOM     56  O1  BDP d 218      24.168 -15.423  96.657  0.00  0.00    -0.348 OA
ATOM     57  C3  BDP d 218      25.257 -17.971  94.145  0.00  0.00     0.092 C 
ATOM     58  O5  BDP d 218      24.835 -15.182  94.436  0.00  0.00    -0.340 OA
ATOM     59  C5  BDP d 218      25.672 -15.648  93.390  0.00  0.00     0.152 C 
ATOM     60  C4  BDP d 218      25.231 -17.038  92.939  0.00  0.00     0.103 C 
ATOM     61  O2  BDP d 218      24.487 -18.216  96.393  0.00  0.00    -0.388 OA
ATOM     62  O6B BDP d 218      24.587 -14.509  91.592  0.00  0.00    -0.646 OA
ATOM     63  H   BDP d 218      24.746 -19.805  94.591  0.00  0.00     0.210 HD
ATOM     64  H   BDP d 218      25.957 -16.007  95.930  0.00  0.00     0.133 H 
ATOM     65  H   BDP d 218      23.408 -17.284  94.953  0.00  0.00     0.094 H 
ATOM     66  H   BDP d 218      26.273 -18.093  94.456  0.00  0.00     0.091 H 
ATOM     67  H   BDP d 218      26.671 -15.704  93.767  0.00  0.00     0.104 H 
ATOM     68  H   BDP d 218      24.262 -17.111  92.493  0.00  0.00     0.092 H 
ATOM     69  H   BDP d 218      25.409 -18.302  96.685  0.00  0.00     0.210 HD
ATOM     70  O4  ASG d 221      30.741 -11.235  81.230  0.00  0.00    -0.249 OA
ATOM     71  OSB ASG d 221      31.599  -9.016  82.143  0.00  0.00    -0.572 OA
ATOM     72  OSC ASG d 221      33.080 -10.312  80.788  0.00  0.00    -0.572 OA
ATOM     73  C2  ASG d 221      28.839 -13.249  81.398  0.00  0.00     0.062 C 
ATOM     74  C1  ASG d 221      29.640 -14.089  82.452  0.00  0.00     0.151 C 
ATOM     75  C3  ASG d 221      29.630 -13.077  80.119  0.00  0.00    -0.014 C 
ATOM     76  O7  ASG d 221      27.040 -12.391  79.323  0.00  0.00    -0.274 OA
ATOM     77  C7  ASG d 221      26.718 -13.332  79.963  0.00  0.00     0.214 C 
ATOM     78  O6  ASG d 221      34.048 -14.270  81.968  0.00  0.00    -0.398 OA
ATOM     79  O1  ASG d 221      29.046 -14.114  83.747  0.00  0.00    -0.348 OA
ATOM     80  C5  ASG d 221      31.726 -13.539  81.143  0.00  0.00     0.088 C 
ATOM     81  C4  ASG d 221      30.938 -12.399  80.443  0.00  0.00     0.089 C 
ATOM     82  OSA ASG d 221      32.548 -11.008  83.012  0.00  0.00    -0.572 OA
ATOM     83  S   ASG d 221      32.029 -10.370  81.804  0.00  0.00     0.252 S 
ATOM     84  O5  ASG d 221      31.101 -13.741  82.469  0.00  0.00    -0.349 OA
ATOM     85  C8  ASG d 221      25.379 -14.027  79.661  0.00  0.00    -0.003 C 
ATOM     86  C6  ASG d 221      33.294 -13.424  81.112  0.00  0.00     0.043 C 
ATOM     87  N   ASG d 221      27.457 -13.706  81.168  0.00  0.00    -0.352 N 
ATOM     88  H   ASG d 221      28.712 -12.280  81.833  0.00  0.00     0.080 H 
ATOM     89  H   ASG d 221      29.579 -15.103  82.118  0.00  0.00     0.132 H 
ATOM     90  H   ASG d 221      29.074 -12.474  79.431  0.00  0.00     0.040 H 
ATOM     91  H   ASG d 221      29.816 -14.033  79.675  0.00  0.00     0.040 H 
ATOM     92  H   ASG d 221      34.994 -14.093  81.845  0.00  0.00     0.209 HD
ATOM     93  H   ASG d 221      31.636 -14.440  80.572  0.00  0.00     0.090 H 
ATOM     94  H   ASG d 221      31.469 -12.012  79.600  0.00  0.00     0.089 H 
ATOM     95  H   ASG d 221      24.973 -13.639  78.750  0.00  0.00     0.040 H 
ATOM     96  H   ASG d 221      24.694 -13.845  80.462  0.00  0.00     0.040 H 
ATOM     97  H   ASG d 221      25.538 -15.080  79.561  0.00  0.00     0.040 H 
ATOM     98  H   ASG d 221      33.607 -13.628  80.109  0.00  0.00     0.078 H 
ATOM     99  H   ASG d 221      33.493 -12.437  81.472  0.00  0.00     0.078 H 
ATOM    100  H   ASG d 221      27.021 -14.277  81.841  0.00  0.00     0.163 HD
ATOM    101  O5  BDP d 220      27.392 -16.666  85.546  0.00  0.00    -0.340 OA
ATOM    102  C5  BDP d 220      27.568 -15.460  84.829  0.00  0.00     0.152 C 
ATOM    103  C6  BDP d 220      26.552 -15.363  83.694  0.00  0.00     0.206 C 
ATOM    104  C1  BDP d 220      28.088 -16.639  86.773  0.00  0.00     0.160 C 
ATOM    105  C3  BDP d 220      29.949 -15.414  85.513  0.00  0.00     0.092 C 
ATOM    106  O2  BDP d 220      30.278 -16.389  87.698  0.00  0.00    -0.388 OA
ATOM    107  O6B BDP d 220      26.518 -16.287  82.846  0.00  0.00    -0.646 OA
ATOM    108  C2  BDP d 220      29.583 -16.547  86.480  0.00  0.00     0.110 C 
ATOM    109  O3  BDP d 220      31.279 -15.591  85.056  0.00  0.00    -0.390 OA
ATOM    110  O1  BDP d 220      27.834 -17.822  87.517  0.00  0.00    -0.348 OA
ATOM    111  O6A BDP d 220      25.803 -14.355  83.669  0.00  0.00    -0.646 OA
ATOM    112  C4  BDP d 220      29.001 -15.380  84.313  0.00  0.00     0.103 C 
ATOM    113  H   BDP d 220      27.398 -14.628  85.480  0.00  0.00     0.104 H 
ATOM    114  H   BDP d 220      27.760 -15.797  87.346  0.00  0.00     0.133 H 
ATOM    115  H   BDP d 220      29.860 -14.486  86.038  0.00  0.00     0.091 H 
ATOM    116  H   BDP d 220      30.039 -17.110  88.301  0.00  0.00     0.210 HD
ATOM    117  H   BDP d 220      29.868 -17.456  85.992  0.00  0.00     0.094 H 
ATOM    118  H   BDP d 220      31.348 -16.434  84.582  0.00  0.00     0.210 HD
ATOM    119  H   BDP d 220      29.272 -16.166  83.640  0.00  0.00     0.092 H 
ATOM    120  OSC ASG d 219      27.544 -22.615  88.435  0.00  0.00    -0.572 OA
ATOM    121  C5  ASG d 219      24.729 -18.986  89.142  0.00  0.00     0.090 C 
ATOM    122  C3  ASG d 219      26.719 -17.733  88.342  0.00  0.00     0.094 C 
ATOM    123  C6  ASG d 219      23.755 -20.198  88.952  0.00  0.00     0.043 C 
ATOM    124  C7  ASG d 219      29.208 -16.246  90.746  0.00  0.00     0.214 C 
ATOM    125  C4  ASG d 219      26.015 -19.080  88.275  0.00  0.00     0.114 C 
ATOM    126  S   ASG d 219      26.896 -21.530  87.701  0.00  0.00     0.252 S 
ATOM    127  C8  ASG d 219      29.976 -14.938  91.027  0.00  0.00    -0.003 C 
ATOM    128  O7  ASG d 219      29.582 -17.260  91.219  0.00  0.00    -0.274 OA
ATOM    129  O6  ASG d 219      22.639 -20.321  89.823  0.00  0.00    -0.398 OA
ATOM    130  OSB ASG d 219      25.568 -22.012  87.326  0.00  0.00    -0.572 OA
ATOM    131  O1  ASG d 219      26.312 -17.337  92.124  0.00  0.00    -0.348 OA
ATOM    132  O4  ASG d 219      26.805 -20.188  88.670  0.00  0.00    -0.246 OA
ATOM    133  OSA ASG d 219      27.677 -21.137  86.525  0.00  0.00    -0.572 OA
ATOM    134  O5  ASG d 219      25.188 -18.816  90.537  0.00  0.00    -0.349 OA
ATOM    135  N   ASG d 219      28.003 -16.240  89.921  0.00  0.00    -0.349 N 
ATOM    136  C2  ASG d 219      27.176 -17.452  89.765  0.00  0.00     0.087 C 
ATOM    137  C1  ASG d 219      25.964 -17.551  90.763  0.00  0.00     0.154 C 
ATOM    138  H   ASG d 219      24.131 -18.153  88.835  0.00  0.00     0.090 H 
ATOM    139  H   ASG d 219      26.061 -16.947  88.036  0.00  0.00     0.091 H 
ATOM    140  H   ASG d 219      24.337 -21.090  89.058  0.00  0.00     0.078 H 
ATOM    141  H   ASG d 219      23.316 -20.029  87.991  0.00  0.00     0.078 H 
ATOM    142  H   ASG d 219      25.790 -19.271  87.247  0.00  0.00     0.093 H 
ATOM    143  H   ASG d 219      29.495 -14.127  90.520  0.00  0.00     0.040 H 
ATOM    144  H   ASG d 219      30.982 -15.033  90.676  0.00  0.00     0.040 H 
ATOM    145  H   ASG d 219      29.981 -14.747  92.079  0.00  0.00     0.040 H 
ATOM    146  H   ASG d 219      22.952 -20.478  90.728  0.00  0.00     0.209 HD
ATOM    147  H   ASG d 219      27.737 -15.412  89.460  0.00  0.00     0.163 HD
ATOM    148  H   ASG d 219      27.865 -18.226  90.029  0.00  0.00     0.084 H 
ATOM    149  H   ASG d 219      25.315 -16.731  90.538  0.00  0.00     0.132 H 
ENDROOT
TORSDOF 38
ENDMDL
MODEL 22
REMARK VINA RESULT:      -6.8      4.249     15.851
REMARK  0 active torsions:
REMARK  status: ('A' for Active; 'I' for Inactive)
REMARK       I    between atoms: C6_2  and  C5_55 
REMARK       I    between atoms: O4_3  and  C4_83 
REMARK       I    between atoms: O4_3  and  S_75 
REMARK       I    between atoms: C6_4  and  C5_67 
REMARK       I    between atoms: O4_5  and  C4_61 
REMARK       I    between atoms: O4_5  and  S_71 
REMARK       I    between atoms: O3_6  and  C3_32 
REMARK       I    between atoms: C1_8  and  O1_30 
REMARK       I    between atoms: C3_12  and  O3_62 
REMARK       I    between atoms: C5_13  and  C6_25 
REMARK       I    between atoms: O1_14  and  C4_39 
REMARK       I    between atoms: O1_14  and  C1_23 
REMARK       I    between atoms: C5_15  and  C6_27 
REMARK       I    between atoms: C5_18  and  C6_44 
REMARK       I    between atoms: C3_19  and  O1_82 
REMARK       I    between atoms: C2_20  and  N_89 
REMARK       I    between atoms: C2_21  and  O2_80 
REMARK       I    between atoms: C1_24  and  O1_45 
REMARK       I    between atoms: C6_25  and  O6_48 
REMARK       I    between atoms: C6_27  and  O6_77 
REMARK       I    between atoms: C7_28  and  C8_35 
REMARK       I    between atoms: C7_28  and  N_70 
REMARK       I    between atoms: O1_30  and  C3_43 
REMARK       I    between atoms: C4_33  and  O4_53 
REMARK       I    between atoms: S_34  and  O4_53 
REMARK       I    between atoms: O2_40  and  C2_87 
REMARK       I    between atoms: C7_41  and  C8_81 
REMARK       I    between atoms: C7_41  and  N_89 
REMARK       I    between atoms: O6_42  and  C6_88 
REMARK       I    between atoms: O1_45  and  C4_90 
REMARK       I    between atoms: C7_46  and  C8_69 
REMARK       I    between atoms: C7_46  and  N_85 
REMARK       I    between atoms: C2_47  and  N_85 
REMARK       I    between atoms: O1_50  and  C4_73 
REMARK       I    between atoms: O1_50  and  C1_76 
REMARK       I    between atoms: C1_52  and  O1_82 
REMARK       I    between atoms: C3_54  and  O3_72 
REMARK       I    between atoms: C5_57  and  C6_88 
REMARK       I    between atoms: O1_59  and  C1_78 
REMARK       I    between atoms: O2_63  and  C2_68 
REMARK       I    between atoms: N_70  and  C2_74 
ROOT
ATOM      1  O6B BDP d 216      30.707 -16.345  84.281  0.00  0.00    -0.646 OA
ATOM      2  C6  BDP d 216      31.363 -15.429  83.739  0.00  0.00     0.206 C 
ATOM      3  C3  BDP d 216      29.396 -14.921  80.446  0.00  0.00     0.092 C 
ATOM      4  O6A BDP d 216      32.194 -14.718  84.344  0.00  0.00    -0.646 OA
ATOM      5  O5  BDP d 216      31.697 -16.231  81.508  0.00  0.00    -0.340 OA
ATOM      6  C4  BDP d 216      29.648 -15.011  81.950  0.00  0.00     0.103 C 
ATOM      7  O2  BDP d 216      30.069 -15.800  78.309  0.00  0.00    -0.388 OA
ATOM      8  C5  BDP d 216      31.140 -15.164  82.253  0.00  0.00     0.152 C 
ATOM      9  O1  BDP d 216      32.326 -17.011  79.412  0.00  0.00    -0.368 OA
ATOM     10  O3  BDP d 216      28.013 -15.044  80.187  0.00  0.00    -0.390 OA
ATOM     11  C1  BDP d 216      31.625 -16.006  80.116  0.00  0.00     0.156 C 
ATOM     12  C2  BDP d 216      30.160 -16.012  79.699  0.00  0.00     0.110 C 
ATOM     13  H   BDP d 216      29.743 -13.969  80.101  0.00  0.00     0.091 H 
ATOM     14  H   BDP d 216      29.168 -15.879  82.351  0.00  0.00     0.092 H 
ATOM     15  H   BDP d 216      29.136 -15.804  78.042  0.00  0.00     0.210 HD
ATOM     16  H   BDP d 216      31.623 -14.249  81.978  0.00  0.00     0.104 H 
ATOM     17  H   BDP d 216      33.259 -17.003  79.680  0.00  0.00     0.212 HD
ATOM     18  H   BDP d 216      27.701 -15.907  80.501  0.00  0.00     0.210 HD
ATOM     19  H   BDP d 216      32.072 -15.062  79.884  0.00  0.00     0.133 H 
ATOM     20  H   BDP d 216      29.727 -16.960  79.943  0.00  0.00     0.094 H 
ATOM     21  O4  ASG d 217      25.024 -12.683  83.897  0.00  0.00    -0.246 OA
ATOM     22  O7  ASG d 217      29.000 -10.511  83.961  0.00  0.00    -0.274 OA
ATOM     23  O1  ASG d 217      29.127 -13.872  82.537  0.00  0.00    -0.348 OA
ATOM     24  C5  ASG d 217      25.784 -15.015  83.835  0.00  0.00     0.090 C 
ATOM     25  C1  ASG d 217      28.095 -14.158  83.467  0.00  0.00     0.154 C 
ATOM     26  C6  ASG d 217      24.533 -15.710  83.183  0.00  0.00     0.043 C 
ATOM     27  OSA ASG d 217      23.260 -12.111  85.635  0.00  0.00    -0.572 OA
ATOM     28  C3  ASG d 217      26.742 -13.413  85.483  0.00  0.00     0.094 C 
ATOM     29  C7  ASG d 217      29.621 -11.203  84.689  0.00  0.00     0.214 C 
ATOM     30  C2  ASG d 217      27.845 -13.019  84.509  0.00  0.00     0.087 C 
ATOM     31  O5  ASG d 217      26.809 -14.610  82.848  0.00  0.00    -0.349 OA
ATOM     32  OSB ASG d 217      22.550 -12.627  83.398  0.00  0.00    -0.572 OA
ATOM     33  OSC ASG d 217      23.680 -10.563  83.885  0.00  0.00    -0.572 OA
ATOM     34  C8  ASG d 217      30.887 -10.649  85.367  0.00  0.00    -0.003 C 
ATOM     35  S   ASG d 217      23.571 -11.979  84.212  0.00  0.00     0.252 S 
ATOM     36  O6  ASG d 217      24.563 -17.120  83.010  0.00  0.00    -0.398 OA
ATOM     37  C4  ASG d 217      25.474 -13.758  84.704  0.00  0.00     0.114 C 
ATOM     38  N   ASG d 217      29.083 -12.494  85.108  0.00  0.00    -0.349 N 
ATOM     39  H   ASG d 217      26.150 -15.793  84.473  0.00  0.00     0.090 H 
ATOM     40  H   ASG d 217      28.485 -14.996  84.007  0.00  0.00     0.132 H 
ATOM     41  H   ASG d 217      24.395 -15.274  82.215  0.00  0.00     0.078 H 
ATOM     42  H   ASG d 217      23.742 -15.545  83.885  0.00  0.00     0.078 H 
ATOM     43  H   ASG d 217      27.116 -14.203  86.099  0.00  0.00     0.091 H 
ATOM     44  H   ASG d 217      27.468 -12.161  83.993  0.00  0.00     0.084 H 
ATOM     45  H   ASG d 217      31.135  -9.701  84.938  0.00  0.00     0.040 H 
ATOM     46  H   ASG d 217      31.698 -11.331  85.219  0.00  0.00     0.040 H 
ATOM     47  H   ASG d 217      30.707 -10.531  86.416  0.00  0.00     0.040 H 
ATOM     48  H   ASG d 217      25.262 -17.353  82.380  0.00  0.00     0.209 HD
ATOM     49  H   ASG d 217      24.680 -13.957  85.393  0.00  0.00     0.093 H 
ATOM     50  H   ASG d 217      29.553 -13.018  85.796  0.00  0.00     0.163 HD
ATOM     51  C6  BDP d 218      25.781 -14.213  90.460  0.00  0.00     0.206 C 
ATOM     52  O3  BDP d 218      26.808  -9.434  89.979  0.00  0.00    -0.390 OA
ATOM     53  C1  BDP d 218      26.767 -12.211  87.501  0.00  0.00     0.160 C 
ATOM     54  C2  BDP d 218      26.576 -10.799  88.047  0.00  0.00     0.110 C 
ATOM     55  O6A BDP d 218      26.460 -15.162  90.912  0.00  0.00    -0.646 OA
ATOM     56  O1  BDP d 218      26.326 -12.268  86.157  0.00  0.00    -0.348 OA
ATOM     57  C3  BDP d 218      27.058 -10.727  89.485  0.00  0.00     0.092 C 
ATOM     58  O5  BDP d 218      26.019 -13.092  88.316  0.00  0.00    -0.340 OA
ATOM     59  C5  BDP d 218      26.499 -13.135  89.651  0.00  0.00     0.152 C 
ATOM     60  C4  BDP d 218      26.326 -11.774  90.319  0.00  0.00     0.103 C 
ATOM     61  O2  BDP d 218      27.284  -9.857  87.271  0.00  0.00    -0.388 OA
ATOM     62  O6B BDP d 218      24.551 -14.089  90.651  0.00  0.00    -0.646 OA
ATOM     63  H   BDP d 218      27.281  -8.784  89.436  0.00  0.00     0.210 HD
ATOM     64  H   BDP d 218      27.799 -12.490  87.516  0.00  0.00     0.133 H 
ATOM     65  H   BDP d 218      25.533 -10.565  88.005  0.00  0.00     0.094 H 
ATOM     66  H   BDP d 218      28.108 -10.927  89.537  0.00  0.00     0.091 H 
ATOM     67  H   BDP d 218      27.540 -13.378  89.620  0.00  0.00     0.104 H 
ATOM     68  H   BDP d 218      25.322 -11.432  90.457  0.00  0.00     0.092 H 
ATOM     69  H   BDP d 218      28.233 -10.060  87.303  0.00  0.00     0.210 HD
ATOM     70  O4  ASG d 221      25.220 -20.997 101.034  0.00  0.00    -0.249 OA
ATOM     71  OSB ASG d 221      25.705 -23.195  99.837  0.00  0.00    -0.572 OA
ATOM     72  OSC ASG d 221      26.870 -22.755 101.877  0.00  0.00    -0.572 OA
ATOM     73  C2  ASG d 221      24.159 -18.438 100.875  0.00  0.00     0.062 C 
ATOM     74  C1  ASG d 221      25.494 -17.780 100.385  0.00  0.00     0.151 C 
ATOM     75  C3  ASG d 221      24.333 -19.089 102.231  0.00  0.00    -0.014 C 
ATOM     76  O7  ASG d 221      21.552 -18.925 101.995  0.00  0.00    -0.274 OA
ATOM     77  C7  ASG d 221      21.768 -17.840 101.577  0.00  0.00     0.214 C 
ATOM     78  O6  ASG d 221      29.266 -19.269 102.191  0.00  0.00    -0.398 OA
ATOM     79  O1  ASG d 221      25.459 -17.332  99.033  0.00  0.00    -0.348 OA
ATOM     80  C5  ASG d 221      26.699 -19.245 102.048  0.00  0.00     0.088 C 
ATOM     81  C4  ASG d 221      25.424 -20.126 102.135  0.00  0.00     0.089 C 
ATOM     82  OSA ASG d 221      27.423 -21.560  99.882  0.00  0.00    -0.572 OA
ATOM     83  S   ASG d 221      26.335 -22.159 100.652  0.00  0.00     0.252 S 
ATOM     84  O5  ASG d 221      26.697 -18.620 100.708  0.00  0.00    -0.349 OA
ATOM     85  C8  ASG d 221      20.663 -16.772 101.647  0.00  0.00    -0.003 C 
ATOM     86  C6  ASG d 221      28.043 -19.917 102.512  0.00  0.00     0.043 C 
ATOM     87  N   ASG d 221      22.976 -17.562 100.801  0.00  0.00    -0.352 N 
ATOM     88  H   ASG d 221      23.940 -19.213 100.170  0.00  0.00     0.080 H 
ATOM     89  H   ASG d 221      25.597 -16.880 100.955  0.00  0.00     0.132 H 
ATOM     90  H   ASG d 221      23.417 -19.557 102.525  0.00  0.00     0.040 H 
ATOM     91  H   ASG d 221      24.597 -18.350 102.958  0.00  0.00     0.040 H 
ATOM     92  H   ASG d 221      30.008 -19.789 102.535  0.00  0.00     0.209 HD
ATOM     93  H   ASG d 221      26.656 -18.479 102.794  0.00  0.00     0.090 H 
ATOM     94  H   ASG d 221      25.472 -20.811 102.955  0.00  0.00     0.089 H 
ATOM     95  H   ASG d 221      19.856 -17.133 102.250  0.00  0.00     0.040 H 
ATOM     96  H   ASG d 221      20.305 -16.562 100.661  0.00  0.00     0.040 H 
ATOM     97  H   ASG d 221      21.059 -15.877 102.079  0.00  0.00     0.040 H 
ATOM     98  H   ASG d 221      28.003 -20.005 103.578  0.00  0.00     0.078 H 
ATOM     99  H   ASG d 221      28.080 -20.837 101.967  0.00  0.00     0.078 H 
ATOM    100  H   ASG d 221      23.000 -16.771 100.215  0.00  0.00     0.163 HD
ATOM    101  O5  BDP d 220      25.375 -14.100  97.609  0.00  0.00    -0.340 OA
ATOM    102  C5  BDP d 220      24.928 -15.389  97.980  0.00  0.00     0.152 C 
ATOM    103  C6  BDP d 220      23.578 -15.301  98.686  0.00  0.00     0.206 C 
ATOM    104  C1  BDP d 220      26.442 -14.172  96.688  0.00  0.00     0.160 C 
ATOM    105  C3  BDP d 220      27.278 -16.170  98.052  0.00  0.00     0.092 C 
ATOM    106  O2  BDP d 220      28.656 -15.032  96.427  0.00  0.00    -0.388 OA
ATOM    107  O6B BDP d 220      23.488 -14.578  99.708  0.00  0.00    -0.646 OA
ATOM    108  C2  BDP d 220      27.630 -14.839  97.375  0.00  0.00     0.110 C 
ATOM    109  O3  BDP d 220      28.334 -16.558  98.914  0.00  0.00    -0.390 OA
ATOM    110  O1  BDP d 220      26.823 -12.871  96.262  0.00  0.00    -0.348 OA
ATOM    111  O6A BDP d 220      22.627 -15.964  98.205  0.00  0.00    -0.646 OA
ATOM    112  C4  BDP d 220      25.982 -16.060  98.856  0.00  0.00     0.103 C 
ATOM    113  H   BDP d 220      24.790 -15.986  97.103  0.00  0.00     0.104 H 
ATOM    114  H   BDP d 220      26.132 -14.735  95.833  0.00  0.00     0.133 H 
ATOM    115  H   BDP d 220      27.138 -16.905  97.287  0.00  0.00     0.091 H 
ATOM    116  H   BDP d 220      28.870 -14.186  96.005  0.00  0.00     0.210 HD
ATOM    117  H   BDP d 220      27.952 -14.185  98.159  0.00  0.00     0.094 H 
ATOM    118  H   BDP d 220      28.452 -15.885  99.603  0.00  0.00     0.210 HD
ATOM    119  H   BDP d 220      26.188 -15.543  99.769  0.00  0.00     0.092 H 
ATOM    120  OSC ASG d 219      28.239  -8.210  96.673  0.00  0.00    -0.572 OA
ATOM    121  C5  ASG d 219      25.004 -10.425  94.178  0.00  0.00     0.090 C 
ATOM    122  C3  ASG d 219      26.119 -12.420  95.152  0.00  0.00     0.094 C 
ATOM    123  C6  ASG d 219      24.407  -8.994  94.400  0.00  0.00     0.043 C 
ATOM    124  C7  ASG d 219      28.808 -14.282  93.285  0.00  0.00     0.214 C 
ATOM    125  C4  ASG d 219      25.845 -10.940  95.379  0.00  0.00     0.114 C 
ATOM    126  S   ASG d 219      27.090  -9.097  96.849  0.00  0.00     0.252 S 
ATOM    127  C8  ASG d 219      29.229 -15.713  92.893  0.00  0.00    -0.003 C 
ATOM    128  O7  ASG d 219      29.597 -13.406  93.247  0.00  0.00    -0.274 OA
ATOM    129  O6  ASG d 219      23.779  -8.339  93.307  0.00  0.00    -0.398 OA
ATOM    130  OSB ASG d 219      25.908  -8.241  96.929  0.00  0.00    -0.572 OA
ATOM    131  O1  ASG d 219      27.061 -12.017  91.468  0.00  0.00    -0.348 OA
ATOM    132  O4  ASG d 219      27.000 -10.139  95.563  0.00  0.00    -0.246 OA
ATOM    133  OSA ASG d 219      27.233  -9.930  98.045  0.00  0.00    -0.572 OA
ATOM    134  O5  ASG d 219      25.884 -10.517  92.994  0.00  0.00    -0.349 OA
ATOM    135  N   ASG d 219      27.431 -13.992  93.678  0.00  0.00    -0.349 N 
ATOM    136  C2  ASG d 219      26.977 -12.608  93.911  0.00  0.00     0.087 C 
ATOM    137  C1  ASG d 219      26.304 -11.920  92.667  0.00  0.00     0.154 C 
ATOM    138  H   ASG d 219      24.130 -11.028  94.048  0.00  0.00     0.090 H 
ATOM    139  H   ASG d 219      25.204 -12.957  95.017  0.00  0.00     0.091 H 
ATOM    140  H   ASG d 219      25.209  -8.365  94.724  0.00  0.00     0.078 H 
ATOM    141  H   ASG d 219      23.613  -9.150  95.099  0.00  0.00     0.078 H 
ATOM    142  H   ASG d 219      25.314 -10.853  96.304  0.00  0.00     0.093 H 
ATOM    143  H   ASG d 219      28.389 -16.370  92.986  0.00  0.00     0.040 H 
ATOM    144  H   ASG d 219      30.015 -16.043  93.539  0.00  0.00     0.040 H 
ATOM    145  H   ASG d 219      29.574 -15.718  91.880  0.00  0.00     0.040 H 
ATOM    146  H   ASG d 219      24.437  -8.158  92.617  0.00  0.00     0.209 HD
ATOM    147  H   ASG d 219      26.794 -14.734  93.789  0.00  0.00     0.163 HD
ATOM    148  H   ASG d 219      27.901 -12.099  94.091  0.00  0.00     0.084 H 
ATOM    149  H   ASG d 219      25.418 -12.479  92.451  0.00  0.00     0.132 H 
ENDROOT
TORSDOF 38
ENDMDL
MODEL 23
REMARK VINA RESULT:      -6.8      4.403     16.456
REMARK  0 active torsions:
REMARK  status: ('A' for Active; 'I' for Inactive)
REMARK       I    between atoms: C6_2  and  C5_55 
REMARK       I    between atoms: O4_3  and  C4_83 
REMARK       I    between atoms: O4_3  and  S_75 
REMARK       I    between atoms: C6_4  and  C5_67 
REMARK       I    between atoms: O4_5  and  C4_61 
REMARK       I    between atoms: O4_5  and  S_71 
REMARK       I    between atoms: O3_6  and  C3_32 
REMARK       I    between atoms: C1_8  and  O1_30 
REMARK       I    between atoms: C3_12  and  O3_62 
REMARK       I    between atoms: C5_13  and  C6_25 
REMARK       I    between atoms: O1_14  and  C4_39 
REMARK       I    between atoms: O1_14  and  C1_23 
REMARK       I    between atoms: C5_15  and  C6_27 
REMARK       I    between atoms: C5_18  and  C6_44 
REMARK       I    between atoms: C3_19  and  O1_82 
REMARK       I    between atoms: C2_20  and  N_89 
REMARK       I    between atoms: C2_21  and  O2_80 
REMARK       I    between atoms: C1_24  and  O1_45 
REMARK       I    between atoms: C6_25  and  O6_48 
REMARK       I    between atoms: C6_27  and  O6_77 
REMARK       I    between atoms: C7_28  and  C8_35 
REMARK       I    between atoms: C7_28  and  N_70 
REMARK       I    between atoms: O1_30  and  C3_43 
REMARK       I    between atoms: C4_33  and  O4_53 
REMARK       I    between atoms: S_34  and  O4_53 
REMARK       I    between atoms: O2_40  and  C2_87 
REMARK       I    between atoms: C7_41  and  C8_81 
REMARK       I    between atoms: C7_41  and  N_89 
REMARK       I    between atoms: O6_42  and  C6_88 
REMARK       I    between atoms: O1_45  and  C4_90 
REMARK       I    between atoms: C7_46  and  C8_69 
REMARK       I    between atoms: C7_46  and  N_85 
REMARK       I    between atoms: C2_47  and  N_85 
REMARK       I    between atoms: O1_50  and  C4_73 
REMARK       I    between atoms: O1_50  and  C1_76 
REMARK       I    between atoms: C1_52  and  O1_82 
REMARK       I    between atoms: C3_54  and  O3_72 
REMARK       I    between atoms: C5_57  and  C6_88 
REMARK       I    between atoms: O1_59  and  C1_78 
REMARK       I    between atoms: O2_63  and  C2_68 
REMARK       I    between atoms: N_70  and  C2_74 
ROOT
ATOM      1  O6B BDP d 216      31.296 -17.367  83.348  0.00  0.00    -0.646 OA
ATOM      2  C6  BDP d 216      31.805 -16.724  82.405  0.00  0.00     0.206 C 
ATOM      3  C3  BDP d 216      29.702 -17.965  79.403  0.00  0.00     0.092 C 
ATOM      4  O6A BDP d 216      32.547 -15.731  82.562  0.00  0.00    -0.646 OA
ATOM      5  O5  BDP d 216      32.187 -18.397  80.735  0.00  0.00    -0.340 OA
ATOM      6  C4  BDP d 216      30.003 -17.344  80.766  0.00  0.00     0.103 C 
ATOM      7  O2  BDP d 216      30.432 -19.628  77.824  0.00  0.00    -0.388 OA
ATOM      8  C5  BDP d 216      31.510 -17.179  80.978  0.00  0.00     0.152 C 
ATOM      9  O1  BDP d 216      32.863 -19.959  79.152  0.00  0.00    -0.368 OA
ATOM     10  O3  BDP d 216      28.343 -18.344  79.343  0.00  0.00    -0.390 OA
ATOM     11  C1  BDP d 216      32.049 -18.829  79.398  0.00  0.00     0.156 C 
ATOM     12  C2  BDP d 216      30.588 -19.184  79.152  0.00  0.00     0.110 C 
ATOM     13  H   BDP d 216      29.906 -17.237  78.647  0.00  0.00     0.091 H 
ATOM     14  H   BDP d 216      29.657 -17.988  81.548  0.00  0.00     0.092 H 
ATOM     15  H   BDP d 216      29.502 -19.854  77.666  0.00  0.00     0.210 HD
ATOM     16  H   BDP d 216      31.855 -16.438  80.289  0.00  0.00     0.104 H 
ATOM     17  H   BDP d 216      33.792 -19.728  79.309  0.00  0.00     0.212 HD
ATOM     18  H   BDP d 216      28.160 -19.004  80.030  0.00  0.00     0.210 HD
ATOM     19  H   BDP d 216      32.356 -18.045  78.737  0.00  0.00     0.133 H 
ATOM     20  H   BDP d 216      30.296 -19.963  79.824  0.00  0.00     0.094 H 
ATOM     21  O4  ASG d 217      25.157 -14.919  81.872  0.00  0.00    -0.246 OA
ATOM     22  O7  ASG d 217      28.798 -12.523  80.637  0.00  0.00    -0.274 OA
ATOM     23  O1  ASG d 217      29.346 -16.129  80.833  0.00  0.00    -0.348 OA
ATOM     24  C5  ASG d 217      26.226 -16.933  82.780  0.00  0.00     0.090 C 
ATOM     25  C1  ASG d 217      28.388 -16.080  81.878  0.00  0.00     0.154 C 
ATOM     26  C6  ASG d 217      25.066 -17.979  82.609  0.00  0.00     0.043 C 
ATOM     27  OSA ASG d 217      23.377 -13.829  83.323  0.00  0.00    -0.572 OA
ATOM     28  C3  ASG d 217      26.999 -14.667  83.466  0.00  0.00     0.094 C 
ATOM     29  C7  ASG d 217      29.527 -12.743  81.540  0.00  0.00     0.214 C 
ATOM     30  C2  ASG d 217      28.012 -14.631  82.329  0.00  0.00     0.087 C 
ATOM     31  O5  ASG d 217      27.160 -16.901  81.633  0.00  0.00    -0.349 OA
ATOM     32  OSB ASG d 217      22.686 -15.367  81.611  0.00  0.00    -0.572 OA
ATOM     33  OSC ASG d 217      23.536 -13.193  81.041  0.00  0.00    -0.572 OA
ATOM     34  C8  ASG d 217      30.723 -11.807  81.795  0.00  0.00    -0.003 C 
ATOM     35  S   ASG d 217      23.630 -14.315  81.967  0.00  0.00     0.252 S 
ATOM     36  O6  ASG d 217      25.284 -19.304  83.073  0.00  0.00    -0.398 OA
ATOM     37  C4  ASG d 217      25.771 -15.462  83.029  0.00  0.00     0.114 C 
ATOM     38  N   ASG d 217      29.182 -13.760  82.528  0.00  0.00    -0.349 N 
ATOM     39  H   ASG d 217      26.712 -17.296  83.661  0.00  0.00     0.090 H 
ATOM     40  H   ASG d 217      28.903 -16.539  82.696  0.00  0.00     0.132 H 
ATOM     41  H   ASG d 217      24.845 -18.041  81.563  0.00  0.00     0.078 H 
ATOM     42  H   ASG d 217      24.278 -17.606  83.231  0.00  0.00     0.078 H 
ATOM     43  H   ASG d 217      27.494 -15.051  84.333  0.00  0.00     0.091 H 
ATOM     44  H   ASG d 217      27.508 -14.143  81.521  0.00  0.00     0.084 H 
ATOM     45  H   ASG d 217      30.828 -11.131  80.973  0.00  0.00     0.040 H 
ATOM     46  H   ASG d 217      31.615 -12.389  81.894  0.00  0.00     0.040 H 
ATOM     47  H   ASG d 217      30.556 -11.252  82.695  0.00  0.00     0.040 H 
ATOM     48  H   ASG d 217      25.992 -19.716  82.553  0.00  0.00     0.209 HD
ATOM     49  H   ASG d 217      25.029 -15.419  83.800  0.00  0.00     0.093 H 
ATOM     50  H   ASG d 217      29.737 -13.865  83.334  0.00  0.00     0.163 HD
ATOM     51  C6  BDP d 218      26.288 -13.256  88.348  0.00  0.00     0.206 C 
ATOM     52  O3  BDP d 218      26.638  -9.116  85.727  0.00  0.00    -0.390 OA
ATOM     53  C1  BDP d 218      26.912 -12.694  84.738  0.00  0.00     0.160 C 
ATOM     54  C2  BDP d 218      26.544 -11.218  84.621  0.00  0.00     0.110 C 
ATOM     55  O6A BDP d 218      27.102 -13.820  89.113  0.00  0.00    -0.646 OA
ATOM     56  O1  BDP d 218      26.448 -13.395  83.600  0.00  0.00    -0.348 OA
ATOM     57  C3  BDP d 218      27.049 -10.457  85.834  0.00  0.00     0.092 C 
ATOM     58  O5  BDP d 218      26.314 -13.194  85.918  0.00  0.00    -0.340 OA
ATOM     59  C5  BDP d 218      26.830 -12.581  87.089  0.00  0.00     0.152 C 
ATOM     60  C4  BDP d 218      26.490 -11.094  87.102  0.00  0.00     0.103 C 
ATOM     61  O2  BDP d 218      27.097 -10.651  83.453  0.00  0.00    -0.388 OA
ATOM     62  O6B BDP d 218      25.058 -13.196  88.569  0.00  0.00    -0.646 OA
ATOM     63  H   BDP d 218      27.003  -8.730  84.915  0.00  0.00     0.210 HD
ATOM     64  H   BDP d 218      27.973 -12.821  84.788  0.00  0.00     0.133 H 
ATOM     65  H   BDP d 218      25.478 -11.145  84.568  0.00  0.00     0.094 H 
ATOM     66  H   BDP d 218      28.118 -10.495  85.880  0.00  0.00     0.091 H 
ATOM     67  H   BDP d 218      27.893 -12.696  87.081  0.00  0.00     0.104 H 
ATOM     68  H   BDP d 218      25.452 -10.840  87.160  0.00  0.00     0.092 H 
ATOM     69  H   BDP d 218      28.064 -10.712  83.491  0.00  0.00     0.210 HD
ATOM     70  O4  ASG d 221      26.938 -14.604 100.834  0.00  0.00    -0.249 OA
ATOM     71  OSB ASG d 221      27.688 -17.036 100.692  0.00  0.00    -0.572 OA
ATOM     72  OSC ASG d 221      28.834 -15.604 102.222  0.00  0.00    -0.572 OA
ATOM     73  C2  ASG d 221      25.533 -12.522  99.655  0.00  0.00     0.062 C 
ATOM     74  C1  ASG d 221      26.752 -12.009  98.814  0.00  0.00     0.151 C 
ATOM     75  C3  ASG d 221      25.830 -12.473 101.139  0.00  0.00    -0.014 C 
ATOM     76  O7  ASG d 221      23.048 -12.741 101.091  0.00  0.00    -0.274 OA
ATOM     77  C7  ASG d 221      23.101 -11.942 100.221  0.00  0.00     0.214 C 
ATOM     78  O6  ASG d 221      30.738 -12.104 100.765  0.00  0.00    -0.398 OA
ATOM     79  O1  ASG d 221      26.621 -12.221  97.412  0.00  0.00    -0.348 OA
ATOM     80  C5  ASG d 221      28.189 -12.431 100.845  0.00  0.00     0.088 C 
ATOM     81  C4  ASG d 221      27.049 -13.316 101.418  0.00  0.00     0.089 C 
ATOM     82  OSA ASG d 221      29.166 -15.375  99.866  0.00  0.00    -0.572 OA
ATOM     83  S   ASG d 221      28.191 -15.682 100.911  0.00  0.00     0.252 S 
ATOM     84  O5  ASG d 221      28.067 -12.476  99.371  0.00  0.00    -0.349 OA
ATOM     85  C8  ASG d 221      21.863 -11.085  99.907  0.00  0.00    -0.003 C 
ATOM     86  C6  ASG d 221      29.625 -12.671 101.441  0.00  0.00     0.043 C 
ATOM     87  N   ASG d 221      24.240 -11.909  99.303  0.00  0.00    -0.352 N 
ATOM     88  H   ASG d 221      25.404 -13.549  99.385  0.00  0.00     0.080 H 
ATOM     89  H   ASG d 221      26.745 -10.944  98.919  0.00  0.00     0.132 H 
ATOM     90  H   ASG d 221      24.994 -12.858 101.686  0.00  0.00     0.040 H 
ATOM     91  H   ASG d 221      26.009 -11.462 101.441  0.00  0.00     0.040 H 
ATOM     92  H   ASG d 221      31.553 -12.329 101.239  0.00  0.00     0.209 HD
ATOM     93  H   ASG d 221      28.061 -11.422 101.177  0.00  0.00     0.090 H 
ATOM     94  H   ASG d 221      27.213 -13.551 102.448  0.00  0.00     0.089 H 
ATOM     95  H   ASG d 221      21.129 -11.225 100.673  0.00  0.00     0.040 H 
ATOM     96  H   ASG d 221      21.454 -11.380  98.963  0.00  0.00     0.040 H 
ATOM     97  H   ASG d 221      22.144 -10.053  99.866  0.00  0.00     0.040 H 
ATOM     98  H   ASG d 221      29.624 -12.277 102.436  0.00  0.00     0.078 H 
ATOM     99  H   ASG d 221      29.773 -13.727 101.356  0.00  0.00     0.078 H 
ATOM    100  H   ASG d 221      24.139 -11.466  98.429  0.00  0.00     0.163 HD
ATOM    101  O5  BDP d 220      26.057 -10.000  94.723  0.00  0.00    -0.340 OA
ATOM    102  C5  BDP d 220      25.801 -11.027  95.659  0.00  0.00     0.152 C 
ATOM    103  C6  BDP d 220      24.471 -10.783  96.367  0.00  0.00     0.206 C 
ATOM    104  C1  BDP d 220      27.099 -10.357  93.841  0.00  0.00     0.160 C 
ATOM    105  C3  BDP d 220      28.237 -11.427  95.869  0.00  0.00     0.092 C 
ATOM    106  O2  BDP d 220      29.404 -10.993  93.799  0.00  0.00    -0.388 OA
ATOM    107  O6B BDP d 220      24.309  -9.694  96.969  0.00  0.00    -0.646 OA
ATOM    108  C2  BDP d 220      28.385 -10.510  94.648  0.00  0.00     0.110 C 
ATOM    109  O3  BDP d 220      29.358 -11.268  96.721  0.00  0.00    -0.390 OA
ATOM    110  O1  BDP d 220      27.288  -9.352  92.856  0.00  0.00    -0.348 OA
ATOM    111  O6A BDP d 220      23.607 -11.691  96.309  0.00  0.00    -0.646 OA
ATOM    112  C4  BDP d 220      26.959 -11.113  96.649  0.00  0.00     0.103 C 
ATOM    113  H   BDP d 220      25.723 -11.965  95.151  0.00  0.00     0.104 H 
ATOM    114  H   BDP d 220      26.848 -11.275  93.351  0.00  0.00     0.133 H 
ATOM    115  H   BDP d 220      28.179 -12.437  95.521  0.00  0.00     0.091 H 
ATOM    116  H   BDP d 220      29.488 -10.407  93.031  0.00  0.00     0.210 HD
ATOM    117  H   BDP d 220      28.636  -9.543  95.034  0.00  0.00     0.094 H 
ATOM    118  H   BDP d 220      29.401 -10.350  97.031  0.00  0.00     0.210 HD
ATOM    119  H   BDP d 220      27.117 -10.223  97.221  0.00  0.00     0.092 H 
ATOM    120  OSC ASG d 219      28.062  -4.875  91.050  0.00  0.00    -0.572 OA
ATOM    121  C5  ASG d 219      25.098  -8.316  90.070  0.00  0.00     0.090 C 
ATOM    122  C3  ASG d 219      26.500  -9.526  91.724  0.00  0.00     0.094 C 
ATOM    123  C6  ASG d 219      24.316  -7.013  89.687  0.00  0.00     0.043 C 
ATOM    124  C7  ASG d 219      29.368 -11.716  90.648  0.00  0.00     0.214 C 
ATOM    125  C4  ASG d 219      26.032  -8.143  91.298  0.00  0.00     0.114 C 
ATOM    126  S   ASG d 219      27.051  -5.711  91.695  0.00  0.00     0.252 S 
ATOM    127  C8  ASG d 219      29.971 -13.115  90.892  0.00  0.00    -0.003 C 
ATOM    128  O7  ASG d 219      30.029 -10.868  90.161  0.00  0.00    -0.274 OA
ATOM    129  O6  ASG d 219      23.576  -6.991  88.475  0.00  0.00    -0.398 OA
ATOM    130  OSB ASG d 219      25.766  -5.046  91.490  0.00  0.00    -0.572 OA
ATOM    131  O1  ASG d 219      27.281 -10.714  88.174  0.00  0.00    -0.348 OA
ATOM    132  O4  ASG d 219      27.070  -7.221  91.012  0.00  0.00    -0.246 OA
ATOM    133  OSA ASG d 219      27.339  -5.899  93.119  0.00  0.00    -0.572 OA
ATOM    134  O5  ASG d 219      25.950  -8.830  88.977  0.00  0.00    -0.349 OA
ATOM    135  N   ASG d 219      27.976 -11.436  90.987  0.00  0.00    -0.349 N 
ATOM    136  C2  ASG d 219      27.343 -10.154  90.625  0.00  0.00     0.087 C 
ATOM    137  C1  ASG d 219      26.550 -10.175  89.266  0.00  0.00     0.154 C 
ATOM    138  H   ASG d 219      24.310  -9.005  90.292  0.00  0.00     0.090 H 
ATOM    139  H   ASG d 219      25.664 -10.165  91.917  0.00  0.00     0.091 H 
ATOM    140  H   ASG d 219      25.033  -6.220  89.633  0.00  0.00     0.078 H 
ATOM    141  H   ASG d 219      23.569  -6.926  90.448  0.00  0.00     0.078 H 
ATOM    142  H   ASG d 219      25.519  -7.710  92.131  0.00  0.00     0.093 H 
ATOM    143  H   ASG d 219      29.232 -13.749  91.336  0.00  0.00     0.040 H 
ATOM    144  H   ASG d 219      30.812 -13.031  91.548  0.00  0.00     0.040 H 
ATOM    145  H   ASG d 219      30.287 -13.535  89.960  0.00  0.00     0.040 H 
ATOM    146  H   ASG d 219      24.185  -7.066  87.723  0.00  0.00     0.209 HD
ATOM    147  H   ASG d 219      27.449 -12.115  91.467  0.00  0.00     0.163 HD
ATOM    148  H   ASG d 219      28.193  -9.520  90.483  0.00  0.00     0.084 H 
ATOM    149  H   ASG d 219      25.743 -10.866  89.394  0.00  0.00     0.132 H 
ENDROOT
TORSDOF 38
ENDMDL
MODEL 24
REMARK VINA RESULT:      -6.7      4.166     16.306
REMARK  0 active torsions:
REMARK  status: ('A' for Active; 'I' for Inactive)
REMARK       I    between atoms: C6_2  and  C5_55 
REMARK       I    between atoms: O4_3  and  C4_83 
REMARK       I    between atoms: O4_3  and  S_75 
REMARK       I    between atoms: C6_4  and  C5_67 
REMARK       I    between atoms: O4_5  and  C4_61 
REMARK       I    between atoms: O4_5  and  S_71 
REMARK       I    between atoms: O3_6  and  C3_32 
REMARK       I    between atoms: C1_8  and  O1_30 
REMARK       I    between atoms: C3_12  and  O3_62 
REMARK       I    between atoms: C5_13  and  C6_25 
REMARK       I    between atoms: O1_14  and  C4_39 
REMARK       I    between atoms: O1_14  and  C1_23 
REMARK       I    between atoms: C5_15  and  C6_27 
REMARK       I    between atoms: C5_18  and  C6_44 
REMARK       I    between atoms: C3_19  and  O1_82 
REMARK       I    between atoms: C2_20  and  N_89 
REMARK       I    between atoms: C2_21  and  O2_80 
REMARK       I    between atoms: C1_24  and  O1_45 
REMARK       I    between atoms: C6_25  and  O6_48 
REMARK       I    between atoms: C6_27  and  O6_77 
REMARK       I    between atoms: C7_28  and  C8_35 
REMARK       I    between atoms: C7_28  and  N_70 
REMARK       I    between atoms: O1_30  and  C3_43 
REMARK       I    between atoms: C4_33  and  O4_53 
REMARK       I    between atoms: S_34  and  O4_53 
REMARK       I    between atoms: O2_40  and  C2_87 
REMARK       I    between atoms: C7_41  and  C8_81 
REMARK       I    between atoms: C7_41  and  N_89 
REMARK       I    between atoms: O6_42  and  C6_88 
REMARK       I    between atoms: O1_45  and  C4_90 
REMARK       I    between atoms: C7_46  and  C8_69 
REMARK       I    between atoms: C7_46  and  N_85 
REMARK       I    between atoms: C2_47  and  N_85 
REMARK       I    between atoms: O1_50  and  C4_73 
REMARK       I    between atoms: O1_50  and  C1_76 
REMARK       I    between atoms: C1_52  and  O1_82 
REMARK       I    between atoms: C3_54  and  O3_72 
REMARK       I    between atoms: C5_57  and  C6_88 
REMARK       I    between atoms: O1_59  and  C1_78 
REMARK       I    between atoms: O2_63  and  C2_68 
REMARK       I    between atoms: N_70  and  C2_74 
ROOT
ATOM      1  O6B BDP d 216      28.227 -20.643  88.091  0.00  0.00    -0.646 OA
ATOM      2  C6  BDP d 216      29.029 -20.582  87.134  0.00  0.00     0.206 C 
ATOM      3  C3  BDP d 216      26.708 -21.360  84.137  0.00  0.00     0.092 C 
ATOM      4  O6A BDP d 216      30.163 -20.064  87.211  0.00  0.00    -0.646 OA
ATOM      5  O5  BDP d 216      28.580 -22.587  85.905  0.00  0.00    -0.340 OA
ATOM      6  C4  BDP d 216      27.227 -20.644  85.383  0.00  0.00     0.103 C 
ATOM      7  O2  BDP d 216      26.562 -23.500  83.049  0.00  0.00    -0.388 OA
ATOM      8  C5  BDP d 216      28.601 -21.176  85.796  0.00  0.00     0.152 C 
ATOM      9  O1  BDP d 216      28.437 -24.618  84.784  0.00  0.00    -0.368 OA
ATOM     10  O3  BDP d 216      25.347 -21.039  83.936  0.00  0.00    -0.390 OA
ATOM     11  C1  BDP d 216      28.296 -23.216  84.673  0.00  0.00     0.156 C 
ATOM     12  C2  BDP d 216      26.867 -22.872  84.272  0.00  0.00     0.110 C 
ATOM     13  H   BDP d 216      27.282 -21.033  83.295  0.00  0.00     0.091 H 
ATOM     14  H   BDP d 216      26.572 -20.825  86.210  0.00  0.00     0.092 H 
ATOM     15  H   BDP d 216      25.652 -23.283  82.792  0.00  0.00     0.210 HD
ATOM     16  H   BDP d 216      29.301 -20.890  85.038  0.00  0.00     0.104 H 
ATOM     17  H   BDP d 216      29.349 -24.831  85.039  0.00  0.00     0.212 HD
ATOM     18  H   BDP d 216      24.829 -21.336  84.701  0.00  0.00     0.210 HD
ATOM     19  H   BDP d 216      28.983 -22.868  83.930  0.00  0.00     0.133 H 
ATOM     20  H   BDP d 216      26.195 -23.220  85.028  0.00  0.00     0.094 H 
ATOM     21  O4  ASG d 217      24.228 -16.000  85.211  0.00  0.00    -0.246 OA
ATOM     22  O7  ASG d 217      28.627 -16.042  84.127  0.00  0.00    -0.274 OA
ATOM     23  O1  ASG d 217      27.271 -19.289  85.107  0.00  0.00    -0.348 OA
ATOM     24  C5  ASG d 217      24.098 -17.982  86.651  0.00  0.00     0.090 C 
ATOM     25  C1  ASG d 217      26.428 -18.528  85.956  0.00  0.00     0.154 C 
ATOM     26  C6  ASG d 217      22.575 -18.346  86.505  0.00  0.00     0.043 C 
ATOM     27  OSA ASG d 217      23.185 -13.867  86.120  0.00  0.00    -0.572 OA
ATOM     28  C3  ASG d 217      25.880 -16.277  86.997  0.00  0.00     0.094 C 
ATOM     29  C7  ASG d 217      29.108 -16.353  85.160  0.00  0.00     0.214 C 
ATOM     30  C2  ASG d 217      26.817 -17.017  86.051  0.00  0.00     0.087 C 
ATOM     31  O5  ASG d 217      24.965 -18.689  85.684  0.00  0.00    -0.349 OA
ATOM     32  OSB ASG d 217      21.881 -15.253  84.652  0.00  0.00    -0.572 OA
ATOM     33  OSC ASG d 217      23.735 -13.975  83.813  0.00  0.00    -0.572 OA
ATOM     34  C8  ASG d 217      30.601 -16.078  85.414  0.00  0.00    -0.003 C 
ATOM     35  S   ASG d 217      23.213 -14.734  84.942  0.00  0.00     0.252 S 
ATOM     36  O6  ASG d 217      22.076 -19.450  87.247  0.00  0.00    -0.398 OA
ATOM     37  C4  ASG d 217      24.437 -16.464  86.534  0.00  0.00     0.114 C 
ATOM     38  N   ASG d 217      28.258 -16.798  86.259  0.00  0.00    -0.349 N 
ATOM     39  H   ASG d 217      24.298 -18.302  87.653  0.00  0.00     0.090 H 
ATOM     40  H   ASG d 217      26.608 -18.958  86.919  0.00  0.00     0.132 H 
ATOM     41  H   ASG d 217      22.395 -18.551  85.471  0.00  0.00     0.078 H 
ATOM     42  H   ASG d 217      22.060 -17.500  86.910  0.00  0.00     0.078 H 
ATOM     43  H   ASG d 217      26.078 -16.623  87.990  0.00  0.00     0.091 H 
ATOM     44  H   ASG d 217      26.661 -16.564  85.094  0.00  0.00     0.084 H 
ATOM     45  H   ASG d 217      31.066 -15.763  84.503  0.00  0.00     0.040 H 
ATOM     46  H   ASG d 217      31.073 -16.971  85.765  0.00  0.00     0.040 H 
ATOM     47  H   ASG d 217      30.702 -15.307  86.151  0.00  0.00     0.040 H 
ATOM     48  H   ASG d 217      22.500 -20.266  86.937  0.00  0.00     0.209 HD
ATOM     49  H   ASG d 217      23.789 -15.879  87.154  0.00  0.00     0.093 H 
ATOM     50  H   ASG d 217      28.652 -16.953  87.148  0.00  0.00     0.163 HD
ATOM     51  C6  BDP d 218      25.785 -13.537  91.334  0.00  0.00     0.206 C 
ATOM     52  O3  BDP d 218      28.281 -10.875  88.046  0.00  0.00    -0.390 OA
ATOM     53  C1  BDP d 218      26.751 -14.261  87.830  0.00  0.00     0.160 C 
ATOM     54  C2  BDP d 218      27.183 -12.871  87.370  0.00  0.00     0.110 C 
ATOM     55  O6A BDP d 218      26.171 -14.213  92.314  0.00  0.00    -0.646 OA
ATOM     56  O1  BDP d 218      26.042 -14.910  86.791  0.00  0.00    -0.348 OA
ATOM     57  C3  BDP d 218      27.954 -12.174  88.476  0.00  0.00     0.092 C 
ATOM     58  O5  BDP d 218      25.935 -14.100  88.974  0.00  0.00    -0.340 OA
ATOM     59  C5  BDP d 218      26.643 -13.543  90.070  0.00  0.00     0.152 C 
ATOM     60  C4  BDP d 218      27.100 -12.125  89.738  0.00  0.00     0.103 C 
ATOM     61  O2  BDP d 218      27.992 -12.951  86.217  0.00  0.00    -0.388 OA
ATOM     62  O6B BDP d 218      24.745 -12.840  91.341  0.00  0.00    -0.646 OA
ATOM     63  H   BDP d 218      28.823 -10.927  87.244  0.00  0.00     0.210 HD
ATOM     64  H   BDP d 218      27.600 -14.865  88.071  0.00  0.00     0.133 H 
ATOM     65  H   BDP d 218      26.303 -12.311  87.136  0.00  0.00     0.094 H 
ATOM     66  H   BDP d 218      28.855 -12.707  88.698  0.00  0.00     0.091 H 
ATOM     67  H   BDP d 218      27.502 -14.152  90.254  0.00  0.00     0.104 H 
ATOM     68  H   BDP d 218      26.331 -11.398  89.581  0.00  0.00     0.092 H 
ATOM     69  H   BDP d 218      28.795 -13.457  86.419  0.00  0.00     0.210 HD
ATOM     70  O4  ASG d 221      25.166 -11.884 103.785  0.00  0.00    -0.249 OA
ATOM     71  OSB ASG d 221      24.591 -14.324 104.240  0.00  0.00    -0.572 OA
ATOM     72  OSC ASG d 221      26.241 -13.291 105.625  0.00  0.00    -0.572 OA
ATOM     73  C2  ASG d 221      25.052  -9.750 102.015  0.00  0.00     0.062 C 
ATOM     74  C1  ASG d 221      26.396 -10.113 101.295  0.00  0.00     0.151 C 
ATOM     75  C3  ASG d 221      25.274  -9.483 103.489  0.00  0.00    -0.014 C 
ATOM     76  O7  ASG d 221      22.742  -8.383 103.052  0.00  0.00    -0.274 OA
ATOM     77  C7  ASG d 221      23.226  -7.952 102.063  0.00  0.00     0.214 C 
ATOM     78  O6  ASG d 221      29.708 -11.625 103.835  0.00  0.00    -0.398 OA
ATOM     79  O1  ASG d 221      26.232 -10.577  99.958  0.00  0.00    -0.348 OA
ATOM     80  C5  ASG d 221      27.342 -10.655 103.571  0.00  0.00     0.088 C 
ATOM     81  C4  ASG d 221      25.889 -10.709 104.117  0.00  0.00     0.089 C 
ATOM     82  OSA ASG d 221      26.737 -13.844 103.353  0.00  0.00    -0.572 OA
ATOM     83  S   ASG d 221      25.699 -13.373 104.268  0.00  0.00     0.252 S 
ATOM     84  O5  ASG d 221      27.272 -11.000 102.134  0.00  0.00    -0.349 OA
ATOM     85  C8  ASG d 221      22.603  -6.714 101.395  0.00  0.00    -0.003 C 
ATOM     86  C6  ASG d 221      28.435 -11.399 104.423  0.00  0.00     0.043 C 
ATOM     87  N   ASG d 221      24.261  -8.700 101.349  0.00  0.00    -0.352 N 
ATOM     88  H   ASG d 221      24.434 -10.618 101.933  0.00  0.00     0.080 H 
ATOM     89  H   ASG d 221      26.924  -9.189 101.188  0.00  0.00     0.132 H 
ATOM     90  H   ASG d 221      24.337  -9.270 103.960  0.00  0.00     0.040 H 
ATOM     91  H   ASG d 221      25.927  -8.644 103.613  0.00  0.00     0.040 H 
ATOM     92  H   ASG d 221      30.278 -12.089 104.467  0.00  0.00     0.209 HD
ATOM     93  H   ASG d 221      27.727  -9.662 103.676  0.00  0.00     0.090 H 
ATOM     94  H   ASG d 221      25.870 -10.729 105.186  0.00  0.00     0.089 H 
ATOM     95  H   ASG d 221      21.869  -6.289 102.048  0.00  0.00     0.040 H 
ATOM     96  H   ASG d 221      22.140  -7.000 100.475  0.00  0.00     0.040 H 
ATOM     97  H   ASG d 221      23.368  -5.992 101.199  0.00  0.00     0.040 H 
ATOM     98  H   ASG d 221      28.594 -10.820 105.309  0.00  0.00     0.078 H 
ATOM     99  H   ASG d 221      28.033 -12.379 104.569  0.00  0.00     0.078 H 
ATOM    100  H   ASG d 221      24.433  -8.496 100.401  0.00  0.00     0.163 HD
ATOM    101  O5  BDP d 220      26.975  -9.105  96.833  0.00  0.00    -0.340 OA
ATOM    102  C5  BDP d 220      26.199  -9.613  97.899  0.00  0.00     0.152 C 
ATOM    103  C6  BDP d 220      25.146  -8.593  98.325  0.00  0.00     0.206 C 
ATOM    104  C1  BDP d 220      27.728 -10.126  96.215  0.00  0.00     0.160 C 
ATOM    105  C3  BDP d 220      28.088 -11.069  98.567  0.00  0.00     0.092 C 
ATOM    106  O2  BDP d 220      29.396 -11.779  96.664  0.00  0.00    -0.388 OA
ATOM    107  O6B BDP d 220      25.533  -7.450  98.669  0.00  0.00    -0.646 OA
ATOM    108  C2  BDP d 220      28.728 -10.672  97.230  0.00  0.00     0.110 C 
ATOM    109  O3  BDP d 220      29.101 -11.263  99.539  0.00  0.00    -0.390 OA
ATOM    110  O1  BDP d 220      28.437  -9.615  95.095  0.00  0.00    -0.348 OA
ATOM    111  O6A BDP d 220      23.945  -8.956  98.308  0.00  0.00    -0.646 OA
ATOM    112  C4  BDP d 220      27.114  -9.997  99.057  0.00  0.00     0.103 C 
ATOM    113  H   BDP d 220      25.678 -10.491  97.577  0.00  0.00     0.104 H 
ATOM    114  H   BDP d 220      27.067 -10.898  95.879  0.00  0.00     0.133 H 
ATOM    115  H   BDP d 220      27.543 -11.977  98.418  0.00  0.00     0.091 H 
ATOM    116  H   BDP d 220      29.796 -11.517  95.820  0.00  0.00     0.210 HD
ATOM    117  H   BDP d 220      29.416  -9.884  97.454  0.00  0.00     0.094 H 
ATOM    118  H   BDP d 220      29.590 -10.435  99.666  0.00  0.00     0.210 HD
ATOM    119  H   BDP d 220      27.676  -9.183  99.462  0.00  0.00     0.092 H 
ATOM    120  OSC ASG d 219      31.438  -6.671  92.598  0.00  0.00    -0.572 OA
ATOM    121  C5  ASG d 219      27.183  -8.383  91.848  0.00  0.00     0.090 C 
ATOM    122  C3  ASG d 219      27.716  -9.664  93.908  0.00  0.00     0.094 C 
ATOM    123  C6  ASG d 219      27.182  -7.006  91.100  0.00  0.00     0.043 C 
ATOM    124  C7  ASG d 219      29.126 -13.153  93.749  0.00  0.00     0.214 C 
ATOM    125  C4  ASG d 219      28.027  -8.381  93.152  0.00  0.00     0.114 C 
ATOM    126  S   ASG d 219      30.118  -6.728  93.224  0.00  0.00     0.252 S 
ATOM    127  C8  ASG d 219      28.930 -14.558  94.354  0.00  0.00    -0.003 C 
ATOM    128  O7  ASG d 219      30.143 -12.878  93.218  0.00  0.00    -0.274 OA
ATOM    129  O6  ASG d 219      26.603  -6.933  89.805  0.00  0.00    -0.398 OA
ATOM    130  OSB ASG d 219      29.353  -5.602  92.692  0.00  0.00    -0.572 OA
ATOM    131  O1  ASG d 219      27.931 -11.921  90.828  0.00  0.00    -0.348 OA
ATOM    132  O4  ASG d 219      29.399  -8.177  92.861  0.00  0.00    -0.246 OA
ATOM    133  OSA ASG d 219      30.214  -6.671  94.685  0.00  0.00    -0.572 OA
ATOM    134  O5  ASG d 219      27.702  -9.497  91.026  0.00  0.00    -0.349 OA
ATOM    135  N   ASG d 219      28.053 -12.163  93.802  0.00  0.00    -0.349 N 
ATOM    136  C2  ASG d 219      28.169 -10.870  93.101  0.00  0.00     0.087 C 
ATOM    137  C1  ASG d 219      27.529 -10.844  91.664  0.00  0.00     0.154 C 
ATOM    138  H   ASG d 219      26.147  -8.529  92.074  0.00  0.00     0.090 H 
ATOM    139  H   ASG d 219      26.664  -9.752  94.087  0.00  0.00     0.091 H 
ATOM    140  H   ASG d 219      28.202  -6.698  91.007  0.00  0.00     0.078 H 
ATOM    141  H   ASG d 219      26.552  -6.385  91.701  0.00  0.00     0.078 H 
ATOM    142  H   ASG d 219      27.770  -7.564  93.793  0.00  0.00     0.093 H 
ATOM    143  H   ASG d 219      27.955 -14.626  94.790  0.00  0.00     0.040 H 
ATOM    144  H   ASG d 219      29.671 -14.729  95.106  0.00  0.00     0.040 H 
ATOM    145  H   ASG d 219      29.028 -15.294  93.584  0.00  0.00     0.040 H 
ATOM    146  H   ASG d 219      27.120  -7.476  89.189  0.00  0.00     0.209 HD
ATOM    147  H   ASG d 219      27.237 -12.362  94.315  0.00  0.00     0.163 HD
ATOM    148  H   ASG d 219      29.228 -10.781  92.975  0.00  0.00     0.084 H 
ATOM    149  H   ASG d 219      26.480 -11.005  91.794  0.00  0.00     0.132 H 
ENDROOT
TORSDOF 38
ENDMDL
MODEL 25
REMARK VINA RESULT:      -6.7      4.400      7.928
REMARK  0 active torsions:
REMARK  status: ('A' for Active; 'I' for Inactive)
REMARK       I    between atoms: C6_2  and  C5_55 
REMARK       I    between atoms: O4_3  and  C4_83 
REMARK       I    between atoms: O4_3  and  S_75 
REMARK       I    between atoms: C6_4  and  C5_67 
REMARK       I    between atoms: O4_5  and  C4_61 
REMARK       I    between atoms: O4_5  and  S_71 
REMARK       I    between atoms: O3_6  and  C3_32 
REMARK       I    between atoms: C1_8  and  O1_30 
REMARK       I    between atoms: C3_12  and  O3_62 
REMARK       I    between atoms: C5_13  and  C6_25 
REMARK       I    between atoms: O1_14  and  C4_39 
REMARK       I    between atoms: O1_14  and  C1_23 
REMARK       I    between atoms: C5_15  and  C6_27 
REMARK       I    between atoms: C5_18  and  C6_44 
REMARK       I    between atoms: C3_19  and  O1_82 
REMARK       I    between atoms: C2_20  and  N_89 
REMARK       I    between atoms: C2_21  and  O2_80 
REMARK       I    between atoms: C1_24  and  O1_45 
REMARK       I    between atoms: C6_25  and  O6_48 
REMARK       I    between atoms: C6_27  and  O6_77 
REMARK       I    between atoms: C7_28  and  C8_35 
REMARK       I    between atoms: C7_28  and  N_70 
REMARK       I    between atoms: O1_30  and  C3_43 
REMARK       I    between atoms: C4_33  and  O4_53 
REMARK       I    between atoms: S_34  and  O4_53 
REMARK       I    between atoms: O2_40  and  C2_87 
REMARK       I    between atoms: C7_41  and  C8_81 
REMARK       I    between atoms: C7_41  and  N_89 
REMARK       I    between atoms: O6_42  and  C6_88 
REMARK       I    between atoms: O1_45  and  C4_90 
REMARK       I    between atoms: C7_46  and  C8_69 
REMARK       I    between atoms: C7_46  and  N_85 
REMARK       I    between atoms: C2_47  and  N_85 
REMARK       I    between atoms: O1_50  and  C4_73 
REMARK       I    between atoms: O1_50  and  C1_76 
REMARK       I    between atoms: C1_52  and  O1_82 
REMARK       I    between atoms: C3_54  and  O3_72 
REMARK       I    between atoms: C5_57  and  C6_88 
REMARK       I    between atoms: O1_59  and  C1_78 
REMARK       I    between atoms: O2_63  and  C2_68 
REMARK       I    between atoms: N_70  and  C2_74 
ROOT
ATOM      1  O6B BDP d 216      28.063 -19.124  97.824  0.00  0.00    -0.646 OA
ATOM      2  C6  BDP d 216      27.058 -19.539  98.442  0.00  0.00     0.206 C 
ATOM      3  C3  BDP d 216      27.703 -18.133 101.989  0.00  0.00     0.092 C 
ATOM      4  O6A BDP d 216      26.032 -19.979  97.883  0.00  0.00    -0.646 OA
ATOM      5  O5  BDP d 216      27.988 -20.503 100.428  0.00  0.00    -0.340 OA
ATOM      6  C4  BDP d 216      27.499 -18.128 100.475  0.00  0.00     0.103 C 
ATOM      7  O2  BDP d 216      28.576 -19.419 103.826  0.00  0.00    -0.388 OA
ATOM      8  C5  BDP d 216      27.088 -19.512  99.968  0.00  0.00     0.152 C 
ATOM      9  O1  BDP d 216      28.779 -21.710 102.249  0.00  0.00    -0.368 OA
ATOM     10  O3  BDP d 216      28.327 -16.930 102.388  0.00  0.00    -0.390 OA
ATOM     11  C1  BDP d 216      27.991 -20.612 101.835  0.00  0.00     0.156 C 
ATOM     12  C2  BDP d 216      28.556 -19.324 102.420  0.00  0.00     0.110 C 
ATOM     13  H   BDP d 216      26.746 -18.215 102.460  0.00  0.00     0.091 H 
ATOM     14  H   BDP d 216      28.417 -17.886  99.982  0.00  0.00     0.092 H 
ATOM     15  H   BDP d 216      28.936 -18.599 104.200  0.00  0.00     0.210 HD
ATOM     16  H   BDP d 216      26.109 -19.720 100.347  0.00  0.00     0.104 H 
ATOM     17  H   BDP d 216      28.415 -22.528 101.874  0.00  0.00     0.212 HD
ATOM     18  H   BDP d 216      29.194 -16.858 101.960  0.00  0.00     0.210 HD
ATOM     19  H   BDP d 216      26.991 -20.769 102.182  0.00  0.00     0.133 H 
ATOM     20  H   BDP d 216      29.552 -19.179 102.059  0.00  0.00     0.094 H 
ATOM     21  O4  ASG d 217      26.660 -12.735  99.578  0.00  0.00    -0.246 OA
ATOM     22  O7  ASG d 217      23.268 -15.735  99.431  0.00  0.00    -0.274 OA
ATOM     23  O1  ASG d 217      26.540 -17.176 100.179  0.00  0.00    -0.348 OA
ATOM     24  C5  ASG d 217      28.577 -14.196  99.111  0.00  0.00     0.090 C 
ATOM     25  C1  ASG d 217      27.035 -16.140  99.345  0.00  0.00     0.154 C 
ATOM     26  C6  ASG d 217      29.739 -13.368  99.771  0.00  0.00     0.043 C 
ATOM     27  OSA ASG d 217      26.502 -10.601  98.206  0.00  0.00    -0.572 OA
ATOM     28  C3  ASG d 217      26.537 -14.284  97.685  0.00  0.00     0.094 C 
ATOM     29  C7  ASG d 217      23.601 -16.404  98.516  0.00  0.00     0.214 C 
ATOM     30  C2  ASG d 217      25.923 -15.360  98.572  0.00  0.00     0.087 C 
ATOM     31  O5  ASG d 217      27.980 -15.197 100.022  0.00  0.00    -0.349 OA
ATOM     32  OSB ASG d 217      27.525 -10.502 100.378  0.00  0.00    -0.572 OA
ATOM     33  OSC ASG d 217      25.153 -10.812 100.149  0.00  0.00    -0.572 OA
ATOM     34  C8  ASG d 217      22.561 -17.286  97.803  0.00  0.00    -0.003 C 
ATOM     35  S   ASG d 217      26.463 -11.102  99.580  0.00  0.00     0.252 S 
ATOM     36  O6  ASG d 217      31.062 -13.875  99.674  0.00  0.00    -0.398 OA
ATOM     37  C4  ASG d 217      27.397 -13.353  98.536  0.00  0.00     0.114 C 
ATOM     38  N   ASG d 217      24.929 -16.240  97.934  0.00  0.00    -0.349 N 
ATOM     39  H   ASG d 217      29.088 -14.670  98.300  0.00  0.00     0.090 H 
ATOM     40  H   ASG d 217      27.608 -16.674  98.616  0.00  0.00     0.132 H 
ATOM     41  H   ASG d 217      29.511 -13.273 100.813  0.00  0.00     0.078 H 
ATOM     42  H   ASG d 217      29.763 -12.454  99.214  0.00  0.00     0.078 H 
ATOM     43  H   ASG d 217      27.061 -14.775  96.892  0.00  0.00     0.091 H 
ATOM     44  H   ASG d 217      25.324 -14.828  99.281  0.00  0.00     0.084 H 
ATOM     45  H   ASG d 217      21.652 -17.292  98.367  0.00  0.00     0.040 H 
ATOM     46  H   ASG d 217      22.936 -18.284  97.721  0.00  0.00     0.040 H 
ATOM     47  H   ASG d 217      22.371 -16.894  96.825  0.00  0.00     0.040 H 
ATOM     48  H   ASG d 217      31.124 -14.713 100.159  0.00  0.00     0.209 HD
ATOM     49  H   ASG d 217      27.763 -12.554  97.924  0.00  0.00     0.093 H 
ATOM     50  H   ASG d 217      25.163 -16.721  97.108  0.00  0.00     0.163 HD
ATOM     51  C6  BDP d 218      26.944 -12.759  92.802  0.00  0.00     0.206 C 
ATOM     52  O3  BDP d 218      22.213 -12.280  94.034  0.00  0.00    -0.390 OA
ATOM     53  C1  BDP d 218      25.140 -13.566  95.939  0.00  0.00     0.160 C 
ATOM     54  C2  BDP d 218      23.820 -12.842  95.692  0.00  0.00     0.110 C 
ATOM     55  O6A BDP d 218      27.532 -13.612  92.101  0.00  0.00    -0.646 OA
ATOM     56  O1  BDP d 218      25.525 -13.413  97.291  0.00  0.00    -0.348 OA
ATOM     57  C3  BDP d 218      23.395 -13.012  94.244  0.00  0.00     0.092 C 
ATOM     58  O5  BDP d 218      26.107 -13.005  95.072  0.00  0.00    -0.340 OA
ATOM     59  C5  BDP d 218      25.803 -13.228  93.704  0.00  0.00     0.152 C 
ATOM     60  C4  BDP d 218      24.507 -12.515  93.327  0.00  0.00     0.103 C 
ATOM     61  O2  BDP d 218      22.806 -13.340  96.536  0.00  0.00    -0.388 OA
ATOM     62  O6B BDP d 218      27.225 -11.540  92.790  0.00  0.00    -0.646 OA
ATOM     63  H   BDP d 218      21.519 -12.611  94.626  0.00  0.00     0.210 HD
ATOM     64  H   BDP d 218      25.043 -14.614  95.744  0.00  0.00     0.133 H 
ATOM     65  H   BDP d 218      23.967 -11.804  95.904  0.00  0.00     0.094 H 
ATOM     66  H   BDP d 218      23.213 -14.044  94.027  0.00  0.00     0.091 H 
ATOM     67  H   BDP d 218      25.676 -14.280  93.560  0.00  0.00     0.104 H 
ATOM     68  H   BDP d 218      24.516 -11.447  93.378  0.00  0.00     0.092 H 
ATOM     69  H   BDP d 218      22.664 -14.282  96.351  0.00  0.00     0.210 HD
ATOM     70  O4  ASG d 221      32.025 -12.513  81.302  0.00  0.00    -0.249 OA
ATOM     71  OSB ASG d 221      34.062 -13.876  82.000  0.00  0.00    -0.572 OA
ATOM     72  OSC ASG d 221      32.980 -14.458  79.951  0.00  0.00    -0.572 OA
ATOM     73  C2  ASG d 221      30.032 -10.738  82.063  0.00  0.00     0.062 C 
ATOM     74  C1  ASG d 221      29.027 -11.859  82.499  0.00  0.00     0.151 C 
ATOM     75  C3  ASG d 221      30.395 -10.866  80.599  0.00  0.00    -0.014 C 
ATOM     76  O7  ASG d 221      31.229  -8.267  81.201  0.00  0.00    -0.274 OA
ATOM     77  C7  ASG d 221      30.202  -8.196  81.784  0.00  0.00     0.214 C 
ATOM     78  O6  ASG d 221      28.874 -15.524  79.998  0.00  0.00    -0.398 OA
ATOM     79  O1  ASG d 221      28.804 -11.925  83.904  0.00  0.00    -0.348 OA
ATOM     80  C5  ASG d 221      29.753 -13.152  80.457  0.00  0.00     0.088 C 
ATOM     81  C4  ASG d 221      30.998 -12.229  80.365  0.00  0.00     0.089 C 
ATOM     82  OSA ASG d 221      31.947 -14.948  82.050  0.00  0.00    -0.572 OA
ATOM     83  S   ASG d 221      32.774 -13.988  81.321  0.00  0.00     0.252 S 
ATOM     84  O5  ASG d 221      29.351 -13.189  81.880  0.00  0.00    -0.349 OA
ATOM     85  C8  ASG d 221      29.579  -6.815  82.049  0.00  0.00    -0.003 C 
ATOM     86  C6  ASG d 221      29.853 -14.535  79.715  0.00  0.00     0.043 C 
ATOM     87  N   ASG d 221      29.633  -9.372  82.443  0.00  0.00    -0.352 N 
ATOM     88  H   ASG d 221      30.921 -10.907  82.633  0.00  0.00     0.080 H 
ATOM     89  H   ASG d 221      28.079 -11.567  82.098  0.00  0.00     0.132 H 
ATOM     90  H   ASG d 221      31.105 -10.110  80.337  0.00  0.00     0.040 H 
ATOM     91  H   ASG d 221      29.520 -10.748  79.995  0.00  0.00     0.040 H 
ATOM     92  H   ASG d 221      29.057 -16.319  79.475  0.00  0.00     0.209 HD
ATOM     93  H   ASG d 221      28.955 -12.735  79.878  0.00  0.00     0.090 H 
ATOM     94  H   ASG d 221      31.508 -12.346  79.433  0.00  0.00     0.089 H 
ATOM     95  H   ASG d 221      30.111  -6.072  81.494  0.00  0.00     0.040 H 
ATOM     96  H   ASG d 221      29.639  -6.591  83.094  0.00  0.00     0.040 H 
ATOM     97  H   ASG d 221      28.553  -6.822  81.746  0.00  0.00     0.040 H 
ATOM     98  H   ASG d 221      29.807 -14.335  78.665  0.00  0.00     0.078 H 
ATOM     99  H   ASG d 221      30.769 -14.959  80.071  0.00  0.00     0.078 H 
ATOM    100  H   ASG d 221      28.968  -9.246  83.158  0.00  0.00     0.163 HD
ATOM    101  O5  BDP d 220      26.019 -11.072  85.904  0.00  0.00    -0.340 OA
ATOM    102  C5  BDP d 220      27.321 -11.000  85.358  0.00  0.00     0.152 C 
ATOM    103  C6  BDP d 220      27.608  -9.589  84.851  0.00  0.00     0.206 C 
ATOM    104  C1  BDP d 220      25.843 -12.252  86.658  0.00  0.00     0.160 C 
ATOM    105  C3  BDP d 220      27.230 -13.424  84.854  0.00  0.00     0.092 C 
ATOM    106  O2  BDP d 220      25.918 -14.635  86.480  0.00  0.00    -0.388 OA
ATOM    107  O6B BDP d 220      26.830  -9.094  84.001  0.00  0.00    -0.646 OA
ATOM    108  C2  BDP d 220      25.963 -13.448  85.718  0.00  0.00     0.110 C 
ATOM    109  O3  BDP d 220      27.113 -14.377  83.812  0.00  0.00    -0.390 OA
ATOM    110  O1  BDP d 220      24.560 -12.269  87.267  0.00  0.00    -0.348 OA
ATOM    111  O6A BDP d 220      28.615  -9.000  85.314  0.00  0.00    -0.646 OA
ATOM    112  C4  BDP d 220      27.465 -12.039  84.250  0.00  0.00     0.103 C 
ATOM    113  H   BDP d 220      28.041 -11.218  86.118  0.00  0.00     0.104 H 
ATOM    114  H   BDP d 220      26.588 -12.295  87.425  0.00  0.00     0.133 H 
ATOM    115  H   BDP d 220      28.064 -13.664  85.480  0.00  0.00     0.091 H 
ATOM    116  H   BDP d 220      25.114 -14.640  87.022  0.00  0.00     0.210 HD
ATOM    117  H   BDP d 220      25.140 -13.401  85.036  0.00  0.00     0.094 H 
ATOM    118  H   BDP d 220      26.355 -14.150  83.251  0.00  0.00     0.210 HD
ATOM    119  H   BDP d 220      26.792 -11.904  83.430  0.00  0.00     0.092 H 
ATOM    120  OSC ASG d 219      19.686 -12.031  87.560  0.00  0.00    -0.572 OA
ATOM    121  C5  ASG d 219      23.190 -10.168  89.977  0.00  0.00     0.090 C 
ATOM    122  C3  ASG d 219      24.531 -11.668  88.520  0.00  0.00     0.094 C 
ATOM    123  C6  ASG d 219      22.035  -9.118  90.101  0.00  0.00     0.043 C 
ATOM    124  C7  ASG d 219      25.590 -15.096  89.664  0.00  0.00     0.214 C 
ATOM    125  C4  ASG d 219      23.220 -10.901  88.608  0.00  0.00     0.114 C 
ATOM    126  S   ASG d 219      20.881 -11.213  87.365  0.00  0.00     0.252 S 
ATOM    127  C8  ASG d 219      26.828 -16.013  89.729  0.00  0.00    -0.003 C 
ATOM    128  O7  ASG d 219      24.509 -15.559  89.767  0.00  0.00    -0.274 OA
ATOM    129  O6  ASG d 219      21.789  -8.519  91.366  0.00  0.00    -0.398 OA
ATOM    130  OSB ASG d 219      20.480  -9.825  87.591  0.00  0.00    -0.572 OA
ATOM    131  O1  ASG d 219      24.328 -13.073  92.071  0.00  0.00    -0.348 OA
ATOM    132  O4  ASG d 219      22.053 -11.689  88.436  0.00  0.00    -0.246 OA
ATOM    133  OSA ASG d 219      21.446 -11.398  86.026  0.00  0.00    -0.572 OA
ATOM    134  O5  ASG d 219      23.132 -11.227  91.007  0.00  0.00    -0.349 OA
ATOM    135  N   ASG d 219      25.740 -13.652  89.504  0.00  0.00    -0.349 N 
ATOM    136  C2  ASG d 219      24.578 -12.747  89.590  0.00  0.00     0.087 C 
ATOM    137  C1  ASG d 219      24.336 -12.123  91.013  0.00  0.00     0.154 C 
ATOM    138  H   ASG d 219      24.068  -9.569  90.099  0.00  0.00     0.090 H 
ATOM    139  H   ASG d 219      25.363 -11.011  88.664  0.00  0.00     0.091 H 
ATOM    140  H   ASG d 219      21.131  -9.606  89.803  0.00  0.00     0.078 H 
ATOM    141  H   ASG d 219      22.358  -8.303  89.488  0.00  0.00     0.078 H 
ATOM    142  H   ASG d 219      23.196 -10.215  87.788  0.00  0.00     0.093 H 
ATOM    143  H   ASG d 219      27.715 -15.424  89.618  0.00  0.00     0.040 H 
ATOM    144  H   ASG d 219      26.778 -16.735  88.941  0.00  0.00     0.040 H 
ATOM    145  H   ASG d 219      26.850 -16.517  90.672  0.00  0.00     0.040 H 
ATOM    146  H   ASG d 219      21.487  -9.197  91.991  0.00  0.00     0.209 HD
ATOM    147  H   ASG d 219      26.634 -13.275  89.336  0.00  0.00     0.163 HD
ATOM    148  H   ASG d 219      23.764 -13.414  89.396  0.00  0.00     0.084 H 
ATOM    149  H   ASG d 219      25.189 -11.515  91.229  0.00  0.00     0.132 H 
ENDROOT
TORSDOF 38
ENDMDL
MODEL 26
REMARK VINA RESULT:      -6.7      4.287     16.442
REMARK  0 active torsions:
REMARK  status: ('A' for Active; 'I' for Inactive)
REMARK       I    between atoms: C6_2  and  C5_55 
REMARK       I    between atoms: O4_3  and  C4_83 
REMARK       I    between atoms: O4_3  and  S_75 
REMARK       I    between atoms: C6_4  and  C5_67 
REMARK       I    between atoms: O4_5  and  C4_61 
REMARK       I    between atoms: O4_5  and  S_71 
REMARK       I    between atoms: O3_6  and  C3_32 
REMARK       I    between atoms: C1_8  and  O1_30 
REMARK       I    between atoms: C3_12  and  O3_62 
REMARK       I    between atoms: C5_13  and  C6_25 
REMARK       I    between atoms: O1_14  and  C4_39 
REMARK       I    between atoms: O1_14  and  C1_23 
REMARK       I    between atoms: C5_15  and  C6_27 
REMARK       I    between atoms: C5_18  and  C6_44 
REMARK       I    between atoms: C3_19  and  O1_82 
REMARK       I    between atoms: C2_20  and  N_89 
REMARK       I    between atoms: C2_21  and  O2_80 
REMARK       I    between atoms: C1_24  and  O1_45 
REMARK       I    between atoms: C6_25  and  O6_48 
REMARK       I    between atoms: C6_27  and  O6_77 
REMARK       I    between atoms: C7_28  and  C8_35 
REMARK       I    between atoms: C7_28  and  N_70 
REMARK       I    between atoms: O1_30  and  C3_43 
REMARK       I    between atoms: C4_33  and  O4_53 
REMARK       I    between atoms: S_34  and  O4_53 
REMARK       I    between atoms: O2_40  and  C2_87 
REMARK       I    between atoms: C7_41  and  C8_81 
REMARK       I    between atoms: C7_41  and  N_89 
REMARK       I    between atoms: O6_42  and  C6_88 
REMARK       I    between atoms: O1_45  and  C4_90 
REMARK       I    between atoms: C7_46  and  C8_69 
REMARK       I    between atoms: C7_46  and  N_85 
REMARK       I    between atoms: C2_47  and  N_85 
REMARK       I    between atoms: O1_50  and  C4_73 
REMARK       I    between atoms: O1_50  and  C1_76 
REMARK       I    between atoms: C1_52  and  O1_82 
REMARK       I    between atoms: C3_54  and  O3_72 
REMARK       I    between atoms: C5_57  and  C6_88 
REMARK       I    between atoms: O1_59  and  C1_78 
REMARK       I    between atoms: O2_63  and  C2_68 
REMARK       I    between atoms: N_70  and  C2_74 
ROOT
ATOM      1  O6B BDP d 216      30.553 -17.072  86.511  0.00  0.00    -0.646 OA
ATOM      2  C6  BDP d 216      31.014 -16.382  85.576  0.00  0.00     0.206 C 
ATOM      3  C3  BDP d 216      28.497 -17.152  82.740  0.00  0.00     0.092 C 
ATOM      4  O6A BDP d 216      31.854 -15.471  85.734  0.00  0.00    -0.646 OA
ATOM      5  O5  BDP d 216      31.062 -17.908  83.731  0.00  0.00    -0.340 OA
ATOM      6  C4  BDP d 216      28.998 -16.694  84.108  0.00  0.00     0.103 C 
ATOM      7  O2  BDP d 216      28.901 -18.704  80.945  0.00  0.00    -0.388 OA
ATOM      8  C5  BDP d 216      30.527 -16.670  84.159  0.00  0.00     0.152 C 
ATOM      9  O1  BDP d 216      31.421 -19.355  81.949  0.00  0.00    -0.368 OA
ATOM     10  O3  BDP d 216      27.111 -17.414  82.803  0.00  0.00    -0.390 OA
ATOM     11  C1  BDP d 216      30.742 -18.194  82.386  0.00  0.00     0.156 C 
ATOM     12  C2  BDP d 216      29.238 -18.406  82.281  0.00  0.00     0.110 C 
ATOM     13  H   BDP d 216      28.683 -16.372  82.032  0.00  0.00     0.091 H 
ATOM     14  H   BDP d 216      28.681 -17.382  84.864  0.00  0.00     0.092 H 
ATOM     15  H   BDP d 216      27.943 -18.839  80.876  0.00  0.00     0.210 HD
ATOM     16  H   BDP d 216      30.861 -15.894  83.502  0.00  0.00     0.104 H 
ATOM     17  H   BDP d 216      32.378 -19.215  82.017  0.00  0.00     0.212 HD
ATOM     18  H   BDP d 216      26.945 -18.121  83.446  0.00  0.00     0.210 HD
ATOM     19  H   BDP d 216      31.046 -17.376  81.767  0.00  0.00     0.133 H 
ATOM     20  H   BDP d 216      28.951 -19.222  82.910  0.00  0.00     0.094 H 
ATOM     21  O4  ASG d 217      24.536 -14.013  85.978  0.00  0.00    -0.246 OA
ATOM     22  O7  ASG d 217      28.222 -11.802  84.547  0.00  0.00    -0.274 OA
ATOM     23  O1  ASG d 217      28.463 -15.442  84.358  0.00  0.00    -0.348 OA
ATOM     24  C5  ASG d 217      25.512 -16.184  86.573  0.00  0.00     0.090 C 
ATOM     25  C1  ASG d 217      27.632 -15.420  85.507  0.00  0.00     0.154 C 
ATOM     26  C6  ASG d 217      24.250 -17.113  86.446  0.00  0.00     0.043 C 
ATOM     27  OSA ASG d 217      23.027 -12.933  87.716  0.00  0.00    -0.572 OA
ATOM     28  C3  ASG d 217      26.554 -14.064  87.364  0.00  0.00     0.094 C 
ATOM     29  C7  ASG d 217      29.022 -12.167  85.337  0.00  0.00     0.214 C 
ATOM     30  C2  ASG d 217      27.438 -13.998  86.125  0.00  0.00     0.087 C 
ATOM     31  O5  ASG d 217      26.316 -16.114  85.334  0.00  0.00    -0.349 OA
ATOM     32  OSB ASG d 217      22.020 -14.236  85.965  0.00  0.00    -0.572 OA
ATOM     33  OSC ASG d 217      22.996 -12.091  85.496  0.00  0.00    -0.572 OA
ATOM     34  C8  ASG d 217      30.317 -11.359  85.534  0.00  0.00    -0.003 C 
ATOM     35  S   ASG d 217      23.088 -13.302  86.301  0.00  0.00     0.252 S 
ATOM     36  O6  ASG d 217      24.397 -18.491  86.762  0.00  0.00    -0.398 OA
ATOM     37  C4  ASG d 217      25.219 -14.714  87.003  0.00  0.00     0.114 C 
ATOM     38  N   ASG d 217      28.696 -13.246  86.264  0.00  0.00    -0.349 N 
ATOM     39  H   ASG d 217      26.055 -16.670  87.357  0.00  0.00     0.090 H 
ATOM     40  H   ASG d 217      28.188 -15.997  86.216  0.00  0.00     0.132 H 
ATOM     41  H   ASG d 217      23.913 -17.054  85.431  0.00  0.00     0.078 H 
ATOM     42  H   ASG d 217      23.571 -16.742  87.185  0.00  0.00     0.078 H 
ATOM     43  H   ASG d 217      27.103 -14.570  88.130  0.00  0.00     0.091 H 
ATOM     44  H   ASG d 217      26.895 -13.394  85.428  0.00  0.00     0.084 H 
ATOM     45  H   ASG d 217      30.393 -10.615  84.769  0.00  0.00     0.040 H 
ATOM     46  H   ASG d 217      31.159 -12.016  85.477  0.00  0.00     0.040 H 
ATOM     47  H   ASG d 217      30.299 -10.883  86.493  0.00  0.00     0.040 H 
ATOM     48  H   ASG d 217      25.006 -18.904  86.129  0.00  0.00     0.209 HD
ATOM     49  H   ASG d 217      24.572 -14.687  87.855  0.00  0.00     0.093 H 
ATOM     50  H   ASG d 217      29.323 -13.473  86.988  0.00  0.00     0.163 HD
ATOM     51  C6  BDP d 218      26.502 -13.088  92.402  0.00  0.00     0.206 C 
ATOM     52  O3  BDP d 218      26.938  -8.752  90.135  0.00  0.00    -0.390 OA
ATOM     53  C1  BDP d 218      26.782 -12.226  88.807  0.00  0.00     0.160 C 
ATOM     54  C2  BDP d 218      26.537 -10.720  88.865  0.00  0.00     0.110 C 
ATOM     55  O6A BDP d 218      27.340 -13.787  93.014  0.00  0.00    -0.646 OA
ATOM     56  O1  BDP d 218      26.137 -12.773  87.673  0.00  0.00    -0.348 OA
ATOM     57  C3  BDP d 218      27.236 -10.125  90.074  0.00  0.00     0.092 C 
ATOM     58  O5  BDP d 218      26.272 -12.790  90.000  0.00  0.00    -0.340 OA
ATOM     59  C5  BDP d 218      26.963 -12.338  91.153  0.00  0.00     0.152 C 
ATOM     60  C4  BDP d 218      26.761 -10.837  91.337  0.00  0.00     0.103 C 
ATOM     61  O2  BDP d 218      27.009 -10.088  87.696  0.00  0.00    -0.388 OA
ATOM     62  O6B BDP d 218      25.313 -12.953  92.767  0.00  0.00    -0.646 OA
ATOM     63  H   BDP d 218      27.247  -8.318  89.324  0.00  0.00     0.210 HD
ATOM     64  H   BDP d 218      27.826 -12.440  88.723  0.00  0.00     0.133 H 
ATOM     65  H   BDP d 218      25.482 -10.559  88.943  0.00  0.00     0.094 H 
ATOM     66  H   BDP d 218      28.295 -10.251  89.993  0.00  0.00     0.091 H 
ATOM     67  H   BDP d 218      28.005 -12.535  91.012  0.00  0.00     0.104 H 
ATOM     68  H   BDP d 218      25.763 -10.509  91.537  0.00  0.00     0.092 H 
ATOM     69  H   BDP d 218      27.966 -10.228  87.616  0.00  0.00     0.210 HD
ATOM     70  O4  ASG d 221      28.369 -15.703 104.559  0.00  0.00    -0.249 OA
ATOM     71  OSB ASG d 221      28.877 -18.160 104.116  0.00  0.00    -0.572 OA
ATOM     72  OSC ASG d 221      30.306 -16.981 105.625  0.00  0.00    -0.572 OA
ATOM     73  C2  ASG d 221      27.037 -13.410 103.740  0.00  0.00     0.062 C 
ATOM     74  C1  ASG d 221      28.200 -12.916 102.813  0.00  0.00     0.151 C 
ATOM     75  C3  ASG d 221      27.495 -13.531 105.178  0.00  0.00    -0.014 C 
ATOM     76  O7  ASG d 221      24.711 -13.572 105.428  0.00  0.00    -0.274 OA
ATOM     77  C7  ASG d 221      24.742 -12.698 104.632  0.00  0.00     0.214 C 
ATOM     78  O6  ASG d 221      32.348 -13.517 104.274  0.00  0.00    -0.398 OA
ATOM     79  O1  ASG d 221      27.900 -12.978 101.422  0.00  0.00    -0.348 OA
ATOM     80  C5  ASG d 221      29.804 -13.648 104.618  0.00  0.00     0.088 C 
ATOM     81  C4  ASG d 221      28.657 -14.491 105.238  0.00  0.00     0.089 C 
ATOM     82  OSA ASG d 221      30.402 -16.549 103.276  0.00  0.00    -0.572 OA
ATOM     83  S   ASG d 221      29.521 -16.879 104.395  0.00  0.00     0.252 S 
ATOM     84  O5  ASG d 221      29.520 -13.538 103.170  0.00  0.00    -0.349 OA
ATOM     85  C8  ASG d 221      23.559 -11.719 104.541  0.00  0.00    -0.003 C 
ATOM     86  C6  ASG d 221      31.268 -14.057 105.021  0.00  0.00     0.043 C 
ATOM     87  N   ASG d 221      25.774 -12.665 103.596  0.00  0.00    -0.352 N 
ATOM     88  H   ASG d 221      26.788 -14.392 103.396  0.00  0.00     0.080 H 
ATOM     89  H   ASG d 221      28.300 -11.869 103.011  0.00  0.00     0.132 H 
ATOM     90  H   ASG d 221      26.692 -13.901 105.781  0.00  0.00     0.040 H 
ATOM     91  H   ASG d 221      27.796 -12.572 105.546  0.00  0.00     0.040 H 
ATOM     92  H   ASG d 221      33.186 -13.852 104.629  0.00  0.00     0.209 HD
ATOM     93  H   ASG d 221      29.803 -12.669 105.051  0.00  0.00     0.090 H 
ATOM     94  H   ASG d 221      28.909 -14.838 106.218  0.00  0.00     0.089 H 
ATOM     95  H   ASG d 221      22.903 -11.875 105.371  0.00  0.00     0.040 H 
ATOM     96  H   ASG d 221      23.027 -11.887 103.628  0.00  0.00     0.040 H 
ATOM     97  H   ASG d 221      23.925 -10.714 104.559  0.00  0.00     0.040 H 
ATOM     98  H   ASG d 221      31.410 -13.764 106.040  0.00  0.00     0.078 H 
ATOM     99  H   ASG d 221      31.310 -15.108 104.826  0.00  0.00     0.078 H 
ATOM    100  H   ASG d 221      25.620 -12.132 102.782  0.00  0.00     0.163 HD
ATOM    101  O5  BDP d 220      27.252 -10.465  99.023  0.00  0.00    -0.340 OA
ATOM    102  C5  BDP d 220      27.007 -11.556  99.889  0.00  0.00     0.152 C 
ATOM    103  C6  BDP d 220      25.788 -11.278 100.764  0.00  0.00     0.206 C 
ATOM    104  C1  BDP d 220      28.156 -10.816  97.999  0.00  0.00     0.160 C 
ATOM    105  C3  BDP d 220      29.405 -12.167  99.779  0.00  0.00     0.092 C 
ATOM    106  O2  BDP d 220      30.376 -11.625  97.635  0.00  0.00    -0.388 OA
ATOM    107  O6B BDP d 220      25.790 -10.244 101.475  0.00  0.00    -0.646 OA
ATOM    108  C2  BDP d 220      29.503 -11.149  98.635  0.00  0.00     0.110 C 
ATOM    109  O3  BDP d 220      30.621 -12.182 100.506  0.00  0.00    -0.390 OA
ATOM    110  O1  BDP d 220      28.327  -9.737  97.092  0.00  0.00    -0.348 OA
ATOM    111  O6A BDP d 220      24.844 -12.105 100.726  0.00  0.00    -0.646 OA
ATOM    112  C4  BDP d 220      28.252 -11.831 100.726  0.00  0.00     0.103 C 
ATOM    113  H   BDP d 220      26.791 -12.430  99.311  0.00  0.00     0.104 H 
ATOM    114  H   BDP d 220      27.772 -11.658  97.462  0.00  0.00     0.133 H 
ATOM    115  H   BDP d 220      29.220 -13.130  99.352  0.00  0.00     0.091 H 
ATOM    116  H   BDP d 220      30.430 -10.975  96.917  0.00  0.00     0.210 HD
ATOM    117  H   BDP d 220      29.879 -10.248  99.073  0.00  0.00     0.094 H 
ATOM    118  H   BDP d 220      30.780 -11.304 100.889  0.00  0.00     0.210 HD
ATOM    119  H   BDP d 220      28.550 -11.016 101.352  0.00  0.00     0.092 H 
ATOM    120  OSC ASG d 219      29.301  -5.180  95.613  0.00  0.00    -0.572 OA
ATOM    121  C5  ASG d 219      25.951  -8.262  94.680  0.00  0.00     0.090 C 
ATOM    122  C3  ASG d 219      27.410  -9.736  96.047  0.00  0.00     0.094 C 
ATOM    123  C6  ASG d 219      25.253  -6.870  94.508  0.00  0.00     0.043 C 
ATOM    124  C7  ASG d 219      29.938 -12.031  94.457  0.00  0.00     0.214 C 
ATOM    125  C4  ASG d 219      27.024  -8.285  95.803  0.00  0.00     0.114 C 
ATOM    126  S   ASG d 219      28.294  -5.992  96.294  0.00  0.00     0.252 S 
ATOM    127  C8  ASG d 219      30.435 -13.490  94.504  0.00  0.00    -0.003 C 
ATOM    128  O7  ASG d 219      30.615 -11.194  93.974  0.00  0.00    -0.274 OA
ATOM    129  O6  ASG d 219      24.392  -6.671  93.396  0.00  0.00    -0.398 OA
ATOM    130  OSB ASG d 219      27.059  -5.211  96.298  0.00  0.00    -0.572 OA
ATOM    131  O1  ASG d 219      27.695 -10.628  92.339  0.00  0.00    -0.348 OA
ATOM    132  O4  ASG d 219      28.105  -7.425  95.482  0.00  0.00    -0.246 OA
ATOM    133  OSA ASG d 219      28.715  -6.341  97.653  0.00  0.00    -0.572 OA
ATOM    134  O5  ASG d 219      26.632  -8.733  93.455  0.00  0.00    -0.349 OA
ATOM    135  N   ASG d 219      28.620 -11.675  94.979  0.00  0.00    -0.349 N 
ATOM    136  C2  ASG d 219      28.069 -10.318  94.807  0.00  0.00     0.087 C 
ATOM    137  C1  ASG d 219      27.136 -10.142  93.553  0.00  0.00     0.154 C 
ATOM    138  H   ASG d 219      25.134  -8.906  94.931  0.00  0.00     0.090 H 
ATOM    139  H   ASG d 219      26.545 -10.323  96.278  0.00  0.00     0.091 H 
ATOM    140  H   ASG d 219      26.028  -6.135  94.441  0.00  0.00     0.078 H 
ATOM    141  H   ASG d 219      24.604  -6.800  95.355  0.00  0.00     0.078 H 
ATOM    142  H   ASG d 219      26.645  -7.897  96.725  0.00  0.00     0.093 H 
ATOM    143  H   ASG d 219      29.694 -14.104  94.973  0.00  0.00     0.040 H 
ATOM    144  H   ASG d 219      31.346 -13.538  95.064  0.00  0.00     0.040 H 
ATOM    145  H   ASG d 219      30.610 -13.840  93.509  0.00  0.00     0.040 H 
ATOM    146  H   ASG d 219      24.907  -6.720  92.575  0.00  0.00     0.209 HD
ATOM    147  H   ASG d 219      28.090 -12.355  95.454  0.00  0.00     0.163 HD
ATOM    148  H   ASG d 219      28.952  -9.742  94.625  0.00  0.00     0.084 H 
ATOM    149  H   ASG d 219      26.289 -10.776  93.711  0.00  0.00     0.132 H 
ENDROOT
TORSDOF 38
ENDMDL
MODEL 27
REMARK VINA RESULT:      -6.7      4.574     15.575
REMARK  0 active torsions:
REMARK  status: ('A' for Active; 'I' for Inactive)
REMARK       I    between atoms: C6_2  and  C5_55 
REMARK       I    between atoms: O4_3  and  C4_83 
REMARK       I    between atoms: O4_3  and  S_75 
REMARK       I    between atoms: C6_4  and  C5_67 
REMARK       I    between atoms: O4_5  and  C4_61 
REMARK       I    between atoms: O4_5  and  S_71 
REMARK       I    between atoms: O3_6  and  C3_32 
REMARK       I    between atoms: C1_8  and  O1_30 
REMARK       I    between atoms: C3_12  and  O3_62 
REMARK       I    between atoms: C5_13  and  C6_25 
REMARK       I    between atoms: O1_14  and  C4_39 
REMARK       I    between atoms: O1_14  and  C1_23 
REMARK       I    between atoms: C5_15  and  C6_27 
REMARK       I    between atoms: C5_18  and  C6_44 
REMARK       I    between atoms: C3_19  and  O1_82 
REMARK       I    between atoms: C2_20  and  N_89 
REMARK       I    between atoms: C2_21  and  O2_80 
REMARK       I    between atoms: C1_24  and  O1_45 
REMARK       I    between atoms: C6_25  and  O6_48 
REMARK       I    between atoms: C6_27  and  O6_77 
REMARK       I    between atoms: C7_28  and  C8_35 
REMARK       I    between atoms: C7_28  and  N_70 
REMARK       I    between atoms: O1_30  and  C3_43 
REMARK       I    between atoms: C4_33  and  O4_53 
REMARK       I    between atoms: S_34  and  O4_53 
REMARK       I    between atoms: O2_40  and  C2_87 
REMARK       I    between atoms: C7_41  and  C8_81 
REMARK       I    between atoms: C7_41  and  N_89 
REMARK       I    between atoms: O6_42  and  C6_88 
REMARK       I    between atoms: O1_45  and  C4_90 
REMARK       I    between atoms: C7_46  and  C8_69 
REMARK       I    between atoms: C7_46  and  N_85 
REMARK       I    between atoms: C2_47  and  N_85 
REMARK       I    between atoms: O1_50  and  C4_73 
REMARK       I    between atoms: O1_50  and  C1_76 
REMARK       I    between atoms: C1_52  and  O1_82 
REMARK       I    between atoms: C3_54  and  O3_72 
REMARK       I    between atoms: C5_57  and  C6_88 
REMARK       I    between atoms: O1_59  and  C1_78 
REMARK       I    between atoms: O2_63  and  C2_68 
REMARK       I    between atoms: N_70  and  C2_74 
ROOT
ATOM      1  O6B BDP d 216      27.742 -17.106  82.611  0.00  0.00    -0.646 OA
ATOM      2  C6  BDP d 216      28.719 -16.530  82.086  0.00  0.00     0.206 C 
ATOM      3  C3  BDP d 216      26.968 -14.273  79.476  0.00  0.00     0.092 C 
ATOM      4  O6A BDP d 216      29.864 -16.510  82.585  0.00  0.00    -0.646 OA
ATOM      5  O5  BDP d 216      28.312 -16.775  79.739  0.00  0.00    -0.340 OA
ATOM      6  C4  BDP d 216      27.303 -14.867  80.843  0.00  0.00     0.103 C 
ATOM      7  O2  BDP d 216      26.812 -14.775  77.128  0.00  0.00    -0.388 OA
ATOM      8  C5  BDP d 216      28.504 -15.811  80.757  0.00  0.00     0.152 C 
ATOM      9  O1  BDP d 216      28.179 -17.185  77.456  0.00  0.00    -0.368 OA
ATOM     10  O3  BDP d 216      25.715 -13.623  79.534  0.00  0.00    -0.390 OA
ATOM     11  C1  BDP d 216      28.212 -16.189  78.459  0.00  0.00     0.156 C 
ATOM     12  C2  BDP d 216      26.935 -15.360  78.404  0.00  0.00     0.110 C 
ATOM     13  H   BDP d 216      27.728 -13.567  79.218  0.00  0.00     0.091 H 
ATOM     14  H   BDP d 216      26.482 -15.453  81.200  0.00  0.00     0.092 H 
ATOM     15  H   BDP d 216      25.999 -14.247  77.091  0.00  0.00     0.210 HD
ATOM     16  H   BDP d 216      29.366 -15.220  80.528  0.00  0.00     0.104 H 
ATOM     17  H   BDP d 216      28.994 -17.709  77.494  0.00  0.00     0.212 HD
ATOM     18  H   BDP d 216      25.028 -14.266  79.769  0.00  0.00     0.210 HD
ATOM     19  H   BDP d 216      29.065 -15.567  78.284  0.00  0.00     0.133 H 
ATOM     20  H   BDP d 216      26.093 -15.995  78.586  0.00  0.00     0.094 H 
ATOM     21  O4  ASG d 217      24.908 -11.159  84.176  0.00  0.00    -0.246 OA
ATOM     22  O7  ASG d 217      29.404 -11.343  83.652  0.00  0.00    -0.274 OA
ATOM     23  O1  ASG d 217      27.545 -13.818  81.713  0.00  0.00    -0.348 OA
ATOM     24  C5  ASG d 217      24.286 -13.451  83.560  0.00  0.00     0.090 C 
ATOM     25  C1  ASG d 217      26.636 -13.788  82.802  0.00  0.00     0.154 C 
ATOM     26  C6  ASG d 217      22.792 -13.237  83.118  0.00  0.00     0.043 C 
ATOM     27  OSA ASG d 217      23.939 -10.267  86.350  0.00  0.00    -0.572 OA
ATOM     28  C3  ASG d 217      26.136 -13.029  85.173  0.00  0.00     0.094 C 
ATOM     29  C7  ASG d 217      29.636 -12.415  84.091  0.00  0.00     0.214 C 
ATOM     30  C2  ASG d 217      27.157 -12.994  84.043  0.00  0.00     0.087 C 
ATOM     31  O5  ASG d 217      25.246 -13.365  82.438  0.00  0.00    -0.349 OA
ATOM     32  OSB ASG d 217      22.811  -9.757  84.290  0.00  0.00    -0.572 OA
ATOM     33  OSC ASG d 217      24.918  -8.735  84.824  0.00  0.00    -0.572 OA
ATOM     34  C8  ASG d 217      31.070 -12.761  84.532  0.00  0.00    -0.003 C 
ATOM     35  S   ASG d 217      24.106  -9.939  84.934  0.00  0.00     0.252 S 
ATOM     36  O6  ASG d 217      22.042 -14.375  82.717  0.00  0.00    -0.398 OA
ATOM     37  C4  ASG d 217      24.801 -12.484  84.669  0.00  0.00     0.114 C 
ATOM     38  N   ASG d 217      28.543 -13.328  84.410  0.00  0.00    -0.349 N 
ATOM     39  H   ASG d 217      24.249 -14.443  83.959  0.00  0.00     0.090 H 
ATOM     40  H   ASG d 217      26.575 -14.817  83.091  0.00  0.00     0.132 H 
ATOM     41  H   ASG d 217      22.799 -12.554  82.293  0.00  0.00     0.078 H 
ATOM     42  H   ASG d 217      22.300 -12.893  84.004  0.00  0.00     0.078 H 
ATOM     43  H   ASG d 217      26.096 -14.030  85.546  0.00  0.00     0.091 H 
ATOM     44  H   ASG d 217      27.242 -11.961  83.776  0.00  0.00     0.084 H 
ATOM     45  H   ASG d 217      31.737 -11.986  84.216  0.00  0.00     0.040 H 
ATOM     46  H   ASG d 217      31.366 -13.688  84.088  0.00  0.00     0.040 H 
ATOM     47  H   ASG d 217      31.104 -12.848  85.599  0.00  0.00     0.040 H 
ATOM     48  H   ASG d 217      22.429 -14.749  81.910  0.00  0.00     0.209 HD
ATOM     49  H   ASG d 217      24.109 -12.436  85.485  0.00  0.00     0.093 H 
ATOM     50  H   ASG d 217      28.734 -14.175  84.873  0.00  0.00     0.163 HD
ATOM     51  C6  BDP d 218      25.476 -14.520  90.039  0.00  0.00     0.206 C 
ATOM     52  O3  BDP d 218      28.841 -10.942  90.110  0.00  0.00    -0.390 OA
ATOM     53  C1  BDP d 218      27.033 -12.573  87.295  0.00  0.00     0.160 C 
ATOM     54  C2  BDP d 218      27.693 -11.452  88.092  0.00  0.00     0.110 C 
ATOM     55  O6A BDP d 218      25.587 -15.760  90.158  0.00  0.00    -0.646 OA
ATOM     56  O1  BDP d 218      26.479 -12.051  86.102  0.00  0.00    -0.348 OA
ATOM     57  C3  BDP d 218      28.300 -12.008  89.368  0.00  0.00     0.092 C 
ATOM     58  O5  BDP d 218      26.030 -13.147  88.110  0.00  0.00    -0.340 OA
ATOM     59  C5  BDP d 218      26.562 -13.769  89.269  0.00  0.00     0.152 C 
ATOM     60  C4  BDP d 218      27.223 -12.731  90.170  0.00  0.00     0.103 C 
ATOM     61  O2  BDP d 218      28.701 -10.820  87.334  0.00  0.00    -0.388 OA
ATOM     62  O6B BDP d 218      24.536 -13.858  90.532  0.00  0.00    -0.646 OA
ATOM     63  H   BDP d 218      29.523 -10.496  89.583  0.00  0.00     0.210 HD
ATOM     64  H   BDP d 218      27.749 -13.320  87.021  0.00  0.00     0.133 H 
ATOM     65  H   BDP d 218      26.941 -10.731  88.335  0.00  0.00     0.094 H 
ATOM     66  H   BDP d 218      29.077 -12.707  89.138  0.00  0.00     0.091 H 
ATOM     67  H   BDP d 218      27.298 -14.478  88.954  0.00  0.00     0.104 H 
ATOM     68  H   BDP d 218      26.582 -11.987  90.595  0.00  0.00     0.092 H 
ATOM     69  H   BDP d 218      29.389 -11.465  87.109  0.00  0.00     0.210 HD
ATOM     70  O4  ASG d 221      22.589 -22.631  99.204  0.00  0.00    -0.249 OA
ATOM     71  OSB ASG d 221      21.679 -24.379  97.587  0.00  0.00    -0.572 OA
ATOM     72  OSC ASG d 221      23.123 -25.125  99.338  0.00  0.00    -0.572 OA
ATOM     73  C2  ASG d 221      23.054 -19.944  99.716  0.00  0.00     0.062 C 
ATOM     74  C1  ASG d 221      24.467 -19.931  99.039  0.00  0.00     0.151 C 
ATOM     75  C3  ASG d 221      23.007 -20.924 100.869  0.00  0.00    -0.014 C 
ATOM     76  O7  ASG d 221      20.742 -19.351 101.325  0.00  0.00    -0.274 OA
ATOM     77  C7  ASG d 221      21.456 -18.448 101.050  0.00  0.00     0.214 C 
ATOM     78  O6  ASG d 221      27.032 -23.504  99.639  0.00  0.00    -0.398 OA
ATOM     79  O1  ASG d 221      24.522 -19.189  97.824  0.00  0.00    -0.348 OA
ATOM     80  C5  ASG d 221      24.881 -22.177 100.111  0.00  0.00     0.088 C 
ATOM     81  C4  ASG d 221      23.353 -22.299 100.352  0.00  0.00     0.089 C 
ATOM     82  OSA ASG d 221      23.997 -23.886  97.490  0.00  0.00    -0.572 OA
ATOM     83  S   ASG d 221      22.854 -24.046  98.387  0.00  0.00     0.252 S 
ATOM     84  O5  ASG d 221      25.061 -21.307  98.929  0.00  0.00    -0.349 OA
ATOM     85  C8  ASG d 221      21.112 -17.035 101.550  0.00  0.00    -0.003 C 
ATOM     86  C6  ASG d 221      25.699 -23.520 100.130  0.00  0.00     0.043 C 
ATOM     87  N   ASG d 221      22.526 -18.613 100.066  0.00  0.00    -0.352 N 
ATOM     88  H   ASG d 221      22.375 -20.293  98.967  0.00  0.00     0.080 H 
ATOM     89  H   ASG d 221      25.101 -19.386  99.706  0.00  0.00     0.132 H 
ATOM     90  H   ASG d 221      22.024 -20.936 101.291  0.00  0.00     0.040 H 
ATOM     91  H   ASG d 221      23.708 -20.633 101.623  0.00  0.00     0.040 H 
ATOM     92  H   ASG d 221      27.413 -24.393  99.710  0.00  0.00     0.209 HD
ATOM     93  H   ASG d 221      25.342 -21.716 100.960  0.00  0.00     0.090 H 
ATOM     94  H   ASG d 221      23.120 -23.105 101.016  0.00  0.00     0.089 H 
ATOM     95  H   ASG d 221      20.313 -17.093 102.260  0.00  0.00     0.040 H 
ATOM     96  H   ASG d 221      20.812 -16.426 100.723  0.00  0.00     0.040 H 
ATOM     97  H   ASG d 221      21.973 -16.603 102.016  0.00  0.00     0.040 H 
ATOM     98  H   ASG d 221      25.740 -23.852 101.146  0.00  0.00     0.078 H 
ATOM     99  H   ASG d 221      25.174 -24.158  99.450  0.00  0.00     0.078 H 
ATOM    100  H   ASG d 221      22.902 -17.816  99.628  0.00  0.00     0.163 HD
ATOM    101  O5  BDP d 220      26.020 -16.096  97.003  0.00  0.00    -0.340 OA
ATOM    102  C5  BDP d 220      24.999 -17.040  97.255  0.00  0.00     0.152 C 
ATOM    103  C6  BDP d 220      23.998 -16.485  98.264  0.00  0.00     0.206 C 
ATOM    104  C1  BDP d 220      26.768 -16.443  95.857  0.00  0.00     0.160 C 
ATOM    105  C3  BDP d 220      26.554 -18.869  96.643  0.00  0.00     0.092 C 
ATOM    106  O2  BDP d 220      28.129 -18.183  94.945  0.00  0.00    -0.388 OA
ATOM    107  O6B BDP d 220      24.428 -16.108  99.381  0.00  0.00    -0.646 OA
ATOM    108  C2  BDP d 220      27.483 -17.763  96.127  0.00  0.00     0.110 C 
ATOM    109  O3  BDP d 220      27.328 -19.939  97.158  0.00  0.00    -0.390 OA
ATOM    110  O1  BDP d 220      27.735 -15.442  95.570  0.00  0.00    -0.348 OA
ATOM    111  O6A BDP d 220      22.791 -16.437  97.920  0.00  0.00    -0.646 OA
ATOM    112  C4  BDP d 220      25.621 -18.347  97.737  0.00  0.00     0.103 C 
ATOM    113  H   BDP d 220      24.462 -17.238  96.351  0.00  0.00     0.104 H 
ATOM    114  H   BDP d 220      26.108 -16.532  95.019  0.00  0.00     0.133 H 
ATOM    115  H   BDP d 220      25.955 -19.209  95.825  0.00  0.00     0.091 H 
ATOM    116  H   BDP d 220      28.713 -17.477  94.628  0.00  0.00     0.210 HD
ATOM    117  H   BDP d 220      28.194 -17.586  96.908  0.00  0.00     0.094 H 
ATOM    118  H   BDP d 220      27.867 -19.620  97.899  0.00  0.00     0.210 HD
ATOM    119  H   BDP d 220      26.176 -18.260  98.648  0.00  0.00     0.092 H 
ATOM    120  OSC ASG d 219      31.464 -12.388  96.385  0.00  0.00    -0.572 OA
ATOM    121  C5  ASG d 219      27.285 -11.970  94.398  0.00  0.00     0.090 C 
ATOM    122  C3  ASG d 219      27.260 -14.429  94.745  0.00  0.00     0.094 C 
ATOM    123  C6  ASG d 219      27.578 -10.546  94.983  0.00  0.00     0.043 C 
ATOM    124  C7  ASG d 219      28.296 -16.814  92.021  0.00  0.00     0.214 C 
ATOM    125  C4  ASG d 219      27.850 -13.127  95.267  0.00  0.00     0.114 C 
ATOM    126  S   ASG d 219      30.049 -12.601  96.681  0.00  0.00     0.252 S 
ATOM    127  C8  ASG d 219      27.836 -18.105  91.314  0.00  0.00    -0.003 C 
ATOM    128  O7  ASG d 219      29.421 -16.469  91.941  0.00  0.00    -0.274 OA
ATOM    129  O6  ASG d 219      27.277  -9.407  94.190  0.00  0.00    -0.398 OA
ATOM    130  OSB ASG d 219      29.528 -11.327  97.175  0.00  0.00    -0.572 OA
ATOM    131  O1  ASG d 219      27.840 -13.598  91.058  0.00  0.00    -0.348 OA
ATOM    132  O4  ASG d 219      29.266 -13.083  95.301  0.00  0.00    -0.246 OA
ATOM    133  OSA ASG d 219      29.860 -13.676  97.658  0.00  0.00    -0.572 OA
ATOM    134  O5  ASG d 219      27.835 -12.171  93.041  0.00  0.00    -0.349 OA
ATOM    135  N   ASG d 219      27.345 -15.995  92.769  0.00  0.00    -0.349 N 
ATOM    136  C2  ASG d 219      27.734 -14.685  93.323  0.00  0.00     0.087 C 
ATOM    137  C1  ASG d 219      27.397 -13.456  92.401  0.00  0.00     0.154 C 
ATOM    138  H   ASG d 219      26.215 -12.002  94.382  0.00  0.00     0.090 H 
ATOM    139  H   ASG d 219      26.191 -14.387  94.744  0.00  0.00     0.091 H 
ATOM    140  H   ASG d 219      28.623 -10.507  95.207  0.00  0.00     0.078 H 
ATOM    141  H   ASG d 219      26.911 -10.466  95.815  0.00  0.00     0.078 H 
ATOM    142  H   ASG d 219      27.560 -13.034  96.293  0.00  0.00     0.093 H 
ATOM    143  H   ASG d 219      26.793 -18.259  91.495  0.00  0.00     0.040 H 
ATOM    144  H   ASG d 219      28.391 -18.937  91.695  0.00  0.00     0.040 H 
ATOM    145  H   ASG d 219      28.005 -18.015  90.262  0.00  0.00     0.040 H 
ATOM    146  H   ASG d 219      27.846  -9.402  93.403  0.00  0.00     0.209 HD
ATOM    147  H   ASG d 219      26.427 -16.324  92.905  0.00  0.00     0.163 HD
ATOM    148  H   ASG d 219      28.800 -14.768  93.360  0.00  0.00     0.084 H 
ATOM    149  H   ASG d 219      26.331 -13.424  92.312  0.00  0.00     0.132 H 
ENDROOT
TORSDOF 38
ENDMDL
MODEL 28
REMARK VINA RESULT:      -6.6      4.244      7.434
REMARK  0 active torsions:
REMARK  status: ('A' for Active; 'I' for Inactive)
REMARK       I    between atoms: C6_2  and  C5_55 
REMARK       I    between atoms: O4_3  and  C4_83 
REMARK       I    between atoms: O4_3  and  S_75 
REMARK       I    between atoms: C6_4  and  C5_67 
REMARK       I    between atoms: O4_5  and  C4_61 
REMARK       I    between atoms: O4_5  and  S_71 
REMARK       I    between atoms: O3_6  and  C3_32 
REMARK       I    between atoms: C1_8  and  O1_30 
REMARK       I    between atoms: C3_12  and  O3_62 
REMARK       I    between atoms: C5_13  and  C6_25 
REMARK       I    between atoms: O1_14  and  C4_39 
REMARK       I    between atoms: O1_14  and  C1_23 
REMARK       I    between atoms: C5_15  and  C6_27 
REMARK       I    between atoms: C5_18  and  C6_44 
REMARK       I    between atoms: C3_19  and  O1_82 
REMARK       I    between atoms: C2_20  and  N_89 
REMARK       I    between atoms: C2_21  and  O2_80 
REMARK       I    between atoms: C1_24  and  O1_45 
REMARK       I    between atoms: C6_25  and  O6_48 
REMARK       I    between atoms: C6_27  and  O6_77 
REMARK       I    between atoms: C7_28  and  C8_35 
REMARK       I    between atoms: C7_28  and  N_70 
REMARK       I    between atoms: O1_30  and  C3_43 
REMARK       I    between atoms: C4_33  and  O4_53 
REMARK       I    between atoms: S_34  and  O4_53 
REMARK       I    between atoms: O2_40  and  C2_87 
REMARK       I    between atoms: C7_41  and  C8_81 
REMARK       I    between atoms: C7_41  and  N_89 
REMARK       I    between atoms: O6_42  and  C6_88 
REMARK       I    between atoms: O1_45  and  C4_90 
REMARK       I    between atoms: C7_46  and  C8_69 
REMARK       I    between atoms: C7_46  and  N_85 
REMARK       I    between atoms: C2_47  and  N_85 
REMARK       I    between atoms: O1_50  and  C4_73 
REMARK       I    between atoms: O1_50  and  C1_76 
REMARK       I    between atoms: C1_52  and  O1_82 
REMARK       I    between atoms: C3_54  and  O3_72 
REMARK       I    between atoms: C5_57  and  C6_88 
REMARK       I    between atoms: O1_59  and  C1_78 
REMARK       I    between atoms: O2_63  and  C2_68 
REMARK       I    between atoms: N_70  and  C2_74 
ROOT
ATOM      1  O6B BDP d 216      23.617  -7.697  94.558  0.00  0.00    -0.646 OA
ATOM      2  C6  BDP d 216      24.312  -6.683  94.784  0.00  0.00     0.206 C 
ATOM      3  C3  BDP d 216      25.416  -7.306  98.440  0.00  0.00     0.092 C 
ATOM      4  O6A BDP d 216      24.743  -5.924  93.890  0.00  0.00    -0.646 OA
ATOM      5  O5  BDP d 216      23.482  -5.897  96.888  0.00  0.00    -0.340 OA
ATOM      6  C4  BDP d 216      25.234  -7.572  96.946  0.00  0.00     0.103 C 
ATOM      7  O2  BDP d 216      24.413  -6.263 100.362  0.00  0.00    -0.388 OA
ATOM      8  C5  BDP d 216      24.652  -6.349  96.234  0.00  0.00     0.152 C 
ATOM      9  O1  BDP d 216      22.585  -4.878  98.774  0.00  0.00    -0.368 OA
ATOM     10  O3  BDP d 216      25.702  -8.518  99.107  0.00  0.00    -0.390 OA
ATOM     11  C1  BDP d 216      23.739  -5.466  98.208  0.00  0.00     0.156 C 
ATOM     12  C2  BDP d 216      24.162  -6.672  99.037  0.00  0.00     0.110 C 
ATOM     13  H   BDP d 216      26.232  -6.625  98.566  0.00  0.00     0.091 H 
ATOM     14  H   BDP d 216      24.536  -8.369  96.798  0.00  0.00     0.092 H 
ATOM     15  H   BDP d 216      24.682  -7.029 100.891  0.00  0.00     0.210 HD
ATOM     16  H   BDP d 216      25.393  -5.577  96.257  0.00  0.00     0.104 H 
ATOM     17  H   BDP d 216      22.319  -4.111  98.243  0.00  0.00     0.212 HD
ATOM     18  H   BDP d 216      24.961  -9.133  98.991  0.00  0.00     0.210 HD
ATOM     19  H   BDP d 216      24.517  -4.732  98.197  0.00  0.00     0.133 H 
ATOM     20  H   BDP d 216      23.376  -7.398  99.032  0.00  0.00     0.094 H 
ATOM     21  O4  ASG d 217      28.769 -11.763  96.221  0.00  0.00    -0.246 OA
ATOM     22  O7  ASG d 217      29.699  -7.577  94.759  0.00  0.00    -0.274 OA
ATOM     23  O1  ASG d 217      26.466  -7.923  96.424  0.00  0.00    -0.348 OA
ATOM     24  C5  ASG d 217      26.318 -11.682  96.299  0.00  0.00     0.090 C 
ATOM     25  C1  ASG d 217      26.477  -9.231  95.875  0.00  0.00     0.154 C 
ATOM     26  C6  ASG d 217      26.025 -12.805  97.359  0.00  0.00     0.043 C 
ATOM     27  OSA ASG d 217      29.800 -13.760  95.032  0.00  0.00    -0.572 OA
ATOM     28  C3  ASG d 217      27.551 -10.893  94.284  0.00  0.00     0.094 C 
ATOM     29  C7  ASG d 217      28.846  -7.426  93.957  0.00  0.00     0.214 C 
ATOM     30  C2  ASG d 217      27.623  -9.477  94.841  0.00  0.00     0.087 C 
ATOM     31  O5  ASG d 217      26.424 -10.330  96.890  0.00  0.00    -0.349 OA
ATOM     32  OSB ASG d 217      29.545 -13.846  97.420  0.00  0.00    -0.572 OA
ATOM     33  OSC ASG d 217      31.186 -12.411  96.409  0.00  0.00    -0.572 OA
ATOM     34  C8  ASG d 217      29.000  -6.336  92.881  0.00  0.00    -0.003 C 
ATOM     35  S   ASG d 217      29.858 -12.995  96.278  0.00  0.00     0.252 S 
ATOM     36  O6  ASG d 217      24.669 -13.104  97.662  0.00  0.00    -0.398 OA
ATOM     37  C4  ASG d 217      27.598 -11.896  95.434  0.00  0.00     0.114 C 
ATOM     38  N   ASG d 217      27.759  -8.395  93.852  0.00  0.00    -0.349 N 
ATOM     39  H   ASG d 217      25.459 -11.758  95.666  0.00  0.00     0.090 H 
ATOM     40  H   ASG d 217      25.554  -9.271  95.335  0.00  0.00     0.132 H 
ATOM     41  H   ASG d 217      26.496 -12.509  98.274  0.00  0.00     0.078 H 
ATOM     42  H   ASG d 217      26.400 -13.700  96.909  0.00  0.00     0.078 H 
ATOM     43  H   ASG d 217      26.676 -10.958  93.671  0.00  0.00     0.091 H 
ATOM     44  H   ASG d 217      28.561  -9.427  95.354  0.00  0.00     0.084 H 
ATOM     45  H   ASG d 217      29.842  -5.720  93.116  0.00  0.00     0.040 H 
ATOM     46  H   ASG d 217      28.116  -5.735  92.853  0.00  0.00     0.040 H 
ATOM     47  H   ASG d 217      29.150  -6.796  91.926  0.00  0.00     0.040 H 
ATOM     48  H   ASG d 217      24.253 -12.332  98.078  0.00  0.00     0.209 HD
ATOM     49  H   ASG d 217      27.626 -12.889  95.035  0.00  0.00     0.093 H 
ATOM     50  H   ASG d 217      27.111  -8.324  93.115  0.00  0.00     0.163 HD
ATOM     51  C6  BDP d 218      26.987 -13.541  89.924  0.00  0.00     0.206 C 
ATOM     52  O3  BDP d 218      31.272 -11.166  89.580  0.00  0.00    -0.390 OA
ATOM     53  C1  BDP d 218      28.664 -11.177  92.235  0.00  0.00     0.160 C 
ATOM     54  C2  BDP d 218      30.062 -11.141  91.625  0.00  0.00     0.110 C 
ATOM     55  O6A BDP d 218      25.875 -13.320  89.393  0.00  0.00    -0.646 OA
ATOM     56  O1  BDP d 218      28.756 -11.174  93.647  0.00  0.00    -0.348 OA
ATOM     57  C3  BDP d 218      29.970 -11.132  90.110  0.00  0.00     0.092 C 
ATOM     58  O5  BDP d 218      28.024 -12.351  91.773  0.00  0.00    -0.340 OA
ATOM     59  C5  BDP d 218      27.824 -12.343  90.368  0.00  0.00     0.152 C 
ATOM     60  C4  BDP d 218      29.167 -12.342  89.643  0.00  0.00     0.103 C 
ATOM     61  O2  BDP d 218      30.770  -9.999  92.055  0.00  0.00    -0.388 OA
ATOM     62  O6B BDP d 218      27.458 -14.688  90.093  0.00  0.00    -0.646 OA
ATOM     63  H   BDP d 218      31.766 -10.389  89.888  0.00  0.00     0.210 HD
ATOM     64  H   BDP d 218      28.098 -10.317  91.944  0.00  0.00     0.133 H 
ATOM     65  H   BDP d 218      30.588 -12.015  91.949  0.00  0.00     0.094 H 
ATOM     66  H   BDP d 218      29.475 -10.247  89.771  0.00  0.00     0.091 H 
ATOM     67  H   BDP d 218      27.291 -11.451  90.115  0.00  0.00     0.104 H 
ATOM     68  H   BDP d 218      29.782 -13.208  89.773  0.00  0.00     0.092 H 
ATOM     69  H   BDP d 218      30.302  -9.200  91.765  0.00  0.00     0.210 HD
ATOM     70  O4  ASG d 221      20.495 -19.191  80.755  0.00  0.00    -0.249 OA
ATOM     71  OSB ASG d 221      18.270 -18.969  81.977  0.00  0.00    -0.572 OA
ATOM     72  OSC ASG d 221      18.323 -18.427  79.650  0.00  0.00    -0.572 OA
ATOM     73  C2  ASG d 221      23.254 -19.418  80.953  0.00  0.00     0.062 C 
ATOM     74  C1  ASG d 221      23.506 -17.871  80.955  0.00  0.00     0.151 C 
ATOM     75  C3  ASG d 221      22.560 -19.859  79.682  0.00  0.00    -0.014 C 
ATOM     76  O7  ASG d 221      23.524 -22.273  80.710  0.00  0.00    -0.274 OA
ATOM     77  C7  ASG d 221      24.507 -21.653  80.931  0.00  0.00     0.214 C 
ATOM     78  O6  ASG d 221      20.964 -15.403  78.281  0.00  0.00    -0.398 OA
ATOM     79  O1  ASG d 221      23.965 -17.359  82.203  0.00  0.00    -0.348 OA
ATOM     80  C5  ASG d 221      21.730 -17.690  79.172  0.00  0.00     0.088 C 
ATOM     81  C4  ASG d 221      21.253 -19.116  79.559  0.00  0.00     0.089 C 
ATOM     82  OSA ASG d 221      19.337 -16.977  81.257  0.00  0.00    -0.572 OA
ATOM     83  S   ASG d 221      19.067 -18.371  80.909  0.00  0.00     0.252 S 
ATOM     84  O5  ASG d 221      22.349 -17.103  80.380  0.00  0.00    -0.349 OA
ATOM     85  C8  ASG d 221      25.847 -22.393  81.079  0.00  0.00    -0.003 C 
ATOM     86  C6  ASG d 221      20.691 -16.792  78.404  0.00  0.00     0.043 C 
ATOM     87  N   ASG d 221      24.435 -20.235  81.282  0.00  0.00    -0.352 N 
ATOM     88  H   ASG d 221      22.586 -19.605  81.768  0.00  0.00     0.080 H 
ATOM     89  H   ASG d 221      24.329 -17.713  80.290  0.00  0.00     0.132 H 
ATOM     90  H   ASG d 221      22.372 -20.912  79.722  0.00  0.00     0.040 H 
ATOM     91  H   ASG d 221      23.180 -19.646  78.836  0.00  0.00     0.040 H 
ATOM     92  H   ASG d 221      20.246 -14.975  77.789  0.00  0.00     0.209 HD
ATOM     93  H   ASG d 221      22.465 -17.755  78.397  0.00  0.00     0.090 H 
ATOM     94  H   ASG d 221      20.572 -19.513  78.837  0.00  0.00     0.089 H 
ATOM     95  H   ASG d 221      25.725 -23.414  80.783  0.00  0.00     0.040 H 
ATOM     96  H   ASG d 221      26.166 -22.354  82.100  0.00  0.00     0.040 H 
ATOM     97  H   ASG d 221      26.583 -21.927  80.459  0.00  0.00     0.040 H 
ATOM     98  H   ASG d 221      20.603 -17.186  77.414  0.00  0.00     0.078 H 
ATOM     99  H   ASG d 221      19.809 -16.836  79.007  0.00  0.00     0.078 H 
ATOM    100  H   ASG d 221      25.195 -19.817  81.748  0.00  0.00     0.163 HD
ATOM    101  O5  BDP d 220      27.105 -16.118  83.243  0.00  0.00    -0.340 OA
ATOM    102  C5  BDP d 220      25.994 -16.988  83.157  0.00  0.00     0.152 C 
ATOM    103  C6  BDP d 220      26.457 -18.415  82.876  0.00  0.00     0.206 C 
ATOM    104  C1  BDP d 220      26.742 -14.877  83.810  0.00  0.00     0.160 C 
ATOM    105  C3  BDP d 220      24.567 -15.081  82.476  0.00  0.00     0.092 C 
ATOM    106  O2  BDP d 220      25.282 -13.011  83.494  0.00  0.00    -0.388 OA
ATOM    107  O6B BDP d 220      27.160 -18.622  81.858  0.00  0.00    -0.646 OA
ATOM    108  C2  BDP d 220      25.750 -14.190  82.876  0.00  0.00     0.110 C 
ATOM    109  O3  BDP d 220      23.878 -14.495  81.386  0.00  0.00    -0.390 OA
ATOM    110  O1  BDP d 220      27.883 -14.046  83.966  0.00  0.00    -0.348 OA
ATOM    111  O6A BDP d 220      26.105 -19.310  83.683  0.00  0.00    -0.646 OA
ATOM    112  C4  BDP d 220      25.035 -16.484  82.084  0.00  0.00     0.103 C 
ATOM    113  H   BDP d 220      25.475 -17.001  84.093  0.00  0.00     0.104 H 
ATOM    114  H   BDP d 220      26.304 -15.044  84.773  0.00  0.00     0.133 H 
ATOM    115  H   BDP d 220      23.915 -15.168  83.320  0.00  0.00     0.091 H 
ATOM    116  H   BDP d 220      26.037 -12.456  83.743  0.00  0.00     0.210 HD
ATOM    117  H   BDP d 220      26.270 -13.965  81.969  0.00  0.00     0.094 H 
ATOM    118  H   BDP d 220      24.477 -14.421  80.627  0.00  0.00     0.210 HD
ATOM    119  H   BDP d 220      25.455 -16.443  81.102  0.00  0.00     0.092 H 
ATOM    120  OSC ASG d 219      31.930 -11.628  82.673  0.00  0.00    -0.572 OA
ATOM    121  C5  ASG d 219      30.781 -14.390  86.228  0.00  0.00     0.090 C 
ATOM    122  C3  ASG d 219      28.535 -14.218  85.182  0.00  0.00     0.094 C 
ATOM    123  C6  ASG d 219      32.320 -14.617  86.046  0.00  0.00     0.043 C 
ATOM    124  C7  ASG d 219      26.004 -11.687  86.354  0.00  0.00     0.214 C 
ATOM    125  C4  ASG d 219      30.027 -14.139  84.894  0.00  0.00     0.114 C 
ATOM    126  S   ASG d 219      31.410 -12.968  82.938  0.00  0.00     0.252 S 
ATOM    127  C8  ASG d 219      24.518 -11.567  86.751  0.00  0.00    -0.003 C 
ATOM    128  O7  ASG d 219      26.616 -10.721  86.066  0.00  0.00    -0.274 OA
ATOM    129  O6  ASG d 219      33.145 -14.670  87.201  0.00  0.00    -0.398 OA
ATOM    130  OSB ASG d 219      32.570 -13.838  83.121  0.00  0.00    -0.572 OA
ATOM    131  O1  ASG d 219      28.704 -12.098  88.361  0.00  0.00    -0.348 OA
ATOM    132  O4  ASG d 219      30.458 -12.929  84.294  0.00  0.00    -0.246 OA
ATOM    133  OSA ASG d 219      30.553 -13.437  81.846  0.00  0.00    -0.572 OA
ATOM    134  O5  ASG d 219      30.457 -13.243  87.103  0.00  0.00    -0.349 OA
ATOM    135  N   ASG d 219      26.673 -12.986  86.358  0.00  0.00    -0.349 N 
ATOM    136  C2  ASG d 219      28.126 -13.099  86.127  0.00  0.00     0.087 C 
ATOM    137  C1  ASG d 219      28.998 -13.136  87.435  0.00  0.00     0.154 C 
ATOM    138  H   ASG d 219      30.459 -15.308  86.673  0.00  0.00     0.090 H 
ATOM    139  H   ASG d 219      28.287 -15.154  85.637  0.00  0.00     0.091 H 
ATOM    140  H   ASG d 219      32.686 -13.818  85.435  0.00  0.00     0.078 H 
ATOM    141  H   ASG d 219      32.390 -15.601  85.632  0.00  0.00     0.078 H 
ATOM    142  H   ASG d 219      30.250 -14.888  84.163  0.00  0.00     0.093 H 
ATOM    143  H   ASG d 219      24.130 -12.539  86.979  0.00  0.00     0.040 H 
ATOM    144  H   ASG d 219      23.966 -11.143  85.940  0.00  0.00     0.040 H 
ATOM    145  H   ASG d 219      24.429 -10.938  87.612  0.00  0.00     0.040 H 
ATOM    146  H   ASG d 219      33.139 -13.806  87.643  0.00  0.00     0.209 HD
ATOM    147  H   ASG d 219      26.145 -13.801  86.518  0.00  0.00     0.163 HD
ATOM    148  H   ASG d 219      28.343 -12.177  85.630  0.00  0.00     0.084 H 
ATOM    149  H   ASG d 219      28.722 -14.027  87.961  0.00  0.00     0.132 H 
ENDROOT
TORSDOF 38
ENDMDL
MODEL 29
REMARK VINA RESULT:      -6.6      2.830      3.835
REMARK  0 active torsions:
REMARK  status: ('A' for Active; 'I' for Inactive)
REMARK       I    between atoms: C6_2  and  C5_55 
REMARK       I    between atoms: O4_3  and  C4_83 
REMARK       I    between atoms: O4_3  and  S_75 
REMARK       I    between atoms: C6_4  and  C5_67 
REMARK       I    between atoms: O4_5  and  C4_61 
REMARK       I    between atoms: O4_5  and  S_71 
REMARK       I    between atoms: O3_6  and  C3_32 
REMARK       I    between atoms: C1_8  and  O1_30 
REMARK       I    between atoms: C3_12  and  O3_62 
REMARK       I    between atoms: C5_13  and  C6_25 
REMARK       I    between atoms: O1_14  and  C4_39 
REMARK       I    between atoms: O1_14  and  C1_23 
REMARK       I    between atoms: C5_15  and  C6_27 
REMARK       I    between atoms: C5_18  and  C6_44 
REMARK       I    between atoms: C3_19  and  O1_82 
REMARK       I    between atoms: C2_20  and  N_89 
REMARK       I    between atoms: C2_21  and  O2_80 
REMARK       I    between atoms: C1_24  and  O1_45 
REMARK       I    between atoms: C6_25  and  O6_48 
REMARK       I    between atoms: C6_27  and  O6_77 
REMARK       I    between atoms: C7_28  and  C8_35 
REMARK       I    between atoms: C7_28  and  N_70 
REMARK       I    between atoms: O1_30  and  C3_43 
REMARK       I    between atoms: C4_33  and  O4_53 
REMARK       I    between atoms: S_34  and  O4_53 
REMARK       I    between atoms: O2_40  and  C2_87 
REMARK       I    between atoms: C7_41  and  C8_81 
REMARK       I    between atoms: C7_41  and  N_89 
REMARK       I    between atoms: O6_42  and  C6_88 
REMARK       I    between atoms: O1_45  and  C4_90 
REMARK       I    between atoms: C7_46  and  C8_69 
REMARK       I    between atoms: C7_46  and  N_85 
REMARK       I    between atoms: C2_47  and  N_85 
REMARK       I    between atoms: O1_50  and  C4_73 
REMARK       I    between atoms: O1_50  and  C1_76 
REMARK       I    between atoms: C1_52  and  O1_82 
REMARK       I    between atoms: C3_54  and  O3_72 
REMARK       I    between atoms: C5_57  and  C6_88 
REMARK       I    between atoms: O1_59  and  C1_78 
REMARK       I    between atoms: O2_63  and  C2_68 
REMARK       I    between atoms: N_70  and  C2_74 
ROOT
ATOM      1  O6B BDP d 216      24.741 -12.683  97.532  0.00  0.00    -0.646 OA
ATOM      2  C6  BDP d 216      25.007 -13.259  98.609  0.00  0.00     0.206 C 
ATOM      3  C3  BDP d 216      21.506 -13.492 100.241  0.00  0.00     0.092 C 
ATOM      4  O6A BDP d 216      26.082 -13.855  98.830  0.00  0.00    -0.646 OA
ATOM      5  O5  BDP d 216      23.886 -11.919 100.247  0.00  0.00    -0.340 OA
ATOM      6  C4  BDP d 216      22.598 -13.681  99.190  0.00  0.00     0.103 C 
ATOM      7  O2  BDP d 216      20.707 -12.015 101.964  0.00  0.00    -0.388 OA
ATOM      8  C5  BDP d 216      23.961 -13.230  99.720  0.00  0.00     0.152 C 
ATOM      9  O1  BDP d 216      23.084 -10.555 101.948  0.00  0.00    -0.368 OA
ATOM     10  O3  BDP d 216      20.237 -13.665  99.645  0.00  0.00    -0.390 OA
ATOM     11  C1  BDP d 216      23.014 -11.836 101.354  0.00  0.00     0.156 C 
ATOM     12  C2  BDP d 216      21.594 -12.104 100.873  0.00  0.00     0.110 C 
ATOM     13  H   BDP d 216      21.646 -14.222 101.009  0.00  0.00     0.091 H 
ATOM     14  H   BDP d 216      22.392 -13.075  98.332  0.00  0.00     0.092 H 
ATOM     15  H   BDP d 216      19.802 -12.185 101.660  0.00  0.00     0.210 HD
ATOM     16  H   BDP d 216      24.247 -13.908 100.496  0.00  0.00     0.104 H 
ATOM     17  H   BDP d 216      23.990 -10.389 102.253  0.00  0.00     0.212 HD
ATOM     18  H   BDP d 216      20.114 -13.001  98.949  0.00  0.00     0.210 HD
ATOM     19  H   BDP d 216      23.301 -12.561 102.087  0.00  0.00     0.133 H 
ATOM     20  H   BDP d 216      21.326 -11.376 100.137  0.00  0.00     0.094 H 
ATOM     21  O4  ASG d 217      20.228 -17.472  95.933  0.00  0.00    -0.246 OA
ATOM     22  O7  ASG d 217      23.599 -18.533  98.768  0.00  0.00    -0.274 OA
ATOM     23  O1  ASG d 217      22.612 -15.016  98.828  0.00  0.00    -0.348 OA
ATOM     24  C5  ASG d 217      20.632 -15.071  95.627  0.00  0.00     0.090 C 
ATOM     25  C1  ASG d 217      22.322 -15.215  97.454  0.00  0.00     0.154 C 
ATOM     26  C6  ASG d 217      19.194 -14.585  95.218  0.00  0.00     0.043 C 
ATOM     27  OSA ASG d 217      19.895 -18.844  93.819  0.00  0.00    -0.572 OA
ATOM     28  C3  ASG d 217      22.495 -16.710  95.408  0.00  0.00     0.094 C 
ATOM     29  C7  ASG d 217      24.481 -17.888  98.318  0.00  0.00     0.214 C 
ATOM     30  C2  ASG d 217      22.825 -16.584  96.890  0.00  0.00     0.087 C 
ATOM     31  O5  ASG d 217      20.893 -14.973  97.080  0.00  0.00    -0.349 OA
ATOM     32  OSB ASG d 217      17.956 -18.034  94.986  0.00  0.00    -0.572 OA
ATOM     33  OSC ASG d 217      19.297 -19.802  95.908  0.00  0.00    -0.572 OA
ATOM     34  C8  ASG d 217      25.937 -18.244  98.669  0.00  0.00    -0.003 C 
ATOM     35  S   ASG d 217      19.304 -18.570  95.129  0.00  0.00     0.252 S 
ATOM     36  O6  ASG d 217      19.015 -13.211  94.903  0.00  0.00    -0.398 OA
ATOM     37  C4  ASG d 217      20.993 -16.528  95.203  0.00  0.00     0.114 C 
ATOM     38  N   ASG d 217      24.209 -16.902  97.277  0.00  0.00    -0.349 N 
ATOM     39  H   ASG d 217      21.251 -14.390  95.079  0.00  0.00     0.090 H 
ATOM     40  H   ASG d 217      22.896 -14.450  96.975  0.00  0.00     0.132 H 
ATOM     41  H   ASG d 217      18.538 -14.812  96.032  0.00  0.00     0.078 H 
ATOM     42  H   ASG d 217      18.993 -15.096  94.300  0.00  0.00     0.078 H 
ATOM     43  H   ASG d 217      23.105 -16.009  94.877  0.00  0.00     0.091 H 
ATOM     44  H   ASG d 217      22.276 -17.371  97.365  0.00  0.00     0.084 H 
ATOM     45  H   ASG d 217      25.947 -18.978  99.447  0.00  0.00     0.040 H 
ATOM     46  H   ASG d 217      26.448 -17.365  99.001  0.00  0.00     0.040 H 
ATOM     47  H   ASG d 217      26.427 -18.636  97.802  0.00  0.00     0.040 H 
ATOM     48  H   ASG d 217      19.182 -12.674  95.694  0.00  0.00     0.209 HD
ATOM     49  H   ASG d 217      20.754 -16.694  94.172  0.00  0.00     0.093 H 
ATOM     50  H   ASG d 217      24.958 -16.445  96.831  0.00  0.00     0.163 HD
ATOM     51  C6  BDP d 218      24.639 -17.315  90.784  0.00  0.00     0.206 C 
ATOM     52  O3  BDP d 218      25.512 -21.448  93.290  0.00  0.00    -0.390 OA
ATOM     53  C1  BDP d 218      23.804 -18.288  94.263  0.00  0.00     0.160 C 
ATOM     54  C2  BDP d 218      24.078 -19.788  94.202  0.00  0.00     0.110 C 
ATOM     55  O6A BDP d 218      25.384 -16.352  90.494  0.00  0.00    -0.646 OA
ATOM     56  O1  BDP d 218      22.646 -18.043  95.038  0.00  0.00    -0.348 OA
ATOM     57  C3  BDP d 218      25.326 -20.058  93.381  0.00  0.00     0.092 C 
ATOM     58  O5  BDP d 218      23.630 -17.829  92.936  0.00  0.00    -0.340 OA
ATOM     59  C5  BDP d 218      24.807 -17.968  92.155  0.00  0.00     0.152 C 
ATOM     60  C4  BDP d 218      25.164 -19.443  91.994  0.00  0.00     0.103 C 
ATOM     61  O2  BDP d 218      24.248 -20.322  95.497  0.00  0.00    -0.388 OA
ATOM     62  O6B BDP d 218      23.778 -17.784  90.007  0.00  0.00    -0.646 OA
ATOM     63  H   BDP d 218      25.613 -21.820  94.180  0.00  0.00     0.210 HD
ATOM     64  H   BDP d 218      24.619 -17.769  94.722  0.00  0.00     0.133 H 
ATOM     65  H   BDP d 218      23.235 -20.260  93.742  0.00  0.00     0.094 H 
ATOM     66  H   BDP d 218      26.182 -19.618  93.847  0.00  0.00     0.091 H 
ATOM     67  H   BDP d 218      25.603 -17.471  92.666  0.00  0.00     0.104 H 
ATOM     68  H   BDP d 218      24.467 -20.048  91.452  0.00  0.00     0.092 H 
ATOM     69  H   BDP d 218      25.011 -19.900  95.923  0.00  0.00     0.210 HD
ATOM     70  O4  ASG d 221      30.015 -13.443  80.096  0.00  0.00    -0.249 OA
ATOM     71  OSB ASG d 221      29.533 -10.984  80.558  0.00  0.00    -0.572 OA
ATOM     72  OSC ASG d 221      31.712 -11.563  79.767  0.00  0.00    -0.572 OA
ATOM     73  C2  ASG d 221      29.253 -16.084  80.482  0.00  0.00     0.062 C 
ATOM     74  C1  ASG d 221      30.075 -16.258  81.805  0.00  0.00     0.151 C 
ATOM     75  C3  ASG d 221      30.155 -15.732  79.318  0.00  0.00    -0.014 C 
ATOM     76  O7  ASG d 221      27.803 -16.532  78.037  0.00  0.00    -0.274 OA
ATOM     77  C7  ASG d 221      27.803 -17.406  78.834  0.00  0.00     0.214 C 
ATOM     78  O6  ASG d 221      34.062 -14.315  81.981  0.00  0.00    -0.398 OA
ATOM     79  O1  ASG d 221      29.273 -16.385  82.975  0.00  0.00    -0.348 OA
ATOM     80  C5  ASG d 221      31.927 -14.949  80.698  0.00  0.00     0.088 C 
ATOM     81  C4  ASG d 221      30.896 -14.460  79.645  0.00  0.00     0.089 C 
ATOM     82  OSA ASG d 221      31.049 -12.101  82.000  0.00  0.00    -0.572 OA
ATOM     83  S   ASG d 221      30.596 -11.984  80.615  0.00  0.00     0.252 S 
ATOM     84  O5  ASG d 221      31.171 -15.238  81.936  0.00  0.00    -0.349 OA
ATOM     85  C8  ASG d 221      27.037 -18.704  78.528  0.00  0.00    -0.003 C 
ATOM     86  C6  ASG d 221      33.231 -14.084  80.853  0.00  0.00     0.043 C 
ATOM     87  N   ASG d 221      28.326 -17.189  80.182  0.00  0.00    -0.352 N 
ATOM     88  H   ASG d 221      28.603 -15.251  80.651  0.00  0.00     0.080 H 
ATOM     89  H   ASG d 221      30.561 -17.208  81.718  0.00  0.00     0.132 H 
ATOM     90  H   ASG d 221      29.565 -15.587  78.437  0.00  0.00     0.040 H 
ATOM     91  H   ASG d 221      30.853 -16.525  79.145  0.00  0.00     0.040 H 
ATOM     92  H   ASG d 221      34.824 -13.715  81.949  0.00  0.00     0.209 HD
ATOM     93  H   ASG d 221      32.392 -15.849  80.352  0.00  0.00     0.090 H 
ATOM     94  H   ASG d 221      31.376 -13.987  78.814  0.00  0.00     0.089 H 
ATOM     95  H   ASG d 221      26.726 -18.702  77.505  0.00  0.00     0.040 H 
ATOM     96  H   ASG d 221      26.178 -18.770  79.162  0.00  0.00     0.040 H 
ATOM     97  H   ASG d 221      27.675 -19.545  78.706  0.00  0.00     0.040 H 
ATOM     98  H   ASG d 221      33.827 -14.250  79.980  0.00  0.00     0.078 H 
ATOM     99  H   ASG d 221      32.870 -13.086  80.990  0.00  0.00     0.078 H 
ATOM    100  H   ASG d 221      28.052 -17.797  80.907  0.00  0.00     0.163 HD
ATOM    101  O5  BDP d 220      28.586 -19.129  85.091  0.00  0.00    -0.340 OA
ATOM    102  C5  BDP d 220      28.359 -18.111  84.137  0.00  0.00     0.152 C 
ATOM    103  C6  BDP d 220      27.707 -18.691  82.885  0.00  0.00     0.206 C 
ATOM    104  C1  BDP d 220      28.884 -18.587  86.359  0.00  0.00     0.160 C 
ATOM    105  C3  BDP d 220      30.225 -16.802  85.107  0.00  0.00     0.092 C 
ATOM    106  O2  BDP d 220      30.438 -17.162  87.486  0.00  0.00    -0.388 OA
ATOM    107  O6B BDP d 220      28.295 -19.624  82.287  0.00  0.00    -0.646 OA
ATOM    108  C2  BDP d 220      30.197 -17.815  86.259  0.00  0.00     0.110 C 
ATOM    109  O3  BDP d 220      31.555 -16.365  84.891  0.00  0.00    -0.390 OA
ATOM    110  O1  BDP d 220      29.028 -19.620  87.323  0.00  0.00    -0.348 OA
ATOM    111  O6A BDP d 220      26.612 -18.198  82.518  0.00  0.00    -0.646 OA
ATOM    112  C4  BDP d 220      29.676 -17.412  83.816  0.00  0.00     0.103 C 
ATOM    113  H   BDP d 220      27.683 -17.386  84.541  0.00  0.00     0.104 H 
ATOM    114  H   BDP d 220      28.087 -17.942  86.664  0.00  0.00     0.133 H 
ATOM    115  H   BDP d 220      29.605 -15.973  85.378  0.00  0.00     0.091 H 
ATOM    116  H   BDP d 220      30.418 -17.810  88.206  0.00  0.00     0.210 HD
ATOM    117  H   BDP d 220      30.969 -18.525  86.046  0.00  0.00     0.094 H 
ATOM    118  H   BDP d 220      32.109 -17.124  84.646  0.00  0.00     0.210 HD
ATOM    119  H   BDP d 220      30.422 -18.051  83.395  0.00  0.00     0.092 H 
ATOM    120  OSC ASG d 219      30.736 -23.745  89.315  0.00  0.00    -0.572 OA
ATOM    121  C5  ASG d 219      26.504 -21.912  88.743  0.00  0.00     0.090 C 
ATOM    122  C3  ASG d 219      27.835 -19.973  87.944  0.00  0.00     0.094 C 
ATOM    123  C6  ASG d 219      26.260 -23.459  88.718  0.00  0.00     0.043 C 
ATOM    124  C7  ASG d 219      28.739 -17.124  90.236  0.00  0.00     0.214 C 
ATOM    125  C4  ASG d 219      27.856 -21.485  88.107  0.00  0.00     0.114 C 
ATOM    126  S   ASG d 219      29.859 -23.238  88.261  0.00  0.00     0.252 S 
ATOM    127  C8  ASG d 219      28.740 -15.583  90.297  0.00  0.00    -0.003 C 
ATOM    128  O7  ASG d 219      29.409 -17.743  90.985  0.00  0.00    -0.274 OA
ATOM    129  O6  ASG d 219      25.153 -23.988  89.433  0.00  0.00    -0.398 OA
ATOM    130  OSB ASG d 219      29.023 -24.359  87.836  0.00  0.00    -0.572 OA
ATOM    131  O1  ASG d 219      26.419 -19.287  91.430  0.00  0.00    -0.348 OA
ATOM    132  O4  ASG d 219      28.946 -21.991  88.859  0.00  0.00    -0.246 OA
ATOM    133  OSA ASG d 219      30.628 -22.686  87.143  0.00  0.00    -0.572 OA
ATOM    134  O5  ASG d 219      26.495 -21.338  90.105  0.00  0.00    -0.349 OA
ATOM    135  N   ASG d 219      27.893 -17.832  89.278  0.00  0.00    -0.349 N 
ATOM    136  C2  ASG d 219      27.767 -19.301  89.306  0.00  0.00     0.087 C 
ATOM    137  C1  ASG d 219      26.536 -19.838  90.125  0.00  0.00     0.154 C 
ATOM    138  H   ASG d 219      25.685 -21.535  88.168  0.00  0.00     0.090 H 
ATOM    139  H   ASG d 219      26.985 -19.666  87.372  0.00  0.00     0.091 H 
ATOM    140  H   ASG d 219      27.140 -23.923  89.113  0.00  0.00     0.078 H 
ATOM    141  H   ASG d 219      26.032 -23.669  87.694  0.00  0.00     0.078 H 
ATOM    142  H   ASG d 219      27.990 -21.908  87.133  0.00  0.00     0.093 H 
ATOM    143  H   ASG d 219      28.078 -15.196  89.550  0.00  0.00     0.040 H 
ATOM    144  H   ASG d 219      29.731 -15.221  90.119  0.00  0.00     0.040 H 
ATOM    145  H   ASG d 219      28.411 -15.264  91.264  0.00  0.00     0.040 H 
ATOM    146  H   ASG d 219      25.280 -23.838  90.384  0.00  0.00     0.209 HD
ATOM    147  H   ASG d 219      27.397 -17.318  88.600  0.00  0.00     0.163 HD
ATOM    148  H   ASG d 219      28.649 -19.588  89.839  0.00  0.00     0.084 H 
ATOM    149  H   ASG d 219      25.659 -19.486  89.624  0.00  0.00     0.132 H 
ENDROOT
TORSDOF 38
ENDMDL
MODEL 30
REMARK VINA RESULT:      -6.6      5.179     15.479
REMARK  0 active torsions:
REMARK  status: ('A' for Active; 'I' for Inactive)
REMARK       I    between atoms: C6_2  and  C5_55 
REMARK       I    between atoms: O4_3  and  C4_83 
REMARK       I    between atoms: O4_3  and  S_75 
REMARK       I    between atoms: C6_4  and  C5_67 
REMARK       I    between atoms: O4_5  and  C4_61 
REMARK       I    between atoms: O4_5  and  S_71 
REMARK       I    between atoms: O3_6  and  C3_32 
REMARK       I    between atoms: C1_8  and  O1_30 
REMARK       I    between atoms: C3_12  and  O3_62 
REMARK       I    between atoms: C5_13  and  C6_25 
REMARK       I    between atoms: O1_14  and  C4_39 
REMARK       I    between atoms: O1_14  and  C1_23 
REMARK       I    between atoms: C5_15  and  C6_27 
REMARK       I    between atoms: C5_18  and  C6_44 
REMARK       I    between atoms: C3_19  and  O1_82 
REMARK       I    between atoms: C2_20  and  N_89 
REMARK       I    between atoms: C2_21  and  O2_80 
REMARK       I    between atoms: C1_24  and  O1_45 
REMARK       I    between atoms: C6_25  and  O6_48 
REMARK       I    between atoms: C6_27  and  O6_77 
REMARK       I    between atoms: C7_28  and  C8_35 
REMARK       I    between atoms: C7_28  and  N_70 
REMARK       I    between atoms: O1_30  and  C3_43 
REMARK       I    between atoms: C4_33  and  O4_53 
REMARK       I    between atoms: S_34  and  O4_53 
REMARK       I    between atoms: O2_40  and  C2_87 
REMARK       I    between atoms: C7_41  and  C8_81 
REMARK       I    between atoms: C7_41  and  N_89 
REMARK       I    between atoms: O6_42  and  C6_88 
REMARK       I    between atoms: O1_45  and  C4_90 
REMARK       I    between atoms: C7_46  and  C8_69 
REMARK       I    between atoms: C7_46  and  N_85 
REMARK       I    between atoms: C2_47  and  N_85 
REMARK       I    between atoms: O1_50  and  C4_73 
REMARK       I    between atoms: O1_50  and  C1_76 
REMARK       I    between atoms: C1_52  and  O1_82 
REMARK       I    between atoms: C3_54  and  O3_72 
REMARK       I    between atoms: C5_57  and  C6_88 
REMARK       I    between atoms: O1_59  and  C1_78 
REMARK       I    between atoms: O2_63  and  C2_68 
REMARK       I    between atoms: N_70  and  C2_74 
ROOT
ATOM      1  O6B BDP d 216      31.083  -8.988  83.085  0.00  0.00    -0.646 OA
ATOM      2  C6  BDP d 216      30.470  -8.264  82.271  0.00  0.00     0.206 C 
ATOM      3  C3  BDP d 216      32.386  -8.999  78.991  0.00  0.00     0.092 C 
ATOM      4  O6A BDP d 216      29.351  -7.757  82.499  0.00  0.00    -0.646 OA
ATOM      5  O5  BDP d 216      32.226  -7.110  81.122  0.00  0.00    -0.340 OA
ATOM      6  C4  BDP d 216      31.575  -9.278  80.255  0.00  0.00     0.103 C 
ATOM      7  O2  BDP d 216      34.060  -7.555  78.040  0.00  0.00    -0.388 OA
ATOM      8  C5  BDP d 216      31.125  -7.977  80.923  0.00  0.00     0.152 C 
ATOM      9  O1  BDP d 216      33.810  -5.728  80.132  0.00  0.00    -0.368 OA
ATOM     10  O3  BDP d 216      33.001 -10.190  78.547  0.00  0.00    -0.390 OA
ATOM     11  C1  BDP d 216      32.821  -6.712  79.905  0.00  0.00     0.156 C 
ATOM     12  C2  BDP d 216      33.451  -7.935  79.252  0.00  0.00     0.110 C 
ATOM     13  H   BDP d 216      31.722  -8.634  78.236  0.00  0.00     0.091 H 
ATOM     14  H   BDP d 216      32.178  -9.794  80.972  0.00  0.00     0.092 H 
ATOM     15  H   BDP d 216      34.462  -8.333  77.622  0.00  0.00     0.210 HD
ATOM     16  H   BDP d 216      30.416  -7.507  80.275  0.00  0.00     0.104 H 
ATOM     17  H   BDP d 216      33.404  -4.952  80.548  0.00  0.00     0.212 HD
ATOM     18  H   BDP d 216      33.602 -10.519  79.234  0.00  0.00     0.210 HD
ATOM     19  H   BDP d 216      32.073  -6.293  79.264  0.00  0.00     0.133 H 
ATOM     20  H   BDP d 216      34.190  -8.345  79.908  0.00  0.00     0.094 H 
ATOM     21  O4  ASG d 217      29.928 -14.468  79.278  0.00  0.00    -0.246 OA
ATOM     22  O7  ASG d 217      27.083 -10.958  78.941  0.00  0.00    -0.274 OA
ATOM     23  O1  ASG d 217      30.493 -10.065  79.899  0.00  0.00    -0.348 OA
ATOM     24  C5  ASG d 217      31.610 -13.542  80.807  0.00  0.00     0.090 C 
ATOM     25  C1  ASG d 217      30.497 -11.327  80.545  0.00  0.00     0.154 C 
ATOM     26  C6  ASG d 217      32.856 -14.427  80.437  0.00  0.00     0.043 C 
ATOM     27  OSA ASG d 217      29.013 -16.767  79.857  0.00  0.00    -0.572 OA
ATOM     28  C3  ASG d 217      29.181 -13.354  81.327  0.00  0.00     0.094 C 
ATOM     29  C7  ASG d 217      27.070 -10.573  80.058  0.00  0.00     0.214 C 
ATOM     30  C2  ASG d 217      29.096 -12.018  80.601  0.00  0.00     0.087 C 
ATOM     31  O5  ASG d 217      31.543 -12.276  80.046  0.00  0.00    -0.349 OA
ATOM     32  OSB ASG d 217      30.828 -16.610  78.291  0.00  0.00    -0.572 OA
ATOM     33  OSC ASG d 217      28.616 -15.895  77.685  0.00  0.00    -0.572 OA
ATOM     34  C8  ASG d 217      25.917  -9.672  80.537  0.00  0.00    -0.003 C 
ATOM     35  S   ASG d 217      29.594 -15.993  78.761  0.00  0.00     0.252 S 
ATOM     36  O6  ASG d 217      34.062 -14.221  81.158  0.00  0.00    -0.398 OA
ATOM     37  C4  ASG d 217      30.223 -14.238  80.646  0.00  0.00     0.114 C 
ATOM     38  N   ASG d 217      28.016 -11.113  81.029  0.00  0.00    -0.349 N 
ATOM     39  H   ASG d 217      31.782 -13.357  81.847  0.00  0.00     0.090 H 
ATOM     40  H   ASG d 217      30.765 -11.081  81.551  0.00  0.00     0.132 H 
ATOM     41  H   ASG d 217      33.071 -14.255  79.402  0.00  0.00     0.078 H 
ATOM     42  H   ASG d 217      32.560 -15.423  80.692  0.00  0.00     0.078 H 
ATOM     43  H   ASG d 217      29.375 -13.152  82.360  0.00  0.00     0.091 H 
ATOM     44  H   ASG d 217      28.796 -12.262  79.603  0.00  0.00     0.084 H 
ATOM     45  H   ASG d 217      25.329  -9.370  79.696  0.00  0.00     0.040 H 
ATOM     46  H   ASG d 217      26.319  -8.806  81.020  0.00  0.00     0.040 H 
ATOM     47  H   ASG d 217      25.304 -10.214  81.226  0.00  0.00     0.040 H 
ATOM     48  H   ASG d 217      34.399 -13.329  80.978  0.00  0.00     0.209 HD
ATOM     49  H   ASG d 217      30.225 -15.203  81.109  0.00  0.00     0.093 H 
ATOM     50  H   ASG d 217      27.932 -10.869  81.979  0.00  0.00     0.163 HD
ATOM     51  C6  BDP d 218      27.383 -15.913  85.396  0.00  0.00     0.206 C 
ATOM     52  O3  BDP d 218      23.564 -15.185  82.394  0.00  0.00    -0.390 OA
ATOM     53  C1  BDP d 218      27.126 -14.131  82.155  0.00  0.00     0.160 C 
ATOM     54  C2  BDP d 218      25.759 -14.617  81.681  0.00  0.00     0.110 C 
ATOM     55  O6A BDP d 218      27.708 -15.357  86.469  0.00  0.00    -0.646 OA
ATOM     56  O1  BDP d 218      28.019 -14.072  81.060  0.00  0.00    -0.348 OA
ATOM     57  C3  BDP d 218      24.791 -14.672  82.850  0.00  0.00     0.092 C 
ATOM     58  O5  BDP d 218      27.588 -15.039  83.136  0.00  0.00    -0.340 OA
ATOM     59  C5  BDP d 218      26.768 -15.051  84.294  0.00  0.00     0.152 C 
ATOM     60  C4  BDP d 218      25.371 -15.558  83.948  0.00  0.00     0.103 C 
ATOM     61  O2  BDP d 218      25.238 -13.764  80.686  0.00  0.00    -0.388 OA
ATOM     62  O6B BDP d 218      27.516 -17.139  85.183  0.00  0.00    -0.646 OA
ATOM     63  H   BDP d 218      23.212 -14.609  81.697  0.00  0.00     0.210 HD
ATOM     64  H   BDP d 218      27.058 -13.149  82.574  0.00  0.00     0.133 H 
ATOM     65  H   BDP d 218      25.880 -15.596  81.268  0.00  0.00     0.094 H 
ATOM     66  H   BDP d 218      24.636 -13.693  83.253  0.00  0.00     0.091 H 
ATOM     67  H   BDP d 218      26.695 -14.048  84.657  0.00  0.00     0.104 H 
ATOM     68  H   BDP d 218      25.298 -16.573  83.617  0.00  0.00     0.092 H 
ATOM     69  H   BDP d 218      25.123 -12.873  81.051  0.00  0.00     0.210 HD
ATOM     70  O4  ASG d 221      27.201 -19.544  97.434  0.00  0.00    -0.249 OA
ATOM     71  OSB ASG d 221      29.464 -18.493  97.950  0.00  0.00    -0.572 OA
ATOM     72  OSC ASG d 221      27.693 -18.150  99.516  0.00  0.00    -0.572 OA
ATOM     73  C2  ASG d 221      25.542 -20.694  95.530  0.00  0.00     0.062 C 
ATOM     74  C1  ASG d 221      24.920 -19.332  95.068  0.00  0.00     0.151 C 
ATOM     75  C3  ASG d 221      25.277 -20.948  96.999  0.00  0.00    -0.014 C 
ATOM     76  O7  ASG d 221      26.032 -23.477  96.077  0.00  0.00    -0.274 OA
ATOM     77  C7  ASG d 221      25.337 -23.221  95.155  0.00  0.00     0.214 C 
ATOM     78  O6  ASG d 221      24.097 -16.312  98.216  0.00  0.00    -0.398 OA
ATOM     79  O1  ASG d 221      25.306 -18.932  93.756  0.00  0.00    -0.348 OA
ATOM     80  C5  ASG d 221      24.855 -18.662  97.500  0.00  0.00     0.088 C 
ATOM     81  C4  ASG d 221      25.856 -19.809  97.800  0.00  0.00     0.089 C 
ATOM     82  OSA ASG d 221      27.673 -17.040  97.399  0.00  0.00    -0.572 OA
ATOM     83  S   ASG d 221      28.028 -18.274  98.097  0.00  0.00     0.252 S 
ATOM     84  O5  ASG d 221      25.085 -18.250  96.097  0.00  0.00    -0.349 OA
ATOM     85  C8  ASG d 221      24.751 -24.367  94.312  0.00  0.00    -0.003 C 
ATOM     86  C6  ASG d 221      24.772 -17.511  98.569  0.00  0.00     0.043 C 
ATOM     87  N   ASG d 221      25.207 -21.846  94.674  0.00  0.00    -0.352 N 
ATOM     88  H   ASG d 221      26.599 -20.589  95.405  0.00  0.00     0.080 H 
ATOM     89  H   ASG d 221      23.868 -19.509  94.987  0.00  0.00     0.132 H 
ATOM     90  H   ASG d 221      25.739 -21.867  97.294  0.00  0.00     0.040 H 
ATOM     91  H   ASG d 221      24.223 -21.015  97.172  0.00  0.00     0.040 H 
ATOM     92  H   ASG d 221      24.123 -15.695  98.963  0.00  0.00     0.209 HD
ATOM     93  H   ASG d 221      23.854 -19.025  97.600  0.00  0.00     0.090 H 
ATOM     94  H   ASG d 221      25.943 -19.992  98.851  0.00  0.00     0.089 H 
ATOM     95  H   ASG d 221      24.931 -25.299  94.804  0.00  0.00     0.040 H 
ATOM     96  H   ASG d 221      25.216 -24.375  93.349  0.00  0.00     0.040 H 
ATOM     97  H   ASG d 221      23.697 -24.222  94.197  0.00  0.00     0.040 H 
ATOM     98  H   ASG d 221      24.276 -17.912  99.428  0.00  0.00     0.078 H 
ATOM     99  H   ASG d 221      25.788 -17.211  98.712  0.00  0.00     0.078 H 
ATOM    100  H   ASG d 221      24.889 -21.687  93.755  0.00  0.00     0.163 HD
ATOM    101  O5  BDP d 220      23.530 -18.785  90.705  0.00  0.00    -0.340 OA
ATOM    102  C5  BDP d 220      24.476 -19.224  91.660  0.00  0.00     0.152 C 
ATOM    103  C6  BDP d 220      24.391 -20.738  91.836  0.00  0.00     0.206 C 
ATOM    104  C1  BDP d 220      23.796 -17.463  90.290  0.00  0.00     0.160 C 
ATOM    105  C3  BDP d 220      24.418 -16.989  92.727  0.00  0.00     0.092 C 
ATOM    106  O2  BDP d 220      24.018 -15.232  91.118  0.00  0.00    -0.388 OA
ATOM    107  O6B BDP d 220      23.288 -21.237  92.163  0.00  0.00    -0.646 OA
ATOM    108  C2  BDP d 220      23.630 -16.536  91.491  0.00  0.00     0.110 C 
ATOM    109  O3  BDP d 220      23.971 -16.270  93.864  0.00  0.00    -0.390 OA
ATOM    110  O1  BDP d 220      22.888 -17.068  89.271  0.00  0.00    -0.348 OA
ATOM    111  O6A BDP d 220      25.438 -21.404  91.646  0.00  0.00    -0.646 OA
ATOM    112  C4  BDP d 220      24.248 -18.488  92.977  0.00  0.00     0.103 C 
ATOM    113  H   BDP d 220      25.463 -18.998  91.316  0.00  0.00     0.104 H 
ATOM    114  H   BDP d 220      24.792 -17.408  89.902  0.00  0.00     0.133 H 
ATOM    115  H   BDP d 220      25.454 -16.792  92.551  0.00  0.00     0.091 H 
ATOM    116  H   BDP d 220      23.515 -14.956  90.337  0.00  0.00     0.210 HD
ATOM    117  H   BDP d 220      22.598 -16.562  91.772  0.00  0.00     0.094 H 
ATOM    118  H   BDP d 220      23.031 -16.455  94.014  0.00  0.00     0.210 HD
ATOM    119  H   BDP d 220      23.286 -18.656  93.414  0.00  0.00     0.092 H 
ATOM    120  OSC ASG d 219      18.574 -16.276  87.113  0.00  0.00    -0.572 OA
ATOM    121  C5  ASG d 219      22.568 -18.246  85.787  0.00  0.00     0.090 C 
ATOM    122  C3  ASG d 219      23.323 -17.377  87.987  0.00  0.00     0.094 C 
ATOM    123  C6  ASG d 219      21.473 -19.000  84.958  0.00  0.00     0.043 C 
ATOM    124  C7  ASG d 219      25.082 -14.062  88.298  0.00  0.00     0.214 C 
ATOM    125  C4  ASG d 219      22.099 -17.835  87.209  0.00  0.00     0.114 C 
ATOM    126  S   ASG d 219      19.497 -17.336  87.514  0.00  0.00     0.252 S 
ATOM    127  C8  ASG d 219      26.318 -13.413  88.955  0.00  0.00    -0.003 C 
ATOM    128  O7  ASG d 219      24.191 -13.385  87.925  0.00  0.00    -0.274 OA
ATOM    129  O6  ASG d 219      21.716 -19.262  83.583  0.00  0.00    -0.398 OA
ATOM    130  OSB ASG d 219      19.095 -18.540  86.788  0.00  0.00    -0.572 OA
ATOM    131  O1  ASG d 219      24.742 -15.250  85.143  0.00  0.00    -0.348 OA
ATOM    132  O4  ASG d 219      21.047 -16.887  87.135  0.00  0.00    -0.246 OA
ATOM    133  OSA ASG d 219      19.472 -17.548  88.964  0.00  0.00    -0.572 OA
ATOM    134  O5  ASG d 219      23.043 -17.005  85.138  0.00  0.00    -0.349 OA
ATOM    135  N   ASG d 219      25.014 -15.508  88.106  0.00  0.00    -0.349 N 
ATOM    136  C2  ASG d 219      23.911 -16.129  87.349  0.00  0.00     0.087 C 
ATOM    137  C1  ASG d 219      24.221 -16.382  85.827  0.00  0.00     0.154 C 
ATOM    138  H   ASG d 219      23.356 -18.968  85.847  0.00  0.00     0.090 H 
ATOM    139  H   ASG d 219      24.073 -18.139  87.995  0.00  0.00     0.091 H 
ATOM    140  H   ASG d 219      20.578 -18.416  85.014  0.00  0.00     0.078 H 
ATOM    141  H   ASG d 219      21.434 -19.972  85.404  0.00  0.00     0.078 H 
ATOM    142  H   ASG d 219      21.672 -18.659  87.742  0.00  0.00     0.093 H 
ATOM    143  H   ASG d 219      27.019 -14.175  89.227  0.00  0.00     0.040 H 
ATOM    144  H   ASG d 219      26.016 -12.875  89.829  0.00  0.00     0.040 H 
ATOM    145  H   ASG d 219      26.777 -12.738  88.263  0.00  0.00     0.040 H 
ATOM    146  H   ASG d 219      21.766 -18.422  83.098  0.00  0.00     0.209 HD
ATOM    147  H   ASG d 219      25.718 -16.080  88.490  0.00  0.00     0.163 HD
ATOM    148  H   ASG d 219      23.158 -15.371  87.394  0.00  0.00     0.084 H 
ATOM    149  H   ASG d 219      25.024 -17.088  85.793  0.00  0.00     0.132 H 
ENDROOT
TORSDOF 38
ENDMDL
MODEL 31
REMARK VINA RESULT:      -6.5      5.082      8.934
REMARK  0 active torsions:
REMARK  status: ('A' for Active; 'I' for Inactive)
REMARK       I    between atoms: C6_2  and  C5_55 
REMARK       I    between atoms: O4_3  and  C4_83 
REMARK       I    between atoms: O4_3  and  S_75 
REMARK       I    between atoms: C6_4  and  C5_67 
REMARK       I    between atoms: O4_5  and  C4_61 
REMARK       I    between atoms: O4_5  and  S_71 
REMARK       I    between atoms: O3_6  and  C3_32 
REMARK       I    between atoms: C1_8  and  O1_30 
REMARK       I    between atoms: C3_12  and  O3_62 
REMARK       I    between atoms: C5_13  and  C6_25 
REMARK       I    between atoms: O1_14  and  C4_39 
REMARK       I    between atoms: O1_14  and  C1_23 
REMARK       I    between atoms: C5_15  and  C6_27 
REMARK       I    between atoms: C5_18  and  C6_44 
REMARK       I    between atoms: C3_19  and  O1_82 
REMARK       I    between atoms: C2_20  and  N_89 
REMARK       I    between atoms: C2_21  and  O2_80 
REMARK       I    between atoms: C1_24  and  O1_45 
REMARK       I    between atoms: C6_25  and  O6_48 
REMARK       I    between atoms: C6_27  and  O6_77 
REMARK       I    between atoms: C7_28  and  C8_35 
REMARK       I    between atoms: C7_28  and  N_70 
REMARK       I    between atoms: O1_30  and  C3_43 
REMARK       I    between atoms: C4_33  and  O4_53 
REMARK       I    between atoms: S_34  and  O4_53 
REMARK       I    between atoms: O2_40  and  C2_87 
REMARK       I    between atoms: C7_41  and  C8_81 
REMARK       I    between atoms: C7_41  and  N_89 
REMARK       I    between atoms: O6_42  and  C6_88 
REMARK       I    between atoms: O1_45  and  C4_90 
REMARK       I    between atoms: C7_46  and  C8_69 
REMARK       I    between atoms: C7_46  and  N_85 
REMARK       I    between atoms: C2_47  and  N_85 
REMARK       I    between atoms: O1_50  and  C4_73 
REMARK       I    between atoms: O1_50  and  C1_76 
REMARK       I    between atoms: C1_52  and  O1_82 
REMARK       I    between atoms: C3_54  and  O3_72 
REMARK       I    between atoms: C5_57  and  C6_88 
REMARK       I    between atoms: O1_59  and  C1_78 
REMARK       I    between atoms: O2_63  and  C2_68 
REMARK       I    between atoms: N_70  and  C2_74 
ROOT
ATOM      1  O6B BDP d 216      26.860 -17.581  95.596  0.00  0.00    -0.646 OA
ATOM      2  C6  BDP d 216      25.782 -17.682  96.221  0.00  0.00     0.206 C 
ATOM      3  C3  BDP d 216      26.880 -16.727  99.807  0.00  0.00     0.092 C 
ATOM      4  O6A BDP d 216      24.663 -17.742  95.670  0.00  0.00    -0.646 OA
ATOM      5  O5  BDP d 216      26.374 -18.986  98.140  0.00  0.00    -0.340 OA
ATOM      6  C4  BDP d 216      26.673 -16.585  98.300  0.00  0.00     0.103 C 
ATOM      7  O2  BDP d 216      27.313 -18.311 101.565  0.00  0.00    -0.388 OA
ATOM      8  C5  BDP d 216      25.834 -17.739  97.745  0.00  0.00     0.152 C 
ATOM      9  O1  BDP d 216      26.753 -20.469  99.889  0.00  0.00    -0.368 OA
ATOM     10  O3  BDP d 216      27.861 -15.808 100.240  0.00  0.00    -0.390 OA
ATOM     11  C1  BDP d 216      26.356 -19.157  99.542  0.00  0.00     0.156 C 
ATOM     12  C2  BDP d 216      27.310 -18.148 100.166  0.00  0.00     0.110 C 
ATOM     13  H   BDP d 216      25.952 -16.520 100.297  0.00  0.00     0.091 H 
ATOM     14  H   BDP d 216      27.615 -16.626  97.794  0.00  0.00     0.092 H 
ATOM     15  H   BDP d 216      27.921 -17.669 101.965  0.00  0.00     0.210 HD
ATOM     16  H   BDP d 216      24.845 -17.639  98.140  0.00  0.00     0.104 H 
ATOM     17  H   BDP d 216      26.143 -21.108  99.490  0.00  0.00     0.212 HD
ATOM     18  H   BDP d 216      28.701 -15.997  99.794  0.00  0.00     0.210 HD
ATOM     19  H   BDP d 216      25.361 -19.002  99.906  0.00  0.00     0.133 H 
ATOM     20  H   BDP d 216      28.297 -18.312  99.786  0.00  0.00     0.094 H 
ATOM     21  O4  ASG d 217      27.601 -11.171  97.651  0.00  0.00    -0.246 OA
ATOM     22  O7  ASG d 217      23.424 -12.915  97.464  0.00  0.00    -0.274 OA
ATOM     23  O1  ASG d 217      26.068 -15.363  98.068  0.00  0.00    -0.348 OA
ATOM     24  C5  ASG d 217      28.942 -13.144  97.076  0.00  0.00     0.090 C 
ATOM     25  C1  ASG d 217      26.860 -14.502  97.266  0.00  0.00     0.154 C 
ATOM     26  C6  ASG d 217      30.315 -12.764  97.740  0.00  0.00     0.043 C 
ATOM     27  OSA ASG d 217      28.122  -9.035  96.375  0.00  0.00    -0.572 OA
ATOM     28  C3  ASG d 217      26.967 -12.506  95.699  0.00  0.00     0.094 C 
ATOM     29  C7  ASG d 217      23.515 -13.612  96.513  0.00  0.00     0.214 C 
ATOM     30  C2  ASG d 217      26.050 -13.370  96.555  0.00  0.00     0.087 C 
ATOM     31  O5  ASG d 217      28.065 -13.944  97.959  0.00  0.00    -0.349 OA
ATOM     32  OSB ASG d 217      29.145  -9.373  98.523  0.00  0.00    -0.572 OA
ATOM     33  OSC ASG d 217      26.797  -8.896  98.340  0.00  0.00    -0.572 OA
ATOM     34  C8  ASG d 217      22.239 -14.079  95.790  0.00  0.00    -0.003 C 
ATOM     35  S   ASG d 217      27.938  -9.563  97.727  0.00  0.00     0.252 S 
ATOM     36  O6  ASG d 217      31.405 -13.664  97.588  0.00  0.00    -0.398 OA
ATOM     37  C4  ASG d 217      28.090 -11.942  96.566  0.00  0.00     0.114 C 
ATOM     38  N   ASG d 217      24.820 -13.854  95.906  0.00  0.00    -0.349 N 
ATOM     39  H   ASG d 217      29.265 -13.718  96.233  0.00  0.00     0.090 H 
ATOM     40  H   ASG d 217      27.224 -15.155  96.501  0.00  0.00     0.132 H 
ATOM     41  H   ASG d 217      30.140 -12.652  98.790  0.00  0.00     0.078 H 
ATOM     42  H   ASG d 217      30.626 -11.881  97.222  0.00  0.00     0.078 H 
ATOM     43  H   ASG d 217      27.298 -13.101  94.873  0.00  0.00     0.091 H 
ATOM     44  H   ASG d 217      25.660 -12.709  97.301  0.00  0.00     0.084 H 
ATOM     45  H   ASG d 217      21.382 -13.820  96.376  0.00  0.00     0.040 H 
ATOM     46  H   ASG d 217      22.273 -15.140  95.657  0.00  0.00     0.040 H 
ATOM     47  H   ASG d 217      22.176 -13.601  94.834  0.00  0.00     0.040 H 
ATOM     48  H   ASG d 217      31.199 -14.499  98.036  0.00  0.00     0.209 HD
ATOM     49  H   ASG d 217      28.686 -11.273  95.980  0.00  0.00     0.093 H 
ATOM     50  H   ASG d 217      24.878 -14.345  95.055  0.00  0.00     0.163 HD
ATOM     51  C6  BDP d 218      27.792 -10.960  90.876  0.00  0.00     0.206 C 
ATOM     52  O3  BDP d 218      23.478  -9.051  92.244  0.00  0.00    -0.390 OA
ATOM     53  C1  BDP d 218      25.857 -11.296  94.020  0.00  0.00     0.160 C 
ATOM     54  C2  BDP d 218      24.837 -10.177  93.836  0.00  0.00     0.110 C 
ATOM     55  O6A BDP d 218      28.068 -11.922  90.125  0.00  0.00    -0.646 OA
ATOM     56  O1  BDP d 218      26.285 -11.339  95.368  0.00  0.00    -0.348 OA
ATOM     57  C3  BDP d 218      24.365 -10.132  92.394  0.00  0.00     0.092 C 
ATOM     58  O5  BDP d 218      26.943 -11.034  93.153  0.00  0.00    -0.340 OA
ATOM     59  C5  BDP d 218      26.570 -11.082  91.785  0.00  0.00     0.152 C 
ATOM     60  C4  BDP d 218      25.568  -9.974  91.471  0.00  0.00     0.103 C 
ATOM     61  O2  BDP d 218      23.725 -10.364  94.684  0.00  0.00    -0.388 OA
ATOM     62  O6B BDP d 218      28.449  -9.896  90.907  0.00  0.00    -0.646 OA
ATOM     63  H   BDP d 218      22.721  -9.170  92.839  0.00  0.00     0.210 HD
ATOM     64  H   BDP d 218      25.427 -12.247  93.784  0.00  0.00     0.133 H 
ATOM     65  H   BDP d 218      25.311  -9.251  94.089  0.00  0.00     0.094 H 
ATOM     66  H   BDP d 218      23.859 -11.040  92.139  0.00  0.00     0.091 H 
ATOM     67  H   BDP d 218      26.111 -12.030  91.601  0.00  0.00     0.104 H 
ATOM     68  H   BDP d 218      25.920  -8.969  91.567  0.00  0.00     0.092 H 
ATOM     69  H   BDP d 218      23.287 -11.201  94.463  0.00  0.00     0.210 HD
ATOM     70  O4  ASG d 221      32.564 -11.804  79.272  0.00  0.00    -0.249 OA
ATOM     71  OSB ASG d 221      34.062 -13.780  79.860  0.00  0.00    -0.572 OA
ATOM     72  OSC ASG d 221      32.830 -13.886  77.816  0.00  0.00    -0.572 OA
ATOM     73  C2  ASG d 221      31.254  -9.524  80.156  0.00  0.00     0.062 C 
ATOM     74  C1  ASG d 221      29.947 -10.283  80.570  0.00  0.00     0.151 C 
ATOM     75  C3  ASG d 221      31.542  -9.691  78.679  0.00  0.00    -0.014 C 
ATOM     76  O7  ASG d 221      33.172  -7.527  79.369  0.00  0.00    -0.274 OA
ATOM     77  C7  ASG d 221      32.228  -7.160  79.980  0.00  0.00     0.214 C 
ATOM     78  O6  ASG d 221      28.600 -13.582  77.922  0.00  0.00    -0.398 OA
ATOM     79  O1  ASG d 221      29.730 -10.341  81.977  0.00  0.00    -0.348 OA
ATOM     80  C5  ASG d 221      30.198 -11.641  78.458  0.00  0.00     0.088 C 
ATOM     81  C4  ASG d 221      31.673 -11.162  78.374  0.00  0.00     0.089 C 
ATOM     82  OSA ASG d 221      31.716 -14.119  79.918  0.00  0.00    -0.572 OA
ATOM     83  S   ASG d 221      32.800 -13.441  79.210  0.00  0.00     0.252 S 
ATOM     84  O5  ASG d 221      29.821 -11.616  79.888  0.00  0.00    -0.349 OA
ATOM     85  C8  ASG d 221      32.085  -5.666  80.319  0.00  0.00    -0.003 C 
ATOM     86  C6  ASG d 221      29.842 -12.946  77.656  0.00  0.00     0.043 C 
ATOM     87  N   ASG d 221      31.319  -8.121  80.604  0.00  0.00    -0.352 N 
ATOM     88  H   ASG d 221      32.048  -9.995  80.696  0.00  0.00     0.080 H 
ATOM     89  H   ASG d 221      29.139  -9.684  80.206  0.00  0.00     0.132 H 
ATOM     90  H   ASG d 221      32.455  -9.190  78.432  0.00  0.00     0.040 H 
ATOM     91  H   ASG d 221      30.745  -9.270  78.103  0.00  0.00     0.040 H 
ATOM     92  H   ASG d 221      28.513 -14.368  77.362  0.00  0.00     0.209 HD
ATOM     93  H   ASG d 221      29.571 -10.963  77.917  0.00  0.00     0.090 H 
ATOM     94  H   ASG d 221      32.109 -11.392  77.425  0.00  0.00     0.089 H 
ATOM     95  H   ASG d 221      32.821  -5.106  79.782  0.00  0.00     0.040 H 
ATOM     96  H   ASG d 221      32.224  -5.524  81.370  0.00  0.00     0.040 H 
ATOM     97  H   ASG d 221      31.108  -5.330  80.041  0.00  0.00     0.040 H 
ATOM     98  H   ASG d 221      29.851 -12.692  76.617  0.00  0.00     0.078 H 
ATOM     99  H   ASG d 221      30.576 -13.657  77.971  0.00  0.00     0.078 H 
ATOM    100  H   ASG d 221      30.737  -7.823  81.340  0.00  0.00     0.163 HD
ATOM    101  O5  BDP d 220      27.387  -8.738  84.080  0.00  0.00    -0.340 OA
ATOM    102  C5  BDP d 220      28.637  -9.061  83.504  0.00  0.00     0.152 C 
ATOM    103  C6  BDP d 220      29.357  -7.794  83.050  0.00  0.00     0.206 C 
ATOM    104  C1  BDP d 220      26.849  -9.834  84.787  0.00  0.00     0.160 C 
ATOM    105  C3  BDP d 220      27.768 -11.301  82.901  0.00  0.00     0.092 C 
ATOM    106  O2  BDP d 220      26.153 -12.104  84.508  0.00  0.00    -0.388 OA
ATOM    107  O6B BDP d 220      28.770  -7.035  82.241  0.00  0.00    -0.646 OA
ATOM    108  C2  BDP d 220      26.569 -10.960  83.795  0.00  0.00     0.110 C 
ATOM    109  O3  BDP d 220      27.340 -12.115  81.824  0.00  0.00    -0.390 OA
ATOM    110  O1  BDP d 220      25.635  -9.468  85.428  0.00  0.00    -0.348 OA
ATOM    111  O6A BDP d 220      30.505  -7.581  83.512  0.00  0.00    -0.646 OA
ATOM    112  C4  BDP d 220      28.429 -10.037  82.350  0.00  0.00     0.103 C 
ATOM    113  H   BDP d 220      29.257  -9.534  84.236  0.00  0.00     0.104 H 
ATOM    114  H   BDP d 220      27.549 -10.150  85.533  0.00  0.00     0.133 H 
ATOM    115  H   BDP d 220      28.487 -11.825  83.495  0.00  0.00     0.091 H 
ATOM    116  H   BDP d 220      25.396 -11.877  85.070  0.00  0.00     0.210 HD
ATOM    117  H   BDP d 220      25.797 -10.619  83.137  0.00  0.00     0.094 H 
ATOM    118  H   BDP d 220      26.689 -11.631  81.292  0.00  0.00     0.210 HD
ATOM    119  H   BDP d 220      27.826  -9.654  81.554  0.00  0.00     0.092 H 
ATOM    120  OSC ASG d 219      21.098  -7.697  85.852  0.00  0.00    -0.572 OA
ATOM    121  C5  ASG d 219      25.040  -7.172  88.257  0.00  0.00     0.090 C 
ATOM    122  C3  ASG d 219      25.813  -8.950  86.705  0.00  0.00     0.094 C 
ATOM    123  C6  ASG d 219      24.285  -5.814  88.454  0.00  0.00     0.043 C 
ATOM    124  C7  ASG d 219      25.727 -12.588  87.677  0.00  0.00     0.214 C 
ATOM    125  C4  ASG d 219      24.818  -7.809  86.858  0.00  0.00     0.114 C 
ATOM    126  S   ASG d 219      22.491  -7.295  85.662  0.00  0.00     0.252 S 
ATOM    127  C8  ASG d 219      26.606 -13.855  87.672  0.00  0.00    -0.003 C 
ATOM    128  O7  ASG d 219      24.556 -12.684  87.787  0.00  0.00    -0.274 OA
ATOM    129  O6  ASG d 219      24.257  -5.229  89.748  0.00  0.00    -0.398 OA
ATOM    130  OSB ASG d 219      22.559  -5.865  85.956  0.00  0.00    -0.572 OA
ATOM    131  O1  ASG d 219      25.206 -10.384  90.198  0.00  0.00    -0.348 OA
ATOM    132  O4  ASG d 219      23.459  -8.173  86.682  0.00  0.00    -0.246 OA
ATOM    133  OSA ASG d 219      22.953  -7.588  84.303  0.00  0.00    -0.572 OA
ATOM    134  O5  ASG d 219      24.656  -8.205  89.242  0.00  0.00    -0.349 OA
ATOM    135  N   ASG d 219      26.331 -11.262  87.574  0.00  0.00    -0.349 N 
ATOM    136  C2  ASG d 219      25.522 -10.038  87.727  0.00  0.00     0.087 C 
ATOM    137  C1  ASG d 219      25.508  -9.438  89.181  0.00  0.00     0.154 C 
ATOM    138  H   ASG d 219      26.065  -6.891  88.382  0.00  0.00     0.090 H 
ATOM    139  H   ASG d 219      26.814  -8.602  86.856  0.00  0.00     0.091 H 
ATOM    140  H   ASG d 219      23.269  -5.972  88.158  0.00  0.00     0.078 H 
ATOM    141  H   ASG d 219      24.846  -5.117  87.867  0.00  0.00     0.078 H 
ATOM    142  H   ASG d 219      25.008  -7.113  86.068  0.00  0.00     0.093 H 
ATOM    143  H   ASG d 219      27.633 -13.576  87.564  0.00  0.00     0.040 H 
ATOM    144  H   ASG d 219      26.318 -14.485  86.856  0.00  0.00     0.040 H 
ATOM    145  H   ASG d 219      26.475 -14.383  88.593  0.00  0.00     0.040 H 
ATOM    146  H   ASG d 219      23.760  -5.804  90.352  0.00  0.00     0.209 HD
ATOM    147  H   ASG d 219      27.297 -11.183  87.400  0.00  0.00     0.163 HD
ATOM    148  H   ASG d 219      24.535 -10.398  87.525  0.00  0.00     0.084 H 
ATOM    149  H   ASG d 219      26.513  -9.146  89.400  0.00  0.00     0.132 H 
ENDROOT
TORSDOF 38
ENDMDL
MODEL 32
REMARK VINA RESULT:      -6.5      4.326     16.326
REMARK  0 active torsions:
REMARK  status: ('A' for Active; 'I' for Inactive)
REMARK       I    between atoms: C6_2  and  C5_55 
REMARK       I    between atoms: O4_3  and  C4_83 
REMARK       I    between atoms: O4_3  and  S_75 
REMARK       I    between atoms: C6_4  and  C5_67 
REMARK       I    between atoms: O4_5  and  C4_61 
REMARK       I    between atoms: O4_5  and  S_71 
REMARK       I    between atoms: O3_6  and  C3_32 
REMARK       I    between atoms: C1_8  and  O1_30 
REMARK       I    between atoms: C3_12  and  O3_62 
REMARK       I    between atoms: C5_13  and  C6_25 
REMARK       I    between atoms: O1_14  and  C4_39 
REMARK       I    between atoms: O1_14  and  C1_23 
REMARK       I    between atoms: C5_15  and  C6_27 
REMARK       I    between atoms: C5_18  and  C6_44 
REMARK       I    between atoms: C3_19  and  O1_82 
REMARK       I    between atoms: C2_20  and  N_89 
REMARK       I    between atoms: C2_21  and  O2_80 
REMARK       I    between atoms: C1_24  and  O1_45 
REMARK       I    between atoms: C6_25  and  O6_48 
REMARK       I    between atoms: C6_27  and  O6_77 
REMARK       I    between atoms: C7_28  and  C8_35 
REMARK       I    between atoms: C7_28  and  N_70 
REMARK       I    between atoms: O1_30  and  C3_43 
REMARK       I    between atoms: C4_33  and  O4_53 
REMARK       I    between atoms: S_34  and  O4_53 
REMARK       I    between atoms: O2_40  and  C2_87 
REMARK       I    between atoms: C7_41  and  C8_81 
REMARK       I    between atoms: C7_41  and  N_89 
REMARK       I    between atoms: O6_42  and  C6_88 
REMARK       I    between atoms: O1_45  and  C4_90 
REMARK       I    between atoms: C7_46  and  C8_69 
REMARK       I    between atoms: C7_46  and  N_85 
REMARK       I    between atoms: C2_47  and  N_85 
REMARK       I    between atoms: O1_50  and  C4_73 
REMARK       I    between atoms: O1_50  and  C1_76 
REMARK       I    between atoms: C1_52  and  O1_82 
REMARK       I    between atoms: C3_54  and  O3_72 
REMARK       I    between atoms: C5_57  and  C6_88 
REMARK       I    between atoms: O1_59  and  C1_78 
REMARK       I    between atoms: O2_63  and  C2_68 
REMARK       I    between atoms: N_70  and  C2_74 
ROOT
ATOM      1  O6B BDP d 216      29.171 -20.800  82.364  0.00  0.00    -0.646 OA
ATOM      2  C6  BDP d 216      30.112 -20.290  81.718  0.00  0.00     0.206 C 
ATOM      3  C3  BDP d 216      28.340 -19.319  78.419  0.00  0.00     0.092 C 
ATOM      4  O6A BDP d 216      31.194 -19.934  82.231  0.00  0.00    -0.646 OA
ATOM      5  O5  BDP d 216      29.960 -21.358  79.580  0.00  0.00    -0.340 OA
ATOM      6  C4  BDP d 216      28.619 -19.367  79.920  0.00  0.00     0.103 C 
ATOM      7  O2  BDP d 216      28.470 -20.588  76.379  0.00  0.00    -0.388 OA
ATOM      8  C5  BDP d 216      29.932 -20.094  80.216  0.00  0.00     0.152 C 
ATOM      9  O1  BDP d 216      30.094 -22.517  77.571  0.00  0.00    -0.368 OA
ATOM     10  O3  BDP d 216      27.015 -18.883  78.195  0.00  0.00    -0.390 OA
ATOM     11  C1  BDP d 216      29.906 -21.252  78.174  0.00  0.00     0.156 C 
ATOM     12  C2  BDP d 216      28.546 -20.691  77.782  0.00  0.00     0.110 C 
ATOM     13  H   BDP d 216      29.025 -18.631  77.969  0.00  0.00     0.091 H 
ATOM     14  H   BDP d 216      27.849 -19.919  80.419  0.00  0.00     0.092 H 
ATOM     15  H   BDP d 216      27.603 -20.231  76.127  0.00  0.00     0.210 HD
ATOM     16  H   BDP d 216      30.730 -19.490  79.837  0.00  0.00     0.104 H 
ATOM     17  H   BDP d 216      30.961 -22.870  77.823  0.00  0.00     0.212 HD
ATOM     18  H   BDP d 216      26.396 -19.507  78.604  0.00  0.00     0.210 HD
ATOM     19  H   BDP d 216      30.687 -20.602  77.836  0.00  0.00     0.133 H 
ATOM     20  H   BDP d 216      27.778 -21.349  78.132  0.00  0.00     0.094 H 
ATOM     21  O4  ASG d 217      25.472 -15.171  81.675  0.00  0.00    -0.246 OA
ATOM     22  O7  ASG d 217      29.984 -14.838  81.448  0.00  0.00    -0.274 OA
ATOM     23  O1  ASG d 217      28.643 -18.066  80.390  0.00  0.00    -0.348 OA
ATOM     24  C5  ASG d 217      25.206 -17.604  81.851  0.00  0.00     0.090 C 
ATOM     25  C1  ASG d 217      27.641 -17.814  81.360  0.00  0.00     0.154 C 
ATOM     26  C6  ASG d 217      23.745 -17.776  81.296  0.00  0.00     0.043 C 
ATOM     27  OSA ASG d 217      24.199 -13.766  83.368  0.00  0.00    -0.572 OA
ATOM     28  C3  ASG d 217      26.828 -16.396  83.305  0.00  0.00     0.094 C 
ATOM     29  C7  ASG d 217      30.309 -15.655  82.237  0.00  0.00     0.214 C 
ATOM     30  C2  ASG d 217      27.938 -16.585  82.278  0.00  0.00     0.087 C 
ATOM     31  O5  ASG d 217      26.248 -17.750  80.812  0.00  0.00    -0.349 OA
ATOM     32  OSB ASG d 217      23.213 -14.144  81.210  0.00  0.00    -0.572 OA
ATOM     33  OSC ASG d 217      25.114 -12.697  81.456  0.00  0.00    -0.572 OA
ATOM     34  C8  ASG d 217      31.727 -15.614  82.833  0.00  0.00    -0.003 C 
ATOM     35  S   ASG d 217      24.455 -13.905  81.935  0.00  0.00     0.252 S 
ATOM     36  O6  ASG d 217      23.186 -19.082  81.274  0.00  0.00    -0.398 OA
ATOM     37  C4  ASG d 217      25.488 -16.257  82.586  0.00  0.00     0.114 C 
ATOM     38  N   ASG d 217      29.315 -16.565  82.799  0.00  0.00    -0.349 N 
ATOM     39  H   ASG d 217      25.258 -18.401  82.563  0.00  0.00     0.090 H 
ATOM     40  H   ASG d 217      27.684 -18.685  81.980  0.00  0.00     0.132 H 
ATOM     41  H   ASG d 217      23.743 -17.413  80.289  0.00  0.00     0.078 H 
ATOM     42  H   ASG d 217      23.132 -17.236  81.988  0.00  0.00     0.078 H 
ATOM     43  H   ASG d 217      26.881 -17.211  83.996  0.00  0.00     0.091 H 
ATOM     44  H   ASG d 217      27.917 -15.698  81.679  0.00  0.00     0.084 H 
ATOM     45  H   ASG d 217      32.317 -14.897  82.302  0.00  0.00     0.040 H 
ATOM     46  H   ASG d 217      32.178 -16.580  82.746  0.00  0.00     0.040 H 
ATOM     47  H   ASG d 217      31.673 -15.337  83.866  0.00  0.00     0.040 H 
ATOM     48  H   ASG d 217      23.691 -19.640  80.662  0.00  0.00     0.209 HD
ATOM     49  H   ASG d 217      24.723 -16.047  83.304  0.00  0.00     0.093 H 
ATOM     50  H   ASG d 217      29.568 -17.171  83.532  0.00  0.00     0.163 HD
ATOM     51  C6  BDP d 218      25.912 -16.271  88.352  0.00  0.00     0.206 C 
ATOM     52  O3  BDP d 218      28.775 -12.408  87.349  0.00  0.00    -0.390 OA
ATOM     53  C1  BDP d 218      27.459 -15.134  85.182  0.00  0.00     0.160 C 
ATOM     54  C2  BDP d 218      27.894 -13.725  85.577  0.00  0.00     0.110 C 
ATOM     55  O6A BDP d 218      26.168 -17.371  88.893  0.00  0.00    -0.646 OA
ATOM     56  O1  BDP d 218      26.956 -15.126  83.859  0.00  0.00    -0.348 OA
ATOM     57  C3  BDP d 218      28.445 -13.728  86.992  0.00  0.00     0.092 C 
ATOM     58  O5  BDP d 218      26.465 -15.549  86.098  0.00  0.00    -0.340 OA
ATOM     59  C5  BDP d 218      26.961 -15.664  87.422  0.00  0.00     0.152 C 
ATOM     60  C4  BDP d 218      27.398 -14.298  87.943  0.00  0.00     0.103 C 
ATOM     61  O2  BDP d 218      28.880 -13.236  84.695  0.00  0.00    -0.388 OA
ATOM     62  O6B BDP d 218      24.854 -15.634  88.547  0.00  0.00    -0.646 OA
ATOM     63  H   BDP d 218      29.441 -12.064  86.732  0.00  0.00     0.210 HD
ATOM     64  H   BDP d 218      28.286 -15.812  85.212  0.00  0.00     0.133 H 
ATOM     65  H   BDP d 218      27.037 -13.087  85.526  0.00  0.00     0.094 H 
ATOM     66  H   BDP d 218      29.322 -14.338  87.050  0.00  0.00     0.091 H 
ATOM     67  H   BDP d 218      27.807 -16.317  87.402  0.00  0.00     0.104 H 
ATOM     68  H   BDP d 218      26.631 -13.562  88.060  0.00  0.00     0.092 H 
ATOM     69  H   BDP d 218      29.663 -13.808  84.734  0.00  0.00     0.210 HD
ATOM     70  O4  ASG d 221      23.234 -21.223  99.597  0.00  0.00    -0.249 OA
ATOM     71  OSB ASG d 221      22.707 -23.524  98.635  0.00  0.00    -0.572 OA
ATOM     72  OSC ASG d 221      24.065 -23.420 100.599  0.00  0.00    -0.572 OA
ATOM     73  C2  ASG d 221      23.305 -18.480  99.182  0.00  0.00     0.062 C 
ATOM     74  C1  ASG d 221      24.762 -18.480  98.604  0.00  0.00     0.151 C 
ATOM     75  C3  ASG d 221      23.275 -19.018 100.596  0.00  0.00    -0.014 C 
ATOM     76  O7  ASG d 221      20.796 -17.743 100.385  0.00  0.00    -0.274 OA
ATOM     77  C7  ASG d 221      21.412 -16.887  99.851  0.00  0.00     0.214 C 
ATOM     78  O6  ASG d 221      27.691 -21.221 100.503  0.00  0.00    -0.398 OA
ATOM     79  O1  ASG d 221      24.835 -18.183  97.213  0.00  0.00    -0.348 OA
ATOM     80  C5  ASG d 221      25.355 -20.153 100.397  0.00  0.00     0.088 C 
ATOM     81  C4  ASG d 221      23.839 -20.417 100.596  0.00  0.00     0.089 C 
ATOM     82  OSA ASG d 221      24.943 -22.748  98.480  0.00  0.00    -0.572 OA
ATOM     83  S   ASG d 221      23.752 -22.771  99.325  0.00  0.00     0.252 S 
ATOM     84  O5  ASG d 221      25.533 -19.708  98.998  0.00  0.00    -0.349 OA
ATOM     85  C8  ASG d 221      20.847 -15.456  99.823  0.00  0.00    -0.003 C 
ATOM     86  C6  ASG d 221      26.332 -21.275 100.910  0.00  0.00     0.043 C 
ATOM     87  N   ASG d 221      22.582 -17.205  99.032  0.00  0.00    -0.352 N 
ATOM     88  H   ASG d 221      22.748 -19.156  98.567  0.00  0.00     0.080 H 
ATOM     89  H   ASG d 221      25.256 -17.655  99.073  0.00  0.00     0.132 H 
ATOM     90  H   ASG d 221      22.266 -19.038 100.953  0.00  0.00     0.040 H 
ATOM     91  H   ASG d 221      23.860 -18.391 101.236  0.00  0.00     0.040 H 
ATOM     92  H   ASG d 221      28.174 -21.968 100.890  0.00  0.00     0.209 HD
ATOM     93  H   ASG d 221      25.673 -19.373 101.057  0.00  0.00     0.090 H 
ATOM     94  H   ASG d 221      23.650 -20.983 101.484  0.00  0.00     0.089 H 
ATOM     95  H   ASG d 221      19.999 -15.396 100.472  0.00  0.00     0.040 H 
ATOM     96  H   ASG d 221      20.550 -15.209  98.825  0.00  0.00     0.040 H 
ATOM     97  H   ASG d 221      21.598 -14.769 100.151  0.00  0.00     0.040 H 
ATOM     98  H   ASG d 221      26.320 -21.241 101.979  0.00  0.00     0.078 H 
ATOM     99  H   ASG d 221      25.958 -22.173 100.466  0.00  0.00     0.078 H 
ATOM    100  H   ASG d 221      22.893 -16.551  98.365  0.00  0.00     0.163 HD
ATOM    101  O5  BDP d 220      25.999 -15.349  95.454  0.00  0.00    -0.340 OA
ATOM    102  C5  BDP d 220      25.087 -16.298  95.966  0.00  0.00     0.152 C 
ATOM    103  C6  BDP d 220      23.933 -15.598  96.679  0.00  0.00     0.206 C 
ATOM    104  C1  BDP d 220      26.888 -15.938  94.530  0.00  0.00     0.160 C 
ATOM    105  C3  BDP d 220      26.911 -17.970  96.087  0.00  0.00     0.092 C 
ATOM    106  O2  BDP d 220      28.538 -17.656  94.329  0.00  0.00    -0.388 OA
ATOM    107  O6B BDP d 220      24.206 -14.812  97.619  0.00  0.00    -0.646 OA
ATOM    108  C2  BDP d 220      27.737 -16.971  95.266  0.00  0.00     0.110 C 
ATOM    109  O3  BDP d 220      27.764 -18.679  96.969  0.00  0.00    -0.390 OA
ATOM    110  O1  BDP d 220      27.743 -14.956  93.962  0.00  0.00    -0.348 OA
ATOM    111  O6A BDP d 220      22.768 -15.849  96.286  0.00  0.00    -0.646 OA
ATOM    112  C4  BDP d 220      25.822 -17.262  96.893  0.00  0.00     0.103 C 
ATOM    113  H   BDP d 220      24.666 -16.863  95.161  0.00  0.00     0.104 H 
ATOM    114  H   BDP d 220      26.327 -16.399  93.744  0.00  0.00     0.133 H 
ATOM    115  H   BDP d 220      26.439 -18.648  95.407  0.00  0.00     0.091 H 
ATOM    116  H   BDP d 220      29.055 -17.016  93.816  0.00  0.00     0.210 HD
ATOM    117  H   BDP d 220      28.343 -16.440  95.971  0.00  0.00     0.094 H 
ATOM    118  H   BDP d 220      28.186 -18.055  97.581  0.00  0.00     0.210 HD
ATOM    119  H   BDP d 220      26.274 -16.796  97.744  0.00  0.00     0.092 H 
ATOM    120  OSC ASG d 219      30.963 -11.279  93.852  0.00  0.00    -0.572 OA
ATOM    121  C5  ASG d 219      26.968 -12.179  91.656  0.00  0.00     0.090 C 
ATOM    122  C3  ASG d 219      27.223 -14.358  92.820  0.00  0.00     0.094 C 
ATOM    123  C6  ASG d 219      27.022 -10.615  91.732  0.00  0.00     0.043 C 
ATOM    124  C7  ASG d 219      28.803 -17.325  91.124  0.00  0.00     0.214 C 
ATOM    125  C4  ASG d 219      27.591 -12.883  92.892  0.00  0.00     0.114 C 
ATOM    126  S   ASG d 219      29.564 -11.592  94.138  0.00  0.00     0.252 S 
ATOM    127  C8  ASG d 219      28.578 -18.832  90.880  0.00  0.00    -0.003 C 
ATOM    128  O7  ASG d 219      29.878 -16.860  90.981  0.00  0.00    -0.274 OA
ATOM    129  O6  ASG d 219      26.655  -9.862  90.584  0.00  0.00    -0.398 OA
ATOM    130  OSB ASG d 219      28.843 -10.321  94.144  0.00  0.00    -0.572 OA
ATOM    131  O1  ASG d 219      28.034 -14.718  89.101  0.00  0.00    -0.348 OA
ATOM    132  O4  ASG d 219      28.982 -12.617  92.972  0.00  0.00    -0.246 OA
ATOM    133  OSA ASG d 219      29.422 -12.298  95.414  0.00  0.00    -0.572 OA
ATOM    134  O5  ASG d 219      27.663 -12.733  90.475  0.00  0.00    -0.349 OA
ATOM    135  N   ASG d 219      27.690 -16.458  91.503  0.00  0.00    -0.349 N 
ATOM    136  C2  ASG d 219      27.856 -14.996  91.594  0.00  0.00     0.087 C 
ATOM    137  C1  ASG d 219      27.454 -14.208  90.293  0.00  0.00     0.154 C 
ATOM    138  H   ASG d 219      25.917 -12.375  91.604  0.00  0.00     0.090 H 
ATOM    139  H   ASG d 219      26.162 -14.480  92.757  0.00  0.00     0.091 H 
ATOM    140  H   ASG d 219      28.029 -10.346  91.976  0.00  0.00     0.078 H 
ATOM    141  H   ASG d 219      26.276 -10.364  92.456  0.00  0.00     0.078 H 
ATOM    142  H   ASG d 219      27.197 -12.500  93.810  0.00  0.00     0.093 H 
ATOM    143  H   ASG d 219      27.550 -19.072  91.056  0.00  0.00     0.040 H 
ATOM    144  H   ASG d 219      29.197 -19.396  91.546  0.00  0.00     0.040 H 
ATOM    145  H   ASG d 219      28.832 -19.071  89.869  0.00  0.00     0.040 H 
ATOM    146  H   ASG d 219      27.289 -10.033  89.870  0.00  0.00     0.209 HD
ATOM    147  H   ASG d 219      26.812 -16.858  91.702  0.00  0.00     0.163 HD
ATOM    148  H   ASG d 219      28.916 -14.900  91.705  0.00  0.00     0.084 H 
ATOM    149  H   ASG d 219      26.405 -14.368  90.151  0.00  0.00     0.132 H 
ENDROOT
TORSDOF 38
ENDMDL
MODEL 33
REMARK VINA RESULT:      -6.5      4.330      6.534
REMARK  0 active torsions:
REMARK  status: ('A' for Active; 'I' for Inactive)
REMARK       I    between atoms: C6_2  and  C5_55 
REMARK       I    between atoms: O4_3  and  C4_83 
REMARK       I    between atoms: O4_3  and  S_75 
REMARK       I    between atoms: C6_4  and  C5_67 
REMARK       I    between atoms: O4_5  and  C4_61 
REMARK       I    between atoms: O4_5  and  S_71 
REMARK       I    between atoms: O3_6  and  C3_32 
REMARK       I    between atoms: C1_8  and  O1_30 
REMARK       I    between atoms: C3_12  and  O3_62 
REMARK       I    between atoms: C5_13  and  C6_25 
REMARK       I    between atoms: O1_14  and  C4_39 
REMARK       I    between atoms: O1_14  and  C1_23 
REMARK       I    between atoms: C5_15  and  C6_27 
REMARK       I    between atoms: C5_18  and  C6_44 
REMARK       I    between atoms: C3_19  and  O1_82 
REMARK       I    between atoms: C2_20  and  N_89 
REMARK       I    between atoms: C2_21  and  O2_80 
REMARK       I    between atoms: C1_24  and  O1_45 
REMARK       I    between atoms: C6_25  and  O6_48 
REMARK       I    between atoms: C6_27  and  O6_77 
REMARK       I    between atoms: C7_28  and  C8_35 
REMARK       I    between atoms: C7_28  and  N_70 
REMARK       I    between atoms: O1_30  and  C3_43 
REMARK       I    between atoms: C4_33  and  O4_53 
REMARK       I    between atoms: S_34  and  O4_53 
REMARK       I    between atoms: O2_40  and  C2_87 
REMARK       I    between atoms: C7_41  and  C8_81 
REMARK       I    between atoms: C7_41  and  N_89 
REMARK       I    between atoms: O6_42  and  C6_88 
REMARK       I    between atoms: O1_45  and  C4_90 
REMARK       I    between atoms: C7_46  and  C8_69 
REMARK       I    between atoms: C7_46  and  N_85 
REMARK       I    between atoms: C2_47  and  N_85 
REMARK       I    between atoms: O1_50  and  C4_73 
REMARK       I    between atoms: O1_50  and  C1_76 
REMARK       I    between atoms: C1_52  and  O1_82 
REMARK       I    between atoms: C3_54  and  O3_72 
REMARK       I    between atoms: C5_57  and  C6_88 
REMARK       I    between atoms: O1_59  and  C1_78 
REMARK       I    between atoms: O2_63  and  C2_68 
REMARK       I    between atoms: N_70  and  C2_74 
ROOT
ATOM      1  O6B BDP d 216      27.914  -8.814  91.774  0.00  0.00    -0.646 OA
ATOM      2  C6  BDP d 216      29.062  -8.759  92.265  0.00  0.00     0.206 C 
ATOM      3  C3  BDP d 216      28.268  -8.365  96.032  0.00  0.00     0.092 C 
ATOM      4  O6A BDP d 216      30.097  -9.098  91.653  0.00  0.00    -0.646 OA
ATOM      5  O5  BDP d 216      28.957  -6.854  93.713  0.00  0.00    -0.340 OA
ATOM      6  C4  BDP d 216      28.257  -8.985  94.635  0.00  0.00     0.103 C 
ATOM      7  O2  BDP d 216      28.346  -6.280  97.229  0.00  0.00    -0.388 OA
ATOM      8  C5  BDP d 216      29.211  -8.246  93.695  0.00  0.00     0.152 C 
ATOM      9  O1  BDP d 216      29.068  -4.877  94.929  0.00  0.00    -0.368 OA
ATOM     10  O3  BDP d 216      27.200  -8.891  96.793  0.00  0.00    -0.390 OA
ATOM     11  C1  BDP d 216      29.179  -6.286  94.985  0.00  0.00     0.156 C 
ATOM     12  C2  BDP d 216      28.146  -6.845  95.954  0.00  0.00     0.110 C 
ATOM     13  H   BDP d 216      29.197  -8.607  96.502  0.00  0.00     0.091 H 
ATOM     14  H   BDP d 216      27.281  -8.900  94.204  0.00  0.00     0.092 H 
ATOM     15  H   BDP d 216      27.689  -6.635  97.848  0.00  0.00     0.210 HD
ATOM     16  H   BDP d 216      30.209  -8.428  94.037  0.00  0.00     0.104 H 
ATOM     17  H   BDP d 216      29.728  -4.526  94.311  0.00  0.00     0.212 HD
ATOM     18  H   BDP d 216      26.358  -8.671  96.365  0.00  0.00     0.210 HD
ATOM     19  H   BDP d 216      30.168  -6.529  95.316  0.00  0.00     0.133 H 
ATOM     20  H   BDP d 216      27.165  -6.598  95.606  0.00  0.00     0.094 H 
ATOM     21  O4  ASG d 217      26.305 -14.033  95.777  0.00  0.00    -0.246 OA
ATOM     22  O7  ASG d 217      30.669 -13.329  94.786  0.00  0.00    -0.274 OA
ATOM     23  O1  ASG d 217      28.600 -10.319  94.760  0.00  0.00    -0.348 OA
ATOM     24  C5  ASG d 217      25.276 -12.083  94.699  0.00  0.00     0.090 C 
ATOM     25  C1  ASG d 217      27.574 -11.194  94.321  0.00  0.00     0.154 C 
ATOM     26  C6  ASG d 217      23.951 -11.956  95.536  0.00  0.00     0.043 C 
ATOM     27  OSA ASG d 217      25.257 -16.293  95.271  0.00  0.00    -0.572 OA
ATOM     28  C3  ASG d 217      26.918 -13.494  93.468  0.00  0.00     0.094 C 
ATOM     29  C7  ASG d 217      30.586 -12.941  93.673  0.00  0.00     0.214 C 
ATOM     30  C2  ASG d 217      28.074 -12.627  93.950  0.00  0.00     0.087 C 
ATOM     31  O5  ASG d 217      26.384 -11.259  95.229  0.00  0.00    -0.349 OA
ATOM     32  OSB ASG d 217      24.587 -15.132  97.265  0.00  0.00    -0.572 OA
ATOM     33  OSC ASG d 217      26.770 -16.119  97.092  0.00  0.00    -0.572 OA
ATOM     34  C8  ASG d 217      31.825 -12.983  92.760  0.00  0.00    -0.003 C 
ATOM     35  S   ASG d 217      25.699 -15.440  96.374  0.00  0.00     0.252 S 
ATOM     36  O6  ASG d 217      23.029 -10.935  95.179  0.00  0.00    -0.398 OA
ATOM     37  C4  ASG d 217      25.830 -13.532  94.539  0.00  0.00     0.114 C 
ATOM     38  N   ASG d 217      29.280 -12.623  93.105  0.00  0.00    -0.349 N 
ATOM     39  H   ASG d 217      24.957 -11.729  93.741  0.00  0.00     0.090 H 
ATOM     40  H   ASG d 217      27.239 -10.734  93.414  0.00  0.00     0.132 H 
ATOM     41  H   ASG d 217      24.233 -11.788  96.554  0.00  0.00     0.078 H 
ATOM     42  H   ASG d 217      23.426 -12.868  95.341  0.00  0.00     0.078 H 
ATOM     43  H   ASG d 217      26.598 -13.114  92.520  0.00  0.00     0.091 H 
ATOM     44  H   ASG d 217      28.430 -13.105  94.839  0.00  0.00     0.084 H 
ATOM     45  H   ASG d 217      32.688 -13.230  93.341  0.00  0.00     0.040 H 
ATOM     46  H   ASG d 217      31.964 -12.026  92.304  0.00  0.00     0.040 H 
ATOM     47  H   ASG d 217      31.682 -13.724  92.000  0.00  0.00     0.040 H 
ATOM     48  H   ASG d 217      23.434 -10.067  95.329  0.00  0.00     0.209 HD
ATOM     49  H   ASG d 217      25.055 -14.204  94.231  0.00  0.00     0.093 H 
ATOM     50  H   ASG d 217      29.205 -12.403  92.148  0.00  0.00     0.163 HD
ATOM     51  C6  BDP d 218      25.236 -16.186  89.436  0.00  0.00     0.206 C 
ATOM     52  O3  BDP d 218      29.277 -18.460  91.056  0.00  0.00    -0.390 OA
ATOM     53  C1  BDP d 218      27.577 -15.348  92.186  0.00  0.00     0.160 C 
ATOM     54  C2  BDP d 218      28.350 -16.659  92.298  0.00  0.00     0.110 C 
ATOM     55  O6A BDP d 218      25.045 -15.452  88.441  0.00  0.00    -0.646 OA
ATOM     56  O1  BDP d 218      27.335 -14.822  93.477  0.00  0.00    -0.348 OA
ATOM     57  C3  BDP d 218      28.623 -17.223  90.915  0.00  0.00     0.092 C 
ATOM     58  O5  BDP d 218      26.361 -15.623  91.516  0.00  0.00    -0.340 OA
ATOM     59  C5  BDP d 218      26.564 -16.058  90.181  0.00  0.00     0.152 C 
ATOM     60  C4  BDP d 218      27.305 -17.392  90.167  0.00  0.00     0.103 C 
ATOM     61  O2  BDP d 218      29.574 -16.466  92.972  0.00  0.00    -0.388 OA
ATOM     62  O6B BDP d 218      24.409 -17.032  89.841  0.00  0.00    -0.646 OA
ATOM     63  H   BDP d 218      30.112 -18.331  91.534  0.00  0.00     0.210 HD
ATOM     64  H   BDP d 218      28.136 -14.620  91.637  0.00  0.00     0.133 H 
ATOM     65  H   BDP d 218      27.754 -17.349  92.857  0.00  0.00     0.094 H 
ATOM     66  H   BDP d 218      29.246 -16.557  90.356  0.00  0.00     0.091 H 
ATOM     67  H   BDP d 218      27.158 -15.324  89.680  0.00  0.00     0.104 H 
ATOM     68  H   BDP d 218      26.794 -18.229  90.596  0.00  0.00     0.092 H 
ATOM     69  H   BDP d 218      30.124 -15.841  92.472  0.00  0.00     0.210 HD
ATOM     70  O4  ASG d 221      19.281 -17.824  78.482  0.00  0.00    -0.249 OA
ATOM     71  OSB ASG d 221      18.244 -15.497  78.516  0.00  0.00    -0.572 OA
ATOM     72  OSC ASG d 221      19.211 -16.256  76.468  0.00  0.00    -0.572 OA
ATOM     73  C2  ASG d 221      20.264 -19.963  79.951  0.00  0.00     0.062 C 
ATOM     74  C1  ASG d 221      21.726 -19.404  80.022  0.00  0.00     0.151 C 
ATOM     75  C3  ASG d 221      19.828 -20.182  78.518  0.00  0.00    -0.014 C 
ATOM     76  O7  ASG d 221      17.938 -21.659  79.954  0.00  0.00    -0.274 OA
ATOM     77  C7  ASG d 221      18.869 -22.018  80.587  0.00  0.00     0.214 C 
ATOM     78  O6  ASG d 221      23.298 -17.388  76.393  0.00  0.00    -0.398 OA
ATOM     79  O1  ASG d 221      22.124 -18.981  81.322  0.00  0.00    -0.348 OA
ATOM     80  C5  ASG d 221      21.459 -18.708  77.611  0.00  0.00     0.088 C 
ATOM     81  C4  ASG d 221      19.925 -18.873  77.776  0.00  0.00     0.089 C 
ATOM     82  OSA ASG d 221      20.602 -15.651  78.315  0.00  0.00    -0.572 OA
ATOM     83  S   ASG d 221      19.335 -16.267  77.926  0.00  0.00     0.252 S 
ATOM     84  O5  ASG d 221      22.002 -18.389  78.950  0.00  0.00    -0.349 OA
ATOM     85  C8  ASG d 221      18.786 -23.341  81.368  0.00  0.00    -0.003 C 
ATOM     86  C6  ASG d 221      21.940 -17.801  76.420  0.00  0.00     0.043 C 
ATOM     87  N   ASG d 221      20.006 -21.126  80.819  0.00  0.00    -0.352 N 
ATOM     88  H   ASG d 221      19.640 -19.199  80.366  0.00  0.00     0.080 H 
ATOM     89  H   ASG d 221      22.363 -20.239  79.813  0.00  0.00     0.132 H 
ATOM     90  H   ASG d 221      18.817 -20.533  78.499  0.00  0.00     0.040 H 
ATOM     91  H   ASG d 221      20.459 -20.911  78.053  0.00  0.00     0.040 H 
ATOM     92  H   ASG d 221      23.454 -16.838  75.610  0.00  0.00     0.209 HD
ATOM     93  H   ASG d 221      21.884 -19.630  77.271  0.00  0.00     0.090 H 
ATOM     94  H   ASG d 221      19.422 -18.848  76.832  0.00  0.00     0.089 H 
ATOM     95  H   ASG d 221      17.900 -23.868  81.081  0.00  0.00     0.040 H 
ATOM     96  H   ASG d 221      18.755 -23.135  82.417  0.00  0.00     0.040 H 
ATOM     97  H   ASG d 221      19.645 -23.939  81.147  0.00  0.00     0.040 H 
ATOM     98  H   ASG d 221      21.756 -18.342  75.515  0.00  0.00     0.078 H 
ATOM     99  H   ASG d 221      21.389 -16.892  76.542  0.00  0.00     0.078 H 
ATOM    100  H   ASG d 221      20.613 -21.308  81.573  0.00  0.00     0.163 HD
ATOM    101  O5  BDP d 220      24.388 -20.345  83.668  0.00  0.00    -0.340 OA
ATOM    102  C5  BDP d 220      23.154 -19.953  83.101  0.00  0.00     0.152 C 
ATOM    103  C6  BDP d 220      22.168 -21.119  83.114  0.00  0.00     0.206 C 
ATOM    104  C1  BDP d 220      25.196 -19.225  83.960  0.00  0.00     0.160 C 
ATOM    105  C3  BDP d 220      24.325 -18.222  81.772  0.00  0.00     0.092 C 
ATOM    106  O2  BDP d 220      26.245 -17.335  82.940  0.00  0.00    -0.388 OA
ATOM    107  O6B BDP d 220      22.505 -22.187  82.548  0.00  0.00    -0.646 OA
ATOM    108  C2  BDP d 220      25.546 -18.526  82.650  0.00  0.00     0.110 C 
ATOM    109  O3  BDP d 220      24.754 -17.869  80.469  0.00  0.00    -0.390 OA
ATOM    110  O1  BDP d 220      26.396 -19.630  84.604  0.00  0.00    -0.348 OA
ATOM    111  O6A BDP d 220      21.068 -20.943  83.692  0.00  0.00    -0.646 OA
ATOM    112  C4  BDP d 220      23.386 -19.426  81.689  0.00  0.00     0.103 C 
ATOM    113  H   BDP d 220      22.724 -19.167  83.686  0.00  0.00     0.104 H 
ATOM    114  H   BDP d 220      24.663 -18.565  84.612  0.00  0.00     0.133 H 
ATOM    115  H   BDP d 220      23.791 -17.408  82.217  0.00  0.00     0.091 H 
ATOM    116  H   BDP d 220      27.014 -17.539  83.494  0.00  0.00     0.210 HD
ATOM    117  H   BDP d 220      26.157 -19.199  82.083  0.00  0.00     0.094 H 
ATOM    118  H   BDP d 220      25.237 -18.612  80.075  0.00  0.00     0.210 HD
ATOM    119  H   BDP d 220      23.807 -20.143  81.015  0.00  0.00     0.092 H 
ATOM    120  OSC ASG d 219      30.561 -22.101  85.272  0.00  0.00    -0.572 OA
ATOM    121  C5  ASG d 219      26.921 -21.063  87.966  0.00  0.00     0.090 C 
ATOM    122  C3  ASG d 219      26.289 -19.700  85.988  0.00  0.00     0.094 C 
ATOM    123  C6  ASG d 219      27.441 -22.429  88.530  0.00  0.00     0.043 C 
ATOM    124  C7  ASG d 219      27.143 -16.039  85.763  0.00  0.00     0.214 C 
ATOM    125  C4  ASG d 219      27.076 -20.926  86.427  0.00  0.00     0.114 C 
ATOM    126  S   ASG d 219      29.107 -22.242  85.306  0.00  0.00     0.252 S 
ATOM    127  C8  ASG d 219      26.510 -14.676  85.417  0.00  0.00    -0.003 C 
ATOM    128  O7  ASG d 219      28.316 -16.160  85.763  0.00  0.00    -0.274 OA
ATOM    129  O6  ASG d 219      27.525 -22.599  89.938  0.00  0.00    -0.398 OA
ATOM    130  OSB ASG d 219      28.822 -23.475  86.037  0.00  0.00    -0.572 OA
ATOM    131  O1  ASG d 219      27.573 -17.460  88.809  0.00  0.00    -0.348 OA
ATOM    132  O4  ASG d 219      28.445 -20.922  86.060  0.00  0.00    -0.246 OA
ATOM    133  OSA ASG d 219      28.539 -22.273  83.956  0.00  0.00    -0.572 OA
ATOM    134  O5  ASG d 219      27.603 -19.889  88.552  0.00  0.00    -0.349 OA
ATOM    135  N   ASG d 219      26.304 -17.180  86.120  0.00  0.00    -0.349 N 
ATOM    136  C2  ASG d 219      26.894 -18.445  86.597  0.00  0.00     0.087 C 
ATOM    137  C1  ASG d 219      26.983 -18.579  88.161  0.00  0.00     0.154 C 
ATOM    138  H   ASG d 219      25.886 -21.074  88.238  0.00  0.00     0.090 H 
ATOM    139  H   ASG d 219      25.269 -19.773  86.304  0.00  0.00     0.091 H 
ATOM    140  H   ASG d 219      28.424 -22.579  88.136  0.00  0.00     0.078 H 
ATOM    141  H   ASG d 219      26.695 -23.134  88.229  0.00  0.00     0.078 H 
ATOM    142  H   ASG d 219      26.668 -21.769  85.909  0.00  0.00     0.093 H 
ATOM    143  H   ASG d 219      25.444 -14.754  85.468  0.00  0.00     0.040 H 
ATOM    144  H   ASG d 219      26.801 -14.389  84.428  0.00  0.00     0.040 H 
ATOM    145  H   ASG d 219      26.847 -13.939  86.116  0.00  0.00     0.040 H 
ATOM    146  H   ASG d 219      28.188 -21.988  90.298  0.00  0.00     0.209 HD
ATOM    147  H   ASG d 219      25.325 -17.104  86.041  0.00  0.00     0.163 HD
ATOM    148  H   ASG d 219      27.897 -18.374  86.230  0.00  0.00     0.084 H 
ATOM    149  H   ASG d 219      25.977 -18.579  88.525  0.00  0.00     0.132 H 
ENDROOT
TORSDOF 38
ENDMDL
MODEL 34
REMARK VINA RESULT:      -6.5      2.671      3.309
REMARK  0 active torsions:
REMARK  status: ('A' for Active; 'I' for Inactive)
REMARK       I    between atoms: C6_2  and  C5_55 
REMARK       I    between atoms: O4_3  and  C4_83 
REMARK       I    between atoms: O4_3  and  S_75 
REMARK       I    between atoms: C6_4  and  C5_67 
REMARK       I    between atoms: O4_5  and  C4_61 
REMARK       I    between atoms: O4_5  and  S_71 
REMARK       I    between atoms: O3_6  and  C3_32 
REMARK       I    between atoms: C1_8  and  O1_30 
REMARK       I    between atoms: C3_12  and  O3_62 
REMARK       I    between atoms: C5_13  and  C6_25 
REMARK       I    between atoms: O1_14  and  C4_39 
REMARK       I    between atoms: O1_14  and  C1_23 
REMARK       I    between atoms: C5_15  and  C6_27 
REMARK       I    between atoms: C5_18  and  C6_44 
REMARK       I    between atoms: C3_19  and  O1_82 
REMARK       I    between atoms: C2_20  and  N_89 
REMARK       I    between atoms: C2_21  and  O2_80 
REMARK       I    between atoms: C1_24  and  O1_45 
REMARK       I    between atoms: C6_25  and  O6_48 
REMARK       I    between atoms: C6_27  and  O6_77 
REMARK       I    between atoms: C7_28  and  C8_35 
REMARK       I    between atoms: C7_28  and  N_70 
REMARK       I    between atoms: O1_30  and  C3_43 
REMARK       I    between atoms: C4_33  and  O4_53 
REMARK       I    between atoms: S_34  and  O4_53 
REMARK       I    between atoms: O2_40  and  C2_87 
REMARK       I    between atoms: C7_41  and  C8_81 
REMARK       I    between atoms: C7_41  and  N_89 
REMARK       I    between atoms: O6_42  and  C6_88 
REMARK       I    between atoms: O1_45  and  C4_90 
REMARK       I    between atoms: C7_46  and  C8_69 
REMARK       I    between atoms: C7_46  and  N_85 
REMARK       I    between atoms: C2_47  and  N_85 
REMARK       I    between atoms: O1_50  and  C4_73 
REMARK       I    between atoms: O1_50  and  C1_76 
REMARK       I    between atoms: C1_52  and  O1_82 
REMARK       I    between atoms: C3_54  and  O3_72 
REMARK       I    between atoms: C5_57  and  C6_88 
REMARK       I    between atoms: O1_59  and  C1_78 
REMARK       I    between atoms: O2_63  and  C2_68 
REMARK       I    between atoms: N_70  and  C2_74 
ROOT
ATOM      1  O6B BDP d 216      28.866  -7.388  97.465  0.00  0.00    -0.646 OA
ATOM      2  C6  BDP d 216      29.168  -8.030  98.494  0.00  0.00     0.206 C 
ATOM      3  C3  BDP d 216      26.141  -7.280 100.785  0.00  0.00     0.092 C 
ATOM      4  O6A BDP d 216      30.054  -8.909  98.528  0.00  0.00    -0.646 OA
ATOM      5  O5  BDP d 216      28.818  -6.448 100.258  0.00  0.00    -0.340 OA
ATOM      6  C4  BDP d 216      26.904  -7.758  99.551  0.00  0.00     0.103 C 
ATOM      7  O2  BDP d 216      26.149  -5.659 102.564  0.00  0.00    -0.388 OA
ATOM      8  C5  BDP d 216      28.416  -7.720  99.785  0.00  0.00     0.152 C 
ATOM      9  O1  BDP d 216      28.787  -4.935 102.021  0.00  0.00    -0.368 OA
ATOM     10  O3  BDP d 216      24.783  -7.078 100.456  0.00  0.00    -0.390 OA
ATOM     11  C1  BDP d 216      28.243  -6.135 101.508  0.00  0.00     0.156 C 
ATOM     12  C2  BDP d 216      26.739  -5.983 101.326  0.00  0.00     0.110 C 
ATOM     13  H   BDP d 216      26.220  -8.030 101.543  0.00  0.00     0.091 H 
ATOM     14  H   BDP d 216      26.710  -7.107  98.724  0.00  0.00     0.092 H 
ATOM     15  H   BDP d 216      25.190  -5.562 102.449  0.00  0.00     0.210 HD
ATOM     16  H   BDP d 216      28.649  -8.461 100.520  0.00  0.00     0.104 H 
ATOM     17  H   BDP d 216      29.745  -5.037 102.135  0.00  0.00     0.212 HD
ATOM     18  H   BDP d 216      24.714  -6.397  99.768  0.00  0.00     0.210 HD
ATOM     19  H   BDP d 216      28.455  -6.921 102.204  0.00  0.00     0.133 H 
ATOM     20  H   BDP d 216      26.546  -5.199 100.624  0.00  0.00     0.094 H 
ATOM     21  O4  ASG d 217      22.966 -10.677  96.989  0.00  0.00    -0.246 OA
ATOM     22  O7  ASG d 217      26.397 -12.688  99.158  0.00  0.00    -0.274 OA
ATOM     23  O1  ASG d 217      26.470  -9.037  99.253  0.00  0.00    -0.348 OA
ATOM     24  C5  ASG d 217      23.958  -8.486  96.504  0.00  0.00     0.090 C 
ATOM     25  C1  ASG d 217      25.868  -9.128  97.972  0.00  0.00     0.154 C 
ATOM     26  C6  ASG d 217      22.663  -7.606  96.361  0.00  0.00     0.043 C 
ATOM     27  OSA ASG d 217      21.846 -11.870  95.043  0.00  0.00    -0.572 OA
ATOM     28  C3  ASG d 217      25.203 -10.583  95.999  0.00  0.00     0.094 C 
ATOM     29  C7  ASG d 217      27.316 -12.314  98.517  0.00  0.00     0.214 C 
ATOM     30  C2  ASG d 217      25.843 -10.575  97.382  0.00  0.00     0.087 C 
ATOM     31  O5  ASG d 217      24.520  -8.485  97.873  0.00  0.00    -0.349 OA
ATOM     32  OSB ASG d 217      20.486 -10.558  96.528  0.00  0.00    -0.572 OA
ATOM     33  OSC ASG d 217      21.432 -12.646  97.248  0.00  0.00    -0.572 OA
ATOM     34  C8  ASG d 217      28.653 -13.074  98.593  0.00  0.00    -0.003 C 
ATOM     35  S   ASG d 217      21.630 -11.456  96.430  0.00  0.00     0.252 S 
ATOM     36  O6  ASG d 217      22.818  -6.234  96.027  0.00  0.00    -0.398 OA
ATOM     37  C4  ASG d 217      23.803  -9.979  96.083  0.00  0.00     0.114 C 
ATOM     38  N   ASG d 217      27.131 -11.278  97.506  0.00  0.00    -0.349 N 
ATOM     39  H   ASG d 217      24.621  -8.002  95.817  0.00  0.00     0.090 H 
ATOM     40  H   ASG d 217      26.526  -8.550  97.357  0.00  0.00     0.132 H 
ATOM     41  H   ASG d 217      22.146  -7.648  97.297  0.00  0.00     0.078 H 
ATOM     42  H   ASG d 217      22.147  -8.027  95.523  0.00  0.00     0.078 H 
ATOM     43  H   ASG d 217      25.867 -10.078  95.329  0.00  0.00     0.091 H 
ATOM     44  H   ASG d 217      25.202 -11.180  97.989  0.00  0.00     0.084 H 
ATOM     45  H   ASG d 217      28.611 -13.790  99.386  0.00  0.00     0.040 H 
ATOM     46  H   ASG d 217      29.446 -12.381  98.780  0.00  0.00     0.040 H 
ATOM     47  H   ASG d 217      28.830 -13.578  97.666  0.00  0.00     0.040 H 
ATOM     48  H   ASG d 217      23.283  -5.776  96.745  0.00  0.00     0.209 HD
ATOM     49  H   ASG d 217      23.327 -10.058  95.127  0.00  0.00     0.093 H 
ATOM     50  H   ASG d 217      27.873 -11.047  96.903  0.00  0.00     0.163 HD
ATOM     51  C6  BDP d 218      26.125 -11.712  91.079  0.00  0.00     0.206 C 
ATOM     52  O3  BDP d 218      26.284 -15.956  93.547  0.00  0.00    -0.390 OA
ATOM     53  C1  BDP d 218      25.761 -12.453  94.692  0.00  0.00     0.160 C 
ATOM     54  C2  BDP d 218      25.585 -13.968  94.647  0.00  0.00     0.110 C 
ATOM     55  O6A BDP d 218      27.038 -10.997  90.606  0.00  0.00    -0.646 OA
ATOM     56  O1  BDP d 218      24.897 -11.899  95.667  0.00  0.00    -0.348 OA
ATOM     57  C3  BDP d 218      26.517 -14.570  93.611  0.00  0.00     0.092 C 
ATOM     58  O5  BDP d 218      25.462 -11.947  93.406  0.00  0.00    -0.340 OA
ATOM     59  C5  BDP d 218      26.372 -12.404  92.418  0.00  0.00     0.152 C 
ATOM     60  C4  BDP d 218      26.261 -13.917  92.257  0.00  0.00     0.103 C 
ATOM     61  O2  BDP d 218      25.852 -14.545  95.905  0.00  0.00    -0.388 OA
ATOM     62  O6B BDP d 218      25.031 -11.907  90.505  0.00  0.00    -0.646 OA
ATOM     63  H   BDP d 218      26.451 -16.352  94.417  0.00  0.00     0.210 HD
ATOM     64  H   BDP d 218      26.763 -12.193  94.961  0.00  0.00     0.133 H 
ATOM     65  H   BDP d 218      24.569 -14.176  94.381  0.00  0.00     0.094 H 
ATOM     66  H   BDP d 218      27.538 -14.398  93.882  0.00  0.00     0.091 H 
ATOM     67  H   BDP d 218      27.362 -12.160  92.742  0.00  0.00     0.104 H 
ATOM     68  H   BDP d 218      25.330 -14.292  91.887  0.00  0.00     0.092 H 
ATOM     69  H   BDP d 218      26.772 -14.363  96.156  0.00  0.00     0.210 HD
ATOM     70  O4  ASG d 221      30.132  -9.388  79.388  0.00  0.00    -0.249 OA
ATOM     71  OSB ASG d 221      30.462  -6.899  79.825  0.00  0.00    -0.572 OA
ATOM     72  OSC ASG d 221      32.188  -8.063  78.652  0.00  0.00    -0.572 OA
ATOM     73  C2  ASG d 221      28.752 -11.708  80.031  0.00  0.00     0.062 C 
ATOM     74  C1  ASG d 221      29.738 -12.126  81.175  0.00  0.00     0.151 C 
ATOM     75  C3  ASG d 221      29.466 -11.612  78.699  0.00  0.00    -0.014 C 
ATOM     76  O7  ASG d 221      26.778 -11.694  77.937  0.00  0.00    -0.274 OA
ATOM     77  C7  ASG d 221      26.691 -12.542  78.757  0.00  0.00     0.214 C 
ATOM     78  O6  ASG d 221      34.062 -11.398  80.486  0.00  0.00    -0.398 OA
ATOM     79  O1  ASG d 221      29.183 -12.035  82.484  0.00  0.00    -0.348 OA
ATOM     80  C5  ASG d 221      31.624 -11.383  79.672  0.00  0.00     0.088 C 
ATOM     81  C4  ASG d 221      30.584 -10.607  78.820  0.00  0.00     0.089 C 
ATOM     82  OSA ASG d 221      31.859  -8.420  80.992  0.00  0.00    -0.572 OA
ATOM     83  S   ASG d 221      31.191  -8.161  79.719  0.00  0.00     0.252 S 
ATOM     84  O5  ASG d 221      31.079 -11.461  81.045  0.00  0.00    -0.349 OA
ATOM     85  C8  ASG d 221      25.546 -13.566  78.664  0.00  0.00    -0.003 C 
ATOM     86  C6  ASG d 221      33.122 -10.925  79.532  0.00  0.00     0.043 C 
ATOM     87  N   ASG d 221      27.511 -12.501  79.967  0.00  0.00    -0.352 N 
ATOM     88  H   ASG d 221      28.409 -10.727  80.286  0.00  0.00     0.080 H 
ATOM     89  H   ASG d 221      29.911 -13.173  81.038  0.00  0.00     0.132 H 
ATOM     90  H   ASG d 221      28.777 -11.294  77.945  0.00  0.00     0.040 H 
ATOM     91  H   ASG d 221      29.864 -12.568  78.430  0.00  0.00     0.040 H 
ATOM     92  H   ASG d 221      34.940 -11.039  80.280  0.00  0.00     0.209 HD
ATOM     93  H   ASG d 221      31.739 -12.373  79.283  0.00  0.00     0.090 H 
ATOM     94  H   ASG d 221      31.002 -10.279  77.891  0.00  0.00     0.089 H 
ATOM     95  H   ASG d 221      25.051 -13.462  77.722  0.00  0.00     0.040 H 
ATOM     96  H   ASG d 221      24.848 -13.393  79.456  0.00  0.00     0.040 H 
ATOM     97  H   ASG d 221      25.945 -14.555  78.751  0.00  0.00     0.040 H 
ATOM     98  H   ASG d 221      33.462 -11.243  78.568  0.00  0.00     0.078 H 
ATOM     99  H   ASG d 221      33.091  -9.868  79.693  0.00  0.00     0.078 H 
ATOM    100  H   ASG d 221      27.227 -13.015  80.757  0.00  0.00     0.163 HD
ATOM    101  O5  BDP d 220      28.188 -14.499  84.812  0.00  0.00    -0.340 OA
ATOM    102  C5  BDP d 220      28.070 -13.446  83.877  0.00  0.00     0.152 C 
ATOM    103  C6  BDP d 220      27.046 -13.800  82.802  0.00  0.00     0.206 C 
ATOM    104  C1  BDP d 220      28.873 -14.080  85.973  0.00  0.00     0.160 C 
ATOM    105  C3  BDP d 220      30.384 -12.733  84.406  0.00  0.00     0.092 C 
ATOM    106  O2  BDP d 220      30.956 -13.169  86.711  0.00  0.00    -0.388 OA
ATOM    107  O6B BDP d 220      27.218 -14.854  82.143  0.00  0.00    -0.646 OA
ATOM    108  C2  BDP d 220      30.302 -13.711  85.585  0.00  0.00     0.110 C 
ATOM    109  O3  BDP d 220      31.712 -12.689  83.916  0.00  0.00    -0.390 OA
ATOM    110  O1  BDP d 220      28.909 -15.123  86.936  0.00  0.00    -0.348 OA
ATOM    111  O6A BDP d 220      26.084 -13.012  82.634  0.00  0.00    -0.646 OA
ATOM    112  C4  BDP d 220      29.440 -13.145  83.275  0.00  0.00     0.103 C 
ATOM    113  H   BDP d 220      27.720 -12.564  84.371  0.00  0.00     0.104 H 
ATOM    114  H   BDP d 220      28.366 -13.238  86.398  0.00  0.00     0.133 H 
ATOM    115  H   BDP d 220      30.088 -11.766  84.755  0.00  0.00     0.091 H 
ATOM    116  H   BDP d 220      30.899 -13.795  87.450  0.00  0.00     0.210 HD
ATOM    117  H   BDP d 220      30.785 -14.608  85.258  0.00  0.00     0.094 H 
ATOM    118  H   BDP d 220      31.970 -13.570  83.602  0.00  0.00     0.210 HD
ATOM    119  H   BDP d 220      29.877 -13.964  82.745  0.00  0.00     0.092 H 
ATOM    120  OSC ASG d 219      29.751 -19.589  88.737  0.00  0.00    -0.572 OA
ATOM    121  C5  ASG d 219      26.180 -16.622  88.919  0.00  0.00     0.090 C 
ATOM    122  C3  ASG d 219      27.814 -15.131  87.792  0.00  0.00     0.094 C 
ATOM    123  C6  ASG d 219      25.511 -18.036  89.011  0.00  0.00     0.043 C 
ATOM    124  C7  ASG d 219      29.919 -12.687  89.735  0.00  0.00     0.214 C 
ATOM    125  C4  ASG d 219      27.441 -16.589  88.014  0.00  0.00     0.114 C 
ATOM    126  S   ASG d 219      28.861 -18.841  87.853  0.00  0.00     0.252 S 
ATOM    127  C8  ASG d 219      30.365 -11.210  89.726  0.00  0.00    -0.003 C 
ATOM    128  O7  ASG d 219      30.524 -13.480  90.366  0.00  0.00    -0.274 OA
ATOM    129  O6  ASG d 219      24.465 -18.238  89.951  0.00  0.00    -0.398 OA
ATOM    130  OSB ASG d 219      27.676 -19.672  87.649  0.00  0.00    -0.572 OA
ATOM    131  O1  ASG d 219      27.372 -14.117  91.452  0.00  0.00    -0.348 OA
ATOM    132  O4  ASG d 219      28.472 -17.393  88.562  0.00  0.00    -0.246 OA
ATOM    133  OSA ASG d 219      29.515 -18.515  86.583  0.00  0.00    -0.572 OA
ATOM    134  O5  ASG d 219      26.603 -16.087  90.231  0.00  0.00    -0.349 OA
ATOM    135  N   ASG d 219      28.735 -13.112  88.993  0.00  0.00    -0.349 N 
ATOM    136  C2  ASG d 219      28.210 -14.485  89.110  0.00  0.00     0.087 C 
ATOM    137  C1  ASG d 219      27.067 -14.661  90.175  0.00  0.00     0.154 C 
ATOM    138  H   ASG d 219      25.401 -16.021  88.498  0.00  0.00     0.090 H 
ATOM    139  H   ASG d 219      26.988 -14.587  87.383  0.00  0.00     0.091 H 
ATOM    140  H   ASG d 219      26.285 -18.736  89.247  0.00  0.00     0.078 H 
ATOM    141  H   ASG d 219      25.034 -18.159  88.062  0.00  0.00     0.078 H 
ATOM    142  H   ASG d 219      27.254 -17.020  87.053  0.00  0.00     0.093 H 
ATOM    143  H   ASG d 219      29.704 -10.641  89.106  0.00  0.00     0.040 H 
ATOM    144  H   ASG d 219      31.362 -11.141  89.344  0.00  0.00     0.040 H 
ATOM    145  H   ASG d 219      30.339 -10.824  90.724  0.00  0.00     0.040 H 
ATOM    146  H   ASG d 219      24.816 -18.142  90.850  0.00  0.00     0.209 HD
ATOM    147  H   ASG d 219      28.279 -12.469  88.402  0.00  0.00     0.163 HD
ATOM    148  H   ASG d 219      29.064 -15.018  89.473  0.00  0.00     0.084 H 
ATOM    149  H   ASG d 219      26.242 -14.068  89.839  0.00  0.00     0.132 H 
ENDROOT
TORSDOF 38
ENDMDL
MODEL 35
REMARK VINA RESULT:      -6.5      4.210      8.276
REMARK  0 active torsions:
REMARK  status: ('A' for Active; 'I' for Inactive)
REMARK       I    between atoms: C6_2  and  C5_55 
REMARK       I    between atoms: O4_3  and  C4_83 
REMARK       I    between atoms: O4_3  and  S_75 
REMARK       I    between atoms: C6_4  and  C5_67 
REMARK       I    between atoms: O4_5  and  C4_61 
REMARK       I    between atoms: O4_5  and  S_71 
REMARK       I    between atoms: O3_6  and  C3_32 
REMARK       I    between atoms: C1_8  and  O1_30 
REMARK       I    between atoms: C3_12  and  O3_62 
REMARK       I    between atoms: C5_13  and  C6_25 
REMARK       I    between atoms: O1_14  and  C4_39 
REMARK       I    between atoms: O1_14  and  C1_23 
REMARK       I    between atoms: C5_15  and  C6_27 
REMARK       I    between atoms: C5_18  and  C6_44 
REMARK       I    between atoms: C3_19  and  O1_82 
REMARK       I    between atoms: C2_20  and  N_89 
REMARK       I    between atoms: C2_21  and  O2_80 
REMARK       I    between atoms: C1_24  and  O1_45 
REMARK       I    between atoms: C6_25  and  O6_48 
REMARK       I    between atoms: C6_27  and  O6_77 
REMARK       I    between atoms: C7_28  and  C8_35 
REMARK       I    between atoms: C7_28  and  N_70 
REMARK       I    between atoms: O1_30  and  C3_43 
REMARK       I    between atoms: C4_33  and  O4_53 
REMARK       I    between atoms: S_34  and  O4_53 
REMARK       I    between atoms: O2_40  and  C2_87 
REMARK       I    between atoms: C7_41  and  C8_81 
REMARK       I    between atoms: C7_41  and  N_89 
REMARK       I    between atoms: O6_42  and  C6_88 
REMARK       I    between atoms: O1_45  and  C4_90 
REMARK       I    between atoms: C7_46  and  C8_69 
REMARK       I    between atoms: C7_46  and  N_85 
REMARK       I    between atoms: C2_47  and  N_85 
REMARK       I    between atoms: O1_50  and  C4_73 
REMARK       I    between atoms: O1_50  and  C1_76 
REMARK       I    between atoms: C1_52  and  O1_82 
REMARK       I    between atoms: C3_54  and  O3_72 
REMARK       I    between atoms: C5_57  and  C6_88 
REMARK       I    between atoms: O1_59  and  C1_78 
REMARK       I    between atoms: O2_63  and  C2_68 
REMARK       I    between atoms: N_70  and  C2_74 
ROOT
ATOM      1  O6B BDP d 216      23.938 -20.459  95.900  0.00  0.00    -0.646 OA
ATOM      2  C6  BDP d 216      22.873 -20.146  96.475  0.00  0.00     0.206 C 
ATOM      3  C3  BDP d 216      24.104 -19.534 100.091  0.00  0.00     0.092 C 
ATOM      4  O6A BDP d 216      21.829 -19.818  95.872  0.00  0.00    -0.646 OA
ATOM      5  O5  BDP d 216      22.881 -21.513  98.441  0.00  0.00    -0.340 OA
ATOM      6  C4  BDP d 216      24.019 -19.376  98.575  0.00  0.00     0.103 C 
ATOM      7  O2  BDP d 216      23.870 -21.111 101.894  0.00  0.00    -0.388 OA
ATOM      8  C5  BDP d 216      22.843 -20.169  98.000  0.00  0.00     0.152 C 
ATOM      9  O1  BDP d 216      22.634 -22.976 100.229  0.00  0.00    -0.368 OA
ATOM     10  O3  BDP d 216      25.333 -19.016 100.556  0.00  0.00    -0.390 OA
ATOM     11  C1  BDP d 216      22.749 -21.621  99.842  0.00  0.00     0.156 C 
ATOM     12  C2  BDP d 216      23.979 -21.002 100.494  0.00  0.00     0.110 C 
ATOM     13  H   BDP d 216      23.295 -18.993 100.534  0.00  0.00     0.091 H 
ATOM     14  H   BDP d 216      24.902 -19.769  98.115  0.00  0.00     0.092 H 
ATOM     15  H   BDP d 216      24.652 -20.717 102.311  0.00  0.00     0.210 HD
ATOM     16  H   BDP d 216      21.942 -19.708  98.346  0.00  0.00     0.104 H 
ATOM     17  H   BDP d 216      21.850 -23.366  99.812  0.00  0.00     0.212 HD
ATOM     18  H   BDP d 216      26.065 -19.509 100.153  0.00  0.00     0.210 HD
ATOM     19  H   BDP d 216      21.864 -21.108 100.157  0.00  0.00     0.133 H 
ATOM     20  H   BDP d 216      24.853 -21.523 100.164  0.00  0.00     0.094 H 
ATOM     21  O4  ASG d 217      26.860 -14.681  97.882  0.00  0.00    -0.246 OA
ATOM     22  O7  ASG d 217      22.346 -14.813  97.526  0.00  0.00    -0.274 OA
ATOM     23  O1  ASG d 217      23.905 -18.026  98.294  0.00  0.00    -0.348 OA
ATOM     24  C5  ASG d 217      27.421 -17.022  97.403  0.00  0.00     0.090 C 
ATOM     25  C1  ASG d 217      24.984 -17.534  97.517  0.00  0.00     0.154 C 
ATOM     26  C6  ASG d 217      28.813 -17.140  98.125  0.00  0.00     0.043 C 
ATOM     27  OSA ASG d 217      28.164 -12.918  96.597  0.00  0.00    -0.572 OA
ATOM     28  C3  ASG d 217      25.863 -15.762  95.924  0.00  0.00     0.094 C 
ATOM     29  C7  ASG d 217      22.216 -15.526  96.593  0.00  0.00     0.214 C 
ATOM     30  C2  ASG d 217      24.664 -16.210  96.749  0.00  0.00     0.087 C 
ATOM     31  O5  ASG d 217      26.282 -17.425  98.256  0.00  0.00    -0.349 OA
ATOM     32  OSB ASG d 217      28.914 -13.531  98.796  0.00  0.00    -0.572 OA
ATOM     33  OSC ASG d 217      26.905 -12.248  98.495  0.00  0.00    -0.572 OA
ATOM     34  C8  ASG d 217      20.886 -15.527  95.818  0.00  0.00    -0.003 C 
ATOM     35  S   ASG d 217      27.751 -13.300  97.947  0.00  0.00     0.252 S 
ATOM     36  O6  ASG d 217      29.510 -18.375  98.039  0.00  0.00    -0.398 OA
ATOM     37  C4  ASG d 217      27.080 -15.611  96.834  0.00  0.00     0.114 C 
ATOM     38  N   ASG d 217      23.368 -16.240  96.051  0.00  0.00    -0.349 N 
ATOM     39  H   ASG d 217      27.548 -17.701  96.585  0.00  0.00     0.090 H 
ATOM     40  H   ASG d 217      25.117 -18.299  96.781  0.00  0.00     0.132 H 
ATOM     41  H   ASG d 217      28.650 -16.938  99.163  0.00  0.00     0.078 H 
ATOM     42  H   ASG d 217      29.440 -16.444  97.607  0.00  0.00     0.078 H 
ATOM     43  H   ASG d 217      25.988 -16.462  95.124  0.00  0.00     0.091 H 
ATOM     44  H   ASG d 217      24.511 -15.430  97.465  0.00  0.00     0.084 H 
ATOM     45  H   ASG d 217      20.158 -14.959  96.358  0.00  0.00     0.040 H 
ATOM     46  H   ASG d 217      20.540 -16.533  95.704  0.00  0.00     0.040 H 
ATOM     47  H   ASG d 217      21.035 -15.089  94.852  0.00  0.00     0.040 H 
ATOM     48  H   ASG d 217      29.000 -19.066  98.491  0.00  0.00     0.209 HD
ATOM     49  H   ASG d 217      27.899 -15.221  96.265  0.00  0.00     0.093 H 
ATOM     50  H   ASG d 217      23.277 -16.747  95.212  0.00  0.00     0.163 HD
ATOM     51  C6  BDP d 218      27.372 -14.772  91.120  0.00  0.00     0.206 C 
ATOM     52  O3  BDP d 218      23.988 -11.397  92.253  0.00  0.00    -0.390 OA
ATOM     53  C1  BDP d 218      25.328 -14.289  94.174  0.00  0.00     0.160 C 
ATOM     54  C2  BDP d 218      24.788 -12.884  93.925  0.00  0.00     0.110 C 
ATOM     55  O6A BDP d 218      27.311 -15.793  90.399  0.00  0.00    -0.646 OA
ATOM     56  O1  BDP d 218      25.660 -14.439  95.542  0.00  0.00    -0.348 OA
ATOM     57  C3  BDP d 218      24.419 -12.719  92.462  0.00  0.00     0.092 C 
ATOM     58  O5  BDP d 218      26.468 -14.462  93.356  0.00  0.00    -0.340 OA
ATOM     59  C5  BDP d 218      26.155 -14.417  91.973  0.00  0.00     0.152 C 
ATOM     60  C4  BDP d 218      25.632 -13.034  91.594  0.00  0.00     0.103 C 
ATOM     61  O2  BDP d 218      23.652 -12.631  94.723  0.00  0.00    -0.388 OA
ATOM     62  O6B BDP d 218      28.367 -14.015  91.165  0.00  0.00    -0.646 OA
ATOM     63  H   BDP d 218      23.216 -11.217  92.813  0.00  0.00     0.210 HD
ATOM     64  H   BDP d 218      24.594 -15.029  93.935  0.00  0.00     0.133 H 
ATOM     65  H   BDP d 218      25.554 -12.183  94.184  0.00  0.00     0.094 H 
ATOM     66  H   BDP d 218      23.630 -13.392  92.197  0.00  0.00     0.091 H 
ATOM     67  H   BDP d 218      25.393 -15.142  91.783  0.00  0.00     0.104 H 
ATOM     68  H   BDP d 218      26.319 -12.220  91.690  0.00  0.00     0.092 H 
ATOM     69  H   BDP d 218      22.950 -13.261  94.495  0.00  0.00     0.210 HD
ATOM     70  O4  ASG d 221      31.958 -17.649  79.770  0.00  0.00    -0.249 OA
ATOM     71  OSB ASG d 221      32.620 -20.011  80.461  0.00  0.00    -0.572 OA
ATOM     72  OSC ASG d 221      31.511 -19.733  78.363  0.00  0.00    -0.572 OA
ATOM     73  C2  ASG d 221      31.525 -15.022  80.554  0.00  0.00     0.062 C 
ATOM     74  C1  ASG d 221      30.018 -15.248  80.918  0.00  0.00     0.151 C 
ATOM     75  C3  ASG d 221      31.790 -15.330  79.095  0.00  0.00    -0.014 C 
ATOM     76  O7  ASG d 221      34.062 -13.875  79.825  0.00  0.00    -0.274 OA
ATOM     77  C7  ASG d 221      33.292 -13.173  80.385  0.00  0.00     0.214 C 
ATOM     78  O6  ASG d 221      27.674 -17.926  78.264  0.00  0.00    -0.398 OA
ATOM     79  O1  ASG d 221      29.740 -15.178  82.314  0.00  0.00    -0.348 OA
ATOM     80  C5  ASG d 221      29.843 -16.672  78.843  0.00  0.00     0.088 C 
ATOM     81  C4  ASG d 221      31.393 -16.758  78.821  0.00  0.00     0.089 C 
ATOM     82  OSA ASG d 221      30.309 -19.482  80.413  0.00  0.00    -0.572 OA
ATOM     83  S   ASG d 221      31.590 -19.261  79.746  0.00  0.00     0.252 S 
ATOM     84  O5  ASG d 221      29.446 -16.467  80.253  0.00  0.00    -0.349 OA
ATOM     85  C8  ASG d 221      33.683 -11.718  80.692  0.00  0.00    -0.003 C 
ATOM     86  C6  ASG d 221      29.071 -17.787  78.046  0.00  0.00     0.043 C 
ATOM     87  N   ASG d 221      32.074 -13.723  80.981  0.00  0.00    -0.352 N 
ATOM     88  H   ASG d 221      32.075 -15.730  81.139  0.00  0.00     0.080 H 
ATOM     89  H   ASG d 221      29.494 -14.410  80.506  0.00  0.00     0.132 H 
ATOM     90  H   ASG d 221      32.830 -15.198  78.883  0.00  0.00     0.040 H 
ATOM     91  H   ASG d 221      31.220 -14.669  78.475  0.00  0.00     0.040 H 
ATOM     92  H   ASG d 221      27.331 -18.646  77.713  0.00  0.00     0.209 HD
ATOM     93  H   ASG d 221      29.523 -15.832  78.262  0.00  0.00     0.090 H 
ATOM     94  H   ASG d 221      31.753 -17.160  77.897  0.00  0.00     0.089 H 
ATOM     95  H   ASG d 221      34.592 -11.478  80.182  0.00  0.00     0.040 H 
ATOM     96  H   ASG d 221      33.825 -11.601  81.746  0.00  0.00     0.040 H 
ATOM     97  H   ASG d 221      32.905 -11.062  80.363  0.00  0.00     0.040 H 
ATOM     98  H   ASG d 221      29.211 -17.587  77.005  0.00  0.00     0.078 H 
ATOM     99  H   ASG d 221      29.487 -18.705  78.407  0.00  0.00     0.078 H 
ATOM    100  H   ASG d 221      31.611 -13.212  81.684  0.00  0.00     0.163 HD
ATOM    101  O5  BDP d 220      28.054 -12.773  84.277  0.00  0.00    -0.340 OA
ATOM    102  C5  BDP d 220      29.125 -13.542  83.767  0.00  0.00     0.152 C 
ATOM    103  C6  BDP d 220      30.270 -12.634  83.326  0.00  0.00     0.206 C 
ATOM    104  C1  BDP d 220      27.131 -13.579  84.976  0.00  0.00     0.160 C 
ATOM    105  C3  BDP d 220      27.531 -15.339  83.160  0.00  0.00     0.092 C 
ATOM    106  O2  BDP d 220      25.675 -15.455  84.702  0.00  0.00    -0.388 OA
ATOM    107  O6B BDP d 220      30.028 -11.741  82.479  0.00  0.00    -0.646 OA
ATOM    108  C2  BDP d 220      26.502 -14.561  83.991  0.00  0.00     0.110 C 
ATOM    109  O3  BDP d 220      26.880 -15.979  82.077  0.00  0.00    -0.390 OA
ATOM    110  O1  BDP d 220      26.107 -12.781  85.553  0.00  0.00    -0.348 OA
ATOM    111  O6A BDP d 220      31.399 -12.832  83.838  0.00  0.00    -0.646 OA
ATOM    112  C4  BDP d 220      28.624 -14.415  82.621  0.00  0.00     0.103 C 
ATOM    113  H   BDP d 220      29.505 -14.182  84.535  0.00  0.00     0.104 H 
ATOM    114  H   BDP d 220      27.641 -14.102  85.759  0.00  0.00     0.133 H 
ATOM    115  H   BDP d 220      27.990 -16.066  83.796  0.00  0.00     0.091 H 
ATOM    116  H   BDP d 220      25.030 -14.953  85.223  0.00  0.00     0.210 HD
ATOM    117  H   BDP d 220      25.931 -13.986  83.291  0.00  0.00     0.094 H 
ATOM    118  H   BDP d 220      26.468 -15.311  81.507  0.00  0.00     0.210 HD
ATOM    119  H   BDP d 220      28.230 -13.867  81.790  0.00  0.00     0.092 H 
ATOM    120  OSC ASG d 219      22.502  -9.485  85.734  0.00  0.00    -0.572 OA
ATOM    121  C5  ASG d 219      26.273 -10.334  88.313  0.00  0.00     0.090 C 
ATOM    122  C3  ASG d 219      26.411 -12.321  86.829  0.00  0.00     0.094 C 
ATOM    123  C6  ASG d 219      26.050  -8.790  88.452  0.00  0.00     0.043 C 
ATOM    124  C7  ASG d 219      24.983 -15.651  87.855  0.00  0.00     0.214 C 
ATOM    125  C4  ASG d 219      25.890 -10.894  86.916  0.00  0.00     0.114 C 
ATOM    126  S   ASG d 219      23.951  -9.618  85.603  0.00  0.00     0.252 S 
ATOM    127  C8  ASG d 219      25.346 -17.149  87.912  0.00  0.00    -0.003 C 
ATOM    128  O7  ASG d 219      23.853 -15.317  87.911  0.00  0.00    -0.274 OA
ATOM    129  O6  ASG d 219      26.186  -8.193  89.733  0.00  0.00    -0.398 OA
ATOM    130  OSB ASG d 219      24.519  -8.299  85.876  0.00  0.00    -0.572 OA
ATOM    131  O1  ASG d 219      25.196 -13.328  90.312  0.00  0.00    -0.348 OA
ATOM    132  O4  ASG d 219      24.499 -10.751  86.682  0.00  0.00    -0.246 OA
ATOM    133  OSA ASG d 219      24.328 -10.100  84.272  0.00  0.00    -0.572 OA
ATOM    134  O5  ASG d 219      25.505 -11.128  89.296  0.00  0.00    -0.349 OA
ATOM    135  N   ASG d 219      26.028 -14.635  87.759  0.00  0.00    -0.349 N 
ATOM    136  C2  ASG d 219      25.709 -13.198  87.853  0.00  0.00     0.087 C 
ATOM    137  C1  ASG d 219      25.857 -12.586  89.295  0.00  0.00     0.154 C 
ATOM    138  H   ASG d 219      27.324 -10.437  88.482  0.00  0.00     0.090 H 
ATOM    139  H   ASG d 219      27.464 -12.351  87.021  0.00  0.00     0.091 H 
ATOM    140  H   ASG d 219      25.058  -8.582  88.111  0.00  0.00     0.078 H 
ATOM    141  H   ASG d 219      26.847  -8.361  87.881  0.00  0.00     0.078 H 
ATOM    142  H   ASG d 219      26.348 -10.339  86.124  0.00  0.00     0.093 H 
ATOM    143  H   ASG d 219      26.408 -17.262  87.848  0.00  0.00     0.040 H 
ATOM    144  H   ASG d 219      24.882 -17.659  87.093  0.00  0.00     0.040 H 
ATOM    145  H   ASG d 219      24.998 -17.565  88.834  0.00  0.00     0.040 H 
ATOM    146  H   ASG d 219      25.493  -8.531  90.322  0.00  0.00     0.209 HD
ATOM    147  H   ASG d 219      26.963 -14.914  87.629  0.00  0.00     0.163 HD
ATOM    148  H   ASG d 219      24.667 -13.186  87.611  0.00  0.00     0.084 H 
ATOM    149  H   ASG d 219      26.891 -12.668  89.557  0.00  0.00     0.132 H 
ENDROOT
TORSDOF 38
ENDMDL
MODEL 36
REMARK VINA RESULT:      -6.5      4.088     16.323
REMARK  0 active torsions:
REMARK  status: ('A' for Active; 'I' for Inactive)
REMARK       I    between atoms: C6_2  and  C5_55 
REMARK       I    between atoms: O4_3  and  C4_83 
REMARK       I    between atoms: O4_3  and  S_75 
REMARK       I    between atoms: C6_4  and  C5_67 
REMARK       I    between atoms: O4_5  and  C4_61 
REMARK       I    between atoms: O4_5  and  S_71 
REMARK       I    between atoms: O3_6  and  C3_32 
REMARK       I    between atoms: C1_8  and  O1_30 
REMARK       I    between atoms: C3_12  and  O3_62 
REMARK       I    between atoms: C5_13  and  C6_25 
REMARK       I    between atoms: O1_14  and  C4_39 
REMARK       I    between atoms: O1_14  and  C1_23 
REMARK       I    between atoms: C5_15  and  C6_27 
REMARK       I    between atoms: C5_18  and  C6_44 
REMARK       I    between atoms: C3_19  and  O1_82 
REMARK       I    between atoms: C2_20  and  N_89 
REMARK       I    between atoms: C2_21  and  O2_80 
REMARK       I    between atoms: C1_24  and  O1_45 
REMARK       I    between atoms: C6_25  and  O6_48 
REMARK       I    between atoms: C6_27  and  O6_77 
REMARK       I    between atoms: C7_28  and  C8_35 
REMARK       I    between atoms: C7_28  and  N_70 
REMARK       I    between atoms: O1_30  and  C3_43 
REMARK       I    between atoms: C4_33  and  O4_53 
REMARK       I    between atoms: S_34  and  O4_53 
REMARK       I    between atoms: O2_40  and  C2_87 
REMARK       I    between atoms: C7_41  and  C8_81 
REMARK       I    between atoms: C7_41  and  N_89 
REMARK       I    between atoms: O6_42  and  C6_88 
REMARK       I    between atoms: O1_45  and  C4_90 
REMARK       I    between atoms: C7_46  and  C8_69 
REMARK       I    between atoms: C7_46  and  N_85 
REMARK       I    between atoms: C2_47  and  N_85 
REMARK       I    between atoms: O1_50  and  C4_73 
REMARK       I    between atoms: O1_50  and  C1_76 
REMARK       I    between atoms: C1_52  and  O1_82 
REMARK       I    between atoms: C3_54  and  O3_72 
REMARK       I    between atoms: C5_57  and  C6_88 
REMARK       I    between atoms: O1_59  and  C1_78 
REMARK       I    between atoms: O2_63  and  C2_68 
REMARK       I    between atoms: N_70  and  C2_74 
ROOT
ATOM      1  O6B BDP d 216      27.004 -21.008  82.236  0.00  0.00    -0.646 OA
ATOM      2  C6  BDP d 216      27.945 -20.702  81.472  0.00  0.00     0.206 C 
ATOM      3  C3  BDP d 216      26.027 -19.355  78.393  0.00  0.00     0.092 C 
ATOM      4  O6A BDP d 216      29.131 -20.585  81.844  0.00  0.00    -0.646 OA
ATOM      5  O5  BDP d 216      27.313 -21.698  79.387  0.00  0.00    -0.340 OA
ATOM      6  C4  BDP d 216      26.470 -19.472  79.850  0.00  0.00     0.103 C 
ATOM      7  O2  BDP d 216      25.639 -20.607  76.375  0.00  0.00    -0.388 OA
ATOM      8  C5  BDP d 216      27.628 -20.461  79.998  0.00  0.00     0.152 C 
ATOM      9  O1  BDP d 216      26.956 -22.843  77.397  0.00  0.00    -0.368 OA
ATOM     10  O3  BDP d 216      24.806 -18.648  78.322  0.00  0.00    -0.390 OA
ATOM     11  C1  BDP d 216      27.112 -21.572  77.996  0.00  0.00     0.156 C 
ATOM     12  C2  BDP d 216      25.862 -20.735  77.761  0.00  0.00     0.110 C 
ATOM     13  H   BDP d 216      26.781 -18.823  77.851  0.00  0.00     0.091 H 
ATOM     14  H   BDP d 216      25.668 -19.854  80.448  0.00  0.00     0.092 H 
ATOM     15  H   BDP d 216      24.842 -20.074  76.224  0.00  0.00     0.210 HD
ATOM     16  H   BDP d 216      28.482 -20.035  79.515  0.00  0.00     0.104 H 
ATOM     17  H   BDP d 216      27.754 -23.372  77.549  0.00  0.00     0.212 HD
ATOM     18  H   BDP d 216      24.124 -19.132  78.814  0.00  0.00     0.210 HD
ATOM     19  H   BDP d 216      27.964 -21.098  77.555  0.00  0.00     0.133 H 
ATOM     20  H   BDP d 216      25.022 -21.219  78.213  0.00  0.00     0.094 H 
ATOM     21  O4  ASG d 217      24.509 -14.722  81.896  0.00  0.00    -0.246 OA
ATOM     22  O7  ASG d 217      28.929 -15.342  81.120  0.00  0.00    -0.274 OA
ATOM     23  O1  ASG d 217      26.823 -18.209  80.290  0.00  0.00    -0.348 OA
ATOM     24  C5  ASG d 217      23.763 -17.046  82.147  0.00  0.00     0.090 C 
ATOM     25  C1  ASG d 217      26.021 -17.759  81.370  0.00  0.00     0.154 C 
ATOM     26  C6  ASG d 217      22.242 -16.904  81.775  0.00  0.00     0.043 C 
ATOM     27  OSA ASG d 217      23.774 -13.094  83.704  0.00  0.00    -0.572 OA
ATOM     28  C3  ASG d 217      25.767 -16.218  83.371  0.00  0.00     0.094 C 
ATOM     29  C7  ASG d 217      29.169 -16.216  81.879  0.00  0.00     0.214 C 
ATOM     30  C2  ASG d 217      26.680 -16.627  82.222  0.00  0.00     0.087 C 
ATOM     31  O5  ASG d 217      24.617 -17.400  80.992  0.00  0.00    -0.349 OA
ATOM     32  OSB ASG d 217      22.475 -13.240  81.688  0.00  0.00    -0.572 OA
ATOM     33  OSC ASG d 217      24.654 -12.226  81.677  0.00  0.00    -0.572 OA
ATOM     34  C8  ASG d 217      30.626 -16.478  82.299  0.00  0.00    -0.003 C 
ATOM     35  S   ASG d 217      23.819 -13.273  82.253  0.00  0.00     0.252 S 
ATOM     36  O6  ASG d 217      21.423 -18.063  81.845  0.00  0.00    -0.398 OA
ATOM     37  C4  ASG d 217      24.408 -15.795  82.817  0.00  0.00     0.114 C 
ATOM     38  N   ASG d 217      28.083 -16.901  82.573  0.00  0.00    -0.349 N 
ATOM     39  H   ASG d 217      23.733 -17.842  82.861  0.00  0.00     0.090 H 
ATOM     40  H   ASG d 217      25.956 -18.625  81.995  0.00  0.00     0.132 H 
ATOM     41  H   ASG d 217      22.193 -16.540  80.769  0.00  0.00     0.078 H 
ATOM     42  H   ASG d 217      21.845 -16.253  82.526  0.00  0.00     0.078 H 
ATOM     43  H   ASG d 217      25.732 -17.031  84.066  0.00  0.00     0.091 H 
ATOM     44  H   ASG d 217      26.771 -15.751  81.614  0.00  0.00     0.084 H 
ATOM     45  H   ASG d 217      31.284 -15.897  81.687  0.00  0.00     0.040 H 
ATOM     46  H   ASG d 217      30.851 -17.517  82.176  0.00  0.00     0.040 H 
ATOM     47  H   ASG d 217      30.757 -16.203  83.325  0.00  0.00     0.040 H 
ATOM     48  H   ASG d 217      21.722 -18.710  81.186  0.00  0.00     0.209 HD
ATOM     49  H   ASG d 217      23.797 -15.434  83.619  0.00  0.00     0.093 H 
ATOM     50  H   ASG d 217      28.291 -17.553  83.281  0.00  0.00     0.163 HD
ATOM     51  C6  BDP d 218      25.518 -15.942  88.490  0.00  0.00     0.206 C 
ATOM     52  O3  BDP d 218      28.983 -12.759  87.078  0.00  0.00    -0.390 OA
ATOM     53  C1  BDP d 218      26.872 -15.130  85.136  0.00  0.00     0.160 C 
ATOM     54  C2  BDP d 218      27.637 -13.847  85.450  0.00  0.00     0.110 C 
ATOM     55  O6A BDP d 218      25.603 -17.074  89.016  0.00  0.00    -0.646 OA
ATOM     56  O1  BDP d 218      26.225 -15.007  83.883  0.00  0.00    -0.348 OA
ATOM     57  C3  BDP d 218      28.343 -13.977  86.788  0.00  0.00     0.092 C 
ATOM     58  O5  BDP d 218      25.931 -15.334  86.172  0.00  0.00    -0.340 OA
ATOM     59  C5  BDP d 218      26.550 -15.561  87.429  0.00  0.00     0.152 C 
ATOM     60  C4  BDP d 218      27.324 -14.322  87.869  0.00  0.00     0.103 C 
ATOM     61  O2  BDP d 218      28.588 -13.569  84.447  0.00  0.00    -0.388 OA
ATOM     62  O6B BDP d 218      24.649 -15.097  88.800  0.00  0.00    -0.646 OA
ATOM     63  H   BDP d 218      29.626 -12.557  86.380  0.00  0.00     0.210 HD
ATOM     64  H   BDP d 218      27.536 -15.967  85.078  0.00  0.00     0.133 H 
ATOM     65  H   BDP d 218      26.933 -13.043  85.491  0.00  0.00     0.094 H 
ATOM     66  H   BDP d 218      29.073 -14.758  86.751  0.00  0.00     0.091 H 
ATOM     67  H   BDP d 218      27.232 -16.377  87.319  0.00  0.00     0.104 H 
ATOM     68  H   BDP d 218      26.748 -13.441  88.063  0.00  0.00     0.092 H 
ATOM     69  H   BDP d 218      29.233 -14.293  84.402  0.00  0.00     0.210 HD
ATOM     70  O4  ASG d 221      23.252 -20.307 100.063  0.00  0.00    -0.249 OA
ATOM     71  OSB ASG d 221      22.142 -22.438  99.214  0.00  0.00    -0.572 OA
ATOM     72  OSC ASG d 221      23.720 -22.637 100.997  0.00  0.00    -0.572 OA
ATOM     73  C2  ASG d 221      23.844 -17.637  99.593  0.00  0.00     0.062 C 
ATOM     74  C1  ASG d 221      25.188 -17.938  98.844  0.00  0.00     0.151 C 
ATOM     75  C3  ASG d 221      23.875 -18.168 101.010  0.00  0.00    -0.014 C 
ATOM     76  O7  ASG d 221      21.712 -16.399 101.077  0.00  0.00    -0.274 OA
ATOM     77  C7  ASG d 221      22.423 -15.686 100.456  0.00  0.00     0.214 C 
ATOM     78  O6  ASG d 221      27.688 -21.248 100.425  0.00  0.00    -0.398 OA
ATOM     79  O1  ASG d 221      25.152 -17.652  97.449  0.00  0.00    -0.348 OA
ATOM     80  C5  ASG d 221      25.632 -19.713 100.582  0.00  0.00     0.088 C 
ATOM     81  C4  ASG d 221      24.129 -19.654 100.967  0.00  0.00     0.089 C 
ATOM     82  OSA ASG d 221      24.455 -22.148  98.776  0.00  0.00    -0.572 OA
ATOM     83  S   ASG d 221      23.397 -21.927  99.759  0.00  0.00     0.252 S 
ATOM     84  O5  ASG d 221      25.727 -19.303  99.164  0.00  0.00    -0.349 OA
ATOM     85  C8  ASG d 221      22.171 -14.169 100.471  0.00  0.00    -0.003 C 
ATOM     86  C6  ASG d 221      26.407 -21.018 100.994  0.00  0.00     0.043 C 
ATOM     87  N   ASG d 221      23.392 -16.237  99.508  0.00  0.00    -0.352 N 
ATOM     88  H   ASG d 221      23.088 -18.176  99.062  0.00  0.00     0.080 H 
ATOM     89  H   ASG d 221      25.898 -17.239  99.235  0.00  0.00     0.132 H 
ATOM     90  H   ASG d 221      22.935 -17.977 101.486  0.00  0.00     0.040 H 
ATOM     91  H   ASG d 221      24.652 -17.682 101.564  0.00  0.00     0.040 H 
ATOM     92  H   ASG d 221      28.047 -22.082 100.764  0.00  0.00     0.209 HD
ATOM     93  H   ASG d 221      26.183 -19.021 101.185  0.00  0.00     0.090 H 
ATOM     94  H   ASG d 221      23.935 -20.174 101.881  0.00  0.00     0.089 H 
ATOM     95  H   ASG d 221      21.440 -13.937 101.217  0.00  0.00     0.040 H 
ATOM     96  H   ASG d 221      21.814 -13.857  99.512  0.00  0.00     0.040 H 
ATOM     97  H   ASG d 221      23.084 -13.658 100.694  0.00  0.00     0.040 H 
ATOM     98  H   ASG d 221      26.532 -20.990 102.056  0.00  0.00     0.078 H 
ATOM     99  H   ASG d 221      25.802 -21.814 100.614  0.00  0.00     0.078 H 
ATOM    100  H   ASG d 221      23.750 -15.658  98.797  0.00  0.00     0.163 HD
ATOM    101  O5  BDP d 220      26.661 -15.112  95.511  0.00  0.00    -0.340 OA
ATOM    102  C5  BDP d 220      25.639 -15.853  96.147  0.00  0.00     0.152 C 
ATOM    103  C6  BDP d 220      24.753 -14.931  96.981  0.00  0.00     0.206 C 
ATOM    104  C1  BDP d 220      27.287 -15.868  94.497  0.00  0.00     0.160 C 
ATOM    105  C3  BDP d 220      27.074 -17.872  96.077  0.00  0.00     0.092 C 
ATOM    106  O2  BDP d 220      28.504 -17.893  94.130  0.00  0.00    -0.388 OA
ATOM    107  O6B BDP d 220      25.296 -14.228  97.866  0.00  0.00    -0.646 OA
ATOM    108  C2  BDP d 220      27.984 -17.062  95.145  0.00  0.00     0.110 C 
ATOM    109  O3  BDP d 220      27.860 -18.750  96.863  0.00  0.00    -0.390 OA
ATOM    110  O1  BDP d 220      28.253 -15.083  93.813  0.00  0.00    -0.348 OA
ATOM    111  O6A BDP d 220      23.522 -14.930  96.736  0.00  0.00    -0.646 OA
ATOM    112  C4  BDP d 220      26.263 -16.956  96.996  0.00  0.00     0.103 C 
ATOM    113  H   BDP d 220      25.014 -16.311  95.409  0.00  0.00     0.104 H 
ATOM    114  H   BDP d 220      26.550 -16.195  93.794  0.00  0.00     0.133 H 
ATOM    115  H   BDP d 220      26.391 -18.430  95.471  0.00  0.00     0.091 H 
ATOM    116  H   BDP d 220      29.077 -17.372  93.548  0.00  0.00     0.210 HD
ATOM    117  H   BDP d 220      28.770 -16.675  95.761  0.00  0.00     0.094 H 
ATOM    118  H   BDP d 220      28.475 -18.234  97.407  0.00  0.00     0.210 HD
ATOM    119  H   BDP d 220      26.903 -16.602  97.777  0.00  0.00     0.092 H 
ATOM    120  OSC ASG d 219      32.134 -12.164  93.249  0.00  0.00    -0.572 OA
ATOM    121  C5  ASG d 219      27.802 -12.188  91.567  0.00  0.00     0.090 C 
ATOM    122  C3  ASG d 219      27.735 -14.380  92.732  0.00  0.00     0.094 C 
ATOM    123  C6  ASG d 219      28.191 -10.671  91.608  0.00  0.00     0.043 C 
ATOM    124  C7  ASG d 219      28.440 -17.601  90.911  0.00  0.00     0.214 C 
ATOM    125  C4  ASG d 219      28.410 -13.017  92.731  0.00  0.00     0.114 C 
ATOM    126  S   ASG d 219      30.746 -12.178  93.707  0.00  0.00     0.252 S 
ATOM    127  C8  ASG d 219      27.877 -19.024  90.724  0.00  0.00    -0.003 C 
ATOM    128  O7  ASG d 219      29.562 -17.371  90.631  0.00  0.00    -0.274 OA
ATOM    129  O6  ASG d 219      27.853  -9.849  90.499  0.00  0.00    -0.398 OA
ATOM    130  OSB ASG d 219      30.312 -10.784  93.777  0.00  0.00    -0.572 OA
ATOM    131  O1  ASG d 219      27.994 -14.875  88.948  0.00  0.00    -0.348 OA
ATOM    132  O4  ASG d 219      29.824 -13.049  92.639  0.00  0.00    -0.246 OA
ATOM    133  OSA ASG d 219      30.616 -12.848  95.004  0.00  0.00    -0.572 OA
ATOM    134  O5  ASG d 219      28.217 -12.866  90.321  0.00  0.00    -0.349 OA
ATOM    135  N   ASG d 219      27.588 -16.522  91.406  0.00  0.00    -0.349 N 
ATOM    136  C2  ASG d 219      28.066 -15.128  91.450  0.00  0.00     0.087 C 
ATOM    137  C1  ASG d 219      27.682 -14.263  90.193  0.00  0.00     0.154 C 
ATOM    138  H   ASG d 219      26.735 -12.159  91.646  0.00  0.00     0.090 H 
ATOM    139  H   ASG d 219      26.673 -14.276  92.799  0.00  0.00     0.091 H 
ATOM    140  H   ASG d 219      29.254 -10.621  91.723  0.00  0.00     0.078 H 
ATOM    141  H   ASG d 219      27.607 -10.274  92.412  0.00  0.00     0.078 H 
ATOM    142  H   ASG d 219      28.219 -12.567  93.683  0.00  0.00     0.093 H 
ATOM    143  H   ASG d 219      26.851 -19.045  91.026  0.00  0.00     0.040 H 
ATOM    144  H   ASG d 219      28.440 -19.711  91.320  0.00  0.00     0.040 H 
ATOM    145  H   ASG d 219      27.950 -19.304  89.694  0.00  0.00     0.040 H 
ATOM    146  H   ASG d 219      28.345 -10.143  89.717  0.00  0.00     0.209 HD
ATOM    147  H   ASG d 219      26.677 -16.730  91.717  0.00  0.00     0.163 HD
ATOM    148  H   ASG d 219      29.128 -15.257  91.430  0.00  0.00     0.084 H 
ATOM    149  H   ASG d 219      26.615 -14.198  90.181  0.00  0.00     0.132 H 
ENDROOT
TORSDOF 38
ENDMDL
MODEL 37
REMARK VINA RESULT:      -6.4      3.790     16.558
REMARK  0 active torsions:
REMARK  status: ('A' for Active; 'I' for Inactive)
REMARK       I    between atoms: C6_2  and  C5_55 
REMARK       I    between atoms: O4_3  and  C4_83 
REMARK       I    between atoms: O4_3  and  S_75 
REMARK       I    between atoms: C6_4  and  C5_67 
REMARK       I    between atoms: O4_5  and  C4_61 
REMARK       I    between atoms: O4_5  and  S_71 
REMARK       I    between atoms: O3_6  and  C3_32 
REMARK       I    between atoms: C1_8  and  O1_30 
REMARK       I    between atoms: C3_12  and  O3_62 
REMARK       I    between atoms: C5_13  and  C6_25 
REMARK       I    between atoms: O1_14  and  C4_39 
REMARK       I    between atoms: O1_14  and  C1_23 
REMARK       I    between atoms: C5_15  and  C6_27 
REMARK       I    between atoms: C5_18  and  C6_44 
REMARK       I    between atoms: C3_19  and  O1_82 
REMARK       I    between atoms: C2_20  and  N_89 
REMARK       I    between atoms: C2_21  and  O2_80 
REMARK       I    between atoms: C1_24  and  O1_45 
REMARK       I    between atoms: C6_25  and  O6_48 
REMARK       I    between atoms: C6_27  and  O6_77 
REMARK       I    between atoms: C7_28  and  C8_35 
REMARK       I    between atoms: C7_28  and  N_70 
REMARK       I    between atoms: O1_30  and  C3_43 
REMARK       I    between atoms: C4_33  and  O4_53 
REMARK       I    between atoms: S_34  and  O4_53 
REMARK       I    between atoms: O2_40  and  C2_87 
REMARK       I    between atoms: C7_41  and  C8_81 
REMARK       I    between atoms: C7_41  and  N_89 
REMARK       I    between atoms: O6_42  and  C6_88 
REMARK       I    between atoms: O1_45  and  C4_90 
REMARK       I    between atoms: C7_46  and  C8_69 
REMARK       I    between atoms: C7_46  and  N_85 
REMARK       I    between atoms: C2_47  and  N_85 
REMARK       I    between atoms: O1_50  and  C4_73 
REMARK       I    between atoms: O1_50  and  C1_76 
REMARK       I    between atoms: C1_52  and  O1_82 
REMARK       I    between atoms: C3_54  and  O3_72 
REMARK       I    between atoms: C5_57  and  C6_88 
REMARK       I    between atoms: O1_59  and  C1_78 
REMARK       I    between atoms: O2_63  and  C2_68 
REMARK       I    between atoms: N_70  and  C2_74 
ROOT
ATOM      1  O6B BDP d 216      24.806 -22.671  82.076  0.00  0.00    -0.646 OA
ATOM      2  C6  BDP d 216      25.688 -22.705  81.191  0.00  0.00     0.206 C 
ATOM      3  C3  BDP d 216      23.747 -21.376  78.119  0.00  0.00     0.092 C 
ATOM      4  O6A BDP d 216      26.908 -22.824  81.431  0.00  0.00    -0.646 OA
ATOM      5  O5  BDP d 216      24.596 -23.799  79.362  0.00  0.00    -0.340 OA
ATOM      6  C4  BDP d 216      24.331 -21.394  79.530  0.00  0.00     0.103 C 
ATOM      7  O2  BDP d 216      22.842 -22.765  76.375  0.00  0.00    -0.388 OA
ATOM      8  C5  BDP d 216      25.251 -22.600  79.733  0.00  0.00     0.152 C 
ATOM      9  O1  BDP d 216      23.748 -25.088  77.624  0.00  0.00    -0.368 OA
ATOM     10  O3  BDP d 216      22.713 -20.416  78.045  0.00  0.00    -0.390 OA
ATOM     11  C1  BDP d 216      24.256 -23.820  77.992  0.00  0.00     0.156 C 
ATOM     12  C2  BDP d 216      23.203 -22.750  77.737  0.00  0.00     0.110 C 
ATOM     13  H   BDP d 216      24.526 -21.118  77.433  0.00  0.00     0.091 H 
ATOM     14  H   BDP d 216      23.546 -21.488  80.252  0.00  0.00     0.092 H 
ATOM     15  H   BDP d 216      22.171 -22.084  76.211  0.00  0.00     0.210 HD
ATOM     16  H   BDP d 216      26.112 -22.460  79.112  0.00  0.00     0.104 H 
ATOM     17  H   BDP d 216      24.422 -25.766  77.788  0.00  0.00     0.212 HD
ATOM     18  H   BDP d 216      22.008 -20.651  78.668  0.00  0.00     0.210 HD
ATOM     19  H   BDP d 216      25.130 -23.628  77.405  0.00  0.00     0.133 H 
ATOM     20  H   BDP d 216      22.339 -22.954  78.335  0.00  0.00     0.094 H 
ATOM     21  O4  ASG d 217      23.743 -16.079  80.945  0.00  0.00    -0.246 OA
ATOM     22  O7  ASG d 217      27.783 -17.834  79.887  0.00  0.00    -0.274 OA
ATOM     23  O1  ASG d 217      25.008 -20.203  79.725  0.00  0.00    -0.348 OA
ATOM     24  C5  ASG d 217      22.538 -18.102  81.636  0.00  0.00     0.090 C 
ATOM     25  C1  ASG d 217      24.467 -19.432  80.785  0.00  0.00     0.154 C 
ATOM     26  C6  ASG d 217      21.052 -17.654  81.384  0.00  0.00     0.043 C 
ATOM     27  OSA ASG d 217      23.618 -14.091  82.523  0.00  0.00    -0.572 OA
ATOM     28  C3  ASG d 217      24.812 -17.614  82.525  0.00  0.00     0.094 C 
ATOM     29  C7  ASG d 217      27.916 -18.627  80.752  0.00  0.00     0.214 C 
ATOM     30  C2  ASG d 217      25.461 -18.383  81.380  0.00  0.00     0.087 C 
ATOM     31  O5  ASG d 217      23.141 -18.804  80.482  0.00  0.00    -0.349 OA
ATOM     32  OSB ASG d 217      22.078 -14.199  80.682  0.00  0.00    -0.572 OA
ATOM     33  OSC ASG d 217      24.408 -13.744  80.311  0.00  0.00    -0.572 OA
ATOM     34  C8  ASG d 217      29.320 -19.168  81.077  0.00  0.00    -0.003 C 
ATOM     35  S   ASG d 217      23.441 -14.472  81.122  0.00  0.00     0.252 S 
ATOM     36  O6  ASG d 217      20.012 -18.565  81.714  0.00  0.00    -0.398 OA
ATOM     37  C4  ASG d 217      23.523 -16.961  82.033  0.00  0.00     0.114 C 
ATOM     38  N   ASG d 217      26.801 -18.932  81.643  0.00  0.00    -0.349 N 
ATOM     39  H   ASG d 217      22.422 -18.763  82.470  0.00  0.00     0.090 H 
ATOM     40  H   ASG d 217      24.290 -20.163  81.547  0.00  0.00     0.132 H 
ATOM     41  H   ASG d 217      20.959 -17.431  80.341  0.00  0.00     0.078 H 
ATOM     42  H   ASG d 217      20.906 -16.831  82.052  0.00  0.00     0.078 H 
ATOM     43  H   ASG d 217      24.685 -18.292  83.342  0.00  0.00     0.091 H 
ATOM     44  H   ASG d 217      25.667 -17.646  80.632  0.00  0.00     0.084 H 
ATOM     45  H   ASG d 217      30.008 -18.849  80.322  0.00  0.00     0.040 H 
ATOM     46  H   ASG d 217      29.292 -20.237  81.104  0.00  0.00     0.040 H 
ATOM     47  H   ASG d 217      29.636 -18.794  82.029  0.00  0.00     0.040 H 
ATOM     48  H   ASG d 217      20.076 -19.348  81.146  0.00  0.00     0.209 HD
ATOM     49  H   ASG d 217      23.112 -16.358  82.817  0.00  0.00     0.093 H 
ATOM     50  H   ASG d 217      26.946 -19.511  82.426  0.00  0.00     0.163 HD
ATOM     51  C6  BDP d 218      25.273 -16.587  87.532  0.00  0.00     0.206 C 
ATOM     52  O3  BDP d 218      29.152 -14.544  85.316  0.00  0.00    -0.390 OA
ATOM     53  C1  BDP d 218      26.342 -16.589  83.982  0.00  0.00     0.160 C 
ATOM     54  C2  BDP d 218      27.406 -15.495  84.014  0.00  0.00     0.110 C 
ATOM     55  O6A BDP d 218      25.169 -17.624  88.225  0.00  0.00    -0.646 OA
ATOM     56  O1  BDP d 218      25.587 -16.489  82.790  0.00  0.00    -0.348 OA
ATOM     57  C3  BDP d 218      28.227 -15.603  85.286  0.00  0.00     0.092 C 
ATOM     58  O5  BDP d 218      25.517 -16.420  85.119  0.00  0.00    -0.340 OA
ATOM     59  C5  BDP d 218      26.222 -16.612  86.335  0.00  0.00     0.152 C 
ATOM     60  C4  BDP d 218      27.300 -15.544  86.496  0.00  0.00     0.103 C 
ATOM     61  O2  BDP d 218      28.262 -15.591  82.898  0.00  0.00    -0.388 OA
ATOM     62  O6B BDP d 218      24.657 -15.526  87.777  0.00  0.00    -0.646 OA
ATOM     63  H   BDP d 218      29.731 -14.599  84.540  0.00  0.00     0.210 HD
ATOM     64  H   BDP d 218      26.792 -17.559  84.002  0.00  0.00     0.133 H 
ATOM     65  H   BDP d 218      26.908 -14.548  83.987  0.00  0.00     0.094 H 
ATOM     66  H   BDP d 218      28.756 -16.533  85.311  0.00  0.00     0.091 H 
ATOM     67  H   BDP d 218      26.687 -17.574  86.298  0.00  0.00     0.104 H 
ATOM     68  H   BDP d 218      26.962 -14.534  86.596  0.00  0.00     0.092 H 
ATOM     69  H   BDP d 218      28.719 -16.447  82.913  0.00  0.00     0.210 HD
ATOM     70  O4  ASG d 221      23.561 -18.656  99.817  0.00  0.00    -0.249 OA
ATOM     71  OSB ASG d 221      21.910 -20.558  99.428  0.00  0.00    -0.572 OA
ATOM     72  OSC ASG d 221      23.615 -20.880 101.071  0.00  0.00    -0.572 OA
ATOM     73  C2  ASG d 221      24.666 -16.295  98.867  0.00  0.00     0.062 C 
ATOM     74  C1  ASG d 221      25.806 -17.006  98.060  0.00  0.00     0.151 C 
ATOM     75  C3  ASG d 221      24.756 -16.618 100.344  0.00  0.00    -0.014 C 
ATOM     76  O7  ASG d 221      23.063 -14.393 100.316  0.00  0.00    -0.274 OA
ATOM     77  C7  ASG d 221      23.832 -13.963  99.526  0.00  0.00     0.214 C 
ATOM     78  O6  ASG d 221      27.688 -20.567  99.927  0.00  0.00    -0.398 OA
ATOM     79  O1  ASG d 221      25.660 -16.915  96.646  0.00  0.00    -0.348 OA
ATOM     80  C5  ASG d 221      26.059 -18.580 100.016  0.00  0.00     0.088 C 
ATOM     81  C4  ASG d 221      24.667 -18.113 100.520  0.00  0.00     0.089 C 
ATOM     82  OSA ASG d 221      24.156 -20.890  98.743  0.00  0.00    -0.572 OA
ATOM     83  S   ASG d 221      23.305 -20.290  99.768  0.00  0.00     0.252 S 
ATOM     84  O5  ASG d 221      26.064 -18.404  98.547  0.00  0.00    -0.349 OA
ATOM     85  C8  ASG d 221      23.925 -12.442  99.317  0.00  0.00    -0.003 C 
ATOM     86  C6  ASG d 221      26.571 -19.963 100.563  0.00  0.00     0.043 C 
ATOM     87  N   ASG d 221      24.528 -14.853  98.597  0.00  0.00    -0.352 N 
ATOM     88  H   ASG d 221      23.749 -16.706  98.501  0.00  0.00     0.080 H 
ATOM     89  H   ASG d 221      26.695 -16.449  98.267  0.00  0.00     0.132 H 
ATOM     90  H   ASG d 221      23.948 -16.146 100.864  0.00  0.00     0.040 H 
ATOM     91  H   ASG d 221      25.683 -16.260 100.739  0.00  0.00     0.040 H 
ATOM     92  H   ASG d 221      27.893 -21.408 100.364  0.00  0.00     0.209 HD
ATOM     93  H   ASG d 221      26.821 -17.963 100.447  0.00  0.00     0.090 H 
ATOM     94  H   ASG d 221      24.478 -18.442 101.520  0.00  0.00     0.089 H 
ATOM     95  H   ASG d 221      23.363 -11.942 100.078  0.00  0.00     0.040 H 
ATOM     96  H   ASG d 221      23.529 -12.189  98.356  0.00  0.00     0.040 H 
ATOM     97  H   ASG d 221      24.949 -12.137  99.371  0.00  0.00     0.040 H 
ATOM     98  H   ASG d 221      26.831 -19.820 101.591  0.00  0.00     0.078 H 
ATOM     99  H   ASG d 221      25.762 -20.637 100.374  0.00  0.00     0.078 H 
ATOM    100  H   ASG d 221      24.913 -14.479  97.772  0.00  0.00     0.163 HD
ATOM    101  O5  BDP d 220      27.439 -15.098  94.193  0.00  0.00    -0.340 OA
ATOM    102  C5  BDP d 220      26.366 -15.480  95.031  0.00  0.00     0.152 C 
ATOM    103  C6  BDP d 220      25.818 -14.268  95.780  0.00  0.00     0.206 C 
ATOM    104  C1  BDP d 220      27.751 -16.113  93.264  0.00  0.00     0.160 C 
ATOM    105  C3  BDP d 220      27.298 -17.771  95.161  0.00  0.00     0.092 C 
ATOM    106  O2  BDP d 220      28.433 -18.400  93.123  0.00  0.00    -0.388 OA
ATOM    107  O6B BDP d 220      26.610 -13.599  96.487  0.00  0.00    -0.646 OA
ATOM    108  C2  BDP d 220      28.242 -17.337  94.032  0.00  0.00     0.110 C 
ATOM    109  O3  BDP d 220      27.962 -18.695  96.005  0.00  0.00    -0.390 OA
ATOM    110  O1  BDP d 220      28.773 -15.681  92.377  0.00  0.00    -0.348 OA
ATOM    111  O6A BDP d 220      24.597 -14.007  95.649  0.00  0.00    -0.646 OA
ATOM    112  C4  BDP d 220      26.832 -16.572  95.988  0.00  0.00     0.103 C 
ATOM    113  H   BDP d 220      25.569 -15.872  94.435  0.00  0.00     0.104 H 
ATOM    114  H   BDP d 220      26.878 -16.348  92.692  0.00  0.00     0.133 H 
ATOM    115  H   BDP d 220      26.439 -18.229  94.718  0.00  0.00     0.091 H 
ATOM    116  H   BDP d 220      29.030 -18.114  92.414  0.00  0.00     0.210 HD
ATOM    117  H   BDP d 220      29.163 -17.068  94.504  0.00  0.00     0.094 H 
ATOM    118  H   BDP d 220      28.739 -18.270  96.401  0.00  0.00     0.210 HD
ATOM    119  H   BDP d 220      27.626 -16.277  96.640  0.00  0.00     0.092 H 
ATOM    120  OSC ASG d 219      33.102 -13.875  91.000  0.00  0.00    -0.572 OA
ATOM    121  C5  ASG d 219      28.697 -13.098  89.741  0.00  0.00     0.090 C 
ATOM    122  C3  ASG d 219      28.293 -15.031  91.247  0.00  0.00     0.094 C 
ATOM    123  C6  ASG d 219      29.415 -11.727  89.499  0.00  0.00     0.043 C 
ATOM    124  C7  ASG d 219      28.033 -18.545  89.918  0.00  0.00     0.214 C 
ATOM    125  C4  ASG d 219      29.247 -13.880  90.965  0.00  0.00     0.114 C 
ATOM    126  S   ASG d 219      31.814 -13.496  91.577  0.00  0.00     0.252 S 
ATOM    127  C8  ASG d 219      27.150 -19.806  90.016  0.00  0.00    -0.003 C 
ATOM    128  O7  ASG d 219      29.135 -18.629  89.505  0.00  0.00    -0.274 OA
ATOM    129  O6  ASG d 219      29.131 -11.008  88.307  0.00  0.00    -0.398 OA
ATOM    130  OSB ASG d 219      31.712 -12.043  91.459  0.00  0.00    -0.572 OA
ATOM    131  O1  ASG d 219      27.960 -16.087  87.587  0.00  0.00    -0.348 OA
ATOM    132  O4  ASG d 219      30.596 -14.260  90.752  0.00  0.00    -0.246 OA
ATOM    133  OSA ASG d 219      31.702 -13.931  92.972  0.00  0.00    -0.572 OA
ATOM    134  O5  ASG d 219      28.792 -14.021  88.589  0.00  0.00    -0.349 OA
ATOM    135  N   ASG d 219      27.510 -17.237  90.306  0.00  0.00    -0.349 N 
ATOM    136  C2  ASG d 219      28.287 -16.004  90.079  0.00  0.00     0.087 C 
ATOM    137  C1  ASG d 219      27.950 -15.254  88.738  0.00  0.00     0.154 C 
ATOM    138  H   ASG d 219      27.682 -12.806  89.909  0.00  0.00     0.090 H 
ATOM    139  H   ASG d 219      27.296 -14.669  91.392  0.00  0.00     0.091 H 
ATOM    140  H   ASG d 219      30.468 -11.916  89.509  0.00  0.00     0.078 H 
ATOM    141  H   ASG d 219      29.038 -11.096  90.277  0.00  0.00     0.078 H 
ATOM    142  H   ASG d 219      29.281 -13.272  91.844  0.00  0.00     0.093 H 
ATOM    143  H   ASG d 219      26.191 -19.540  90.409  0.00  0.00     0.040 H 
ATOM    144  H   ASG d 219      27.617 -20.518  90.663  0.00  0.00     0.040 H 
ATOM    145  H   ASG d 219      27.030 -20.233  89.043  0.00  0.00     0.040 H 
ATOM    146  H   ASG d 219      29.444 -11.516  87.541  0.00  0.00     0.209 HD
ATOM    147  H   ASG d 219      26.622 -17.178  90.727  0.00  0.00     0.163 HD
ATOM    148  H   ASG d 219      29.283 -16.384  89.986  0.00  0.00     0.084 H 
ATOM    149  H   ASG d 219      26.931 -14.939  88.812  0.00  0.00     0.132 H 
ENDROOT
TORSDOF 38
ENDMDL
MODEL 38
REMARK VINA RESULT:      -6.4      3.871     16.479
REMARK  0 active torsions:
REMARK  status: ('A' for Active; 'I' for Inactive)
REMARK       I    between atoms: C6_2  and  C5_55 
REMARK       I    between atoms: O4_3  and  C4_83 
REMARK       I    between atoms: O4_3  and  S_75 
REMARK       I    between atoms: C6_4  and  C5_67 
REMARK       I    between atoms: O4_5  and  C4_61 
REMARK       I    between atoms: O4_5  and  S_71 
REMARK       I    between atoms: O3_6  and  C3_32 
REMARK       I    between atoms: C1_8  and  O1_30 
REMARK       I    between atoms: C3_12  and  O3_62 
REMARK       I    between atoms: C5_13  and  C6_25 
REMARK       I    between atoms: O1_14  and  C4_39 
REMARK       I    between atoms: O1_14  and  C1_23 
REMARK       I    between atoms: C5_15  and  C6_27 
REMARK       I    between atoms: C5_18  and  C6_44 
REMARK       I    between atoms: C3_19  and  O1_82 
REMARK       I    between atoms: C2_20  and  N_89 
REMARK       I    between atoms: C2_21  and  O2_80 
REMARK       I    between atoms: C1_24  and  O1_45 
REMARK       I    between atoms: C6_25  and  O6_48 
REMARK       I    between atoms: C6_27  and  O6_77 
REMARK       I    between atoms: C7_28  and  C8_35 
REMARK       I    between atoms: C7_28  and  N_70 
REMARK       I    between atoms: O1_30  and  C3_43 
REMARK       I    between atoms: C4_33  and  O4_53 
REMARK       I    between atoms: S_34  and  O4_53 
REMARK       I    between atoms: O2_40  and  C2_87 
REMARK       I    between atoms: C7_41  and  C8_81 
REMARK       I    between atoms: C7_41  and  N_89 
REMARK       I    between atoms: O6_42  and  C6_88 
REMARK       I    between atoms: O1_45  and  C4_90 
REMARK       I    between atoms: C7_46  and  C8_69 
REMARK       I    between atoms: C7_46  and  N_85 
REMARK       I    between atoms: C2_47  and  N_85 
REMARK       I    between atoms: O1_50  and  C4_73 
REMARK       I    between atoms: O1_50  and  C1_76 
REMARK       I    between atoms: C1_52  and  O1_82 
REMARK       I    between atoms: C3_54  and  O3_72 
REMARK       I    between atoms: C5_57  and  C6_88 
REMARK       I    between atoms: O1_59  and  C1_78 
REMARK       I    between atoms: O2_63  and  C2_68 
REMARK       I    between atoms: N_70  and  C2_74 
ROOT
ATOM      1  O6B BDP d 216      23.500 -22.455  82.241  0.00  0.00    -0.646 OA
ATOM      2  C6  BDP d 216      24.297 -22.635  81.295  0.00  0.00     0.206 C 
ATOM      3  C3  BDP d 216      22.247 -21.297  78.299  0.00  0.00     0.092 C 
ATOM      4  O6A BDP d 216      25.515 -22.865  81.448  0.00  0.00    -0.646 OA
ATOM      5  O5  BDP d 216      22.953 -23.717  79.635  0.00  0.00    -0.340 OA
ATOM      6  C4  BDP d 216      22.943 -21.292  79.658  0.00  0.00     0.103 C 
ATOM      7  O2  BDP d 216      21.065 -22.687  76.729  0.00  0.00    -0.388 OA
ATOM      8  C5  BDP d 216      23.752 -22.573  79.871  0.00  0.00     0.152 C 
ATOM      9  O1  BDP d 216      21.839 -25.012  78.060  0.00  0.00    -0.368 OA
ATOM     10  O3  BDP d 216      21.311 -20.241  78.239  0.00  0.00    -0.390 OA
ATOM     11  C1  BDP d 216      22.498 -23.785  78.300  0.00  0.00     0.156 C 
ATOM     12  C2  BDP d 216      21.539 -22.628  78.055  0.00  0.00     0.110 C 
ATOM     13  H   BDP d 216      22.987 -21.164  77.538  0.00  0.00     0.091 H 
ATOM     14  H   BDP d 216      22.216 -21.260  80.443  0.00  0.00     0.092 H 
ATOM     15  H   BDP d 216      20.454 -21.951  76.571  0.00  0.00     0.210 HD
ATOM     16  H   BDP d 216      24.567 -22.560  79.178  0.00  0.00     0.104 H 
ATOM     17  H   BDP d 216      22.454 -25.746  78.217  0.00  0.00     0.212 HD
ATOM     18  H   BDP d 216      20.640 -20.364  78.930  0.00  0.00     0.210 HD
ATOM     19  H   BDP d 216      23.335 -23.720  77.635  0.00  0.00     0.133 H 
ATOM     20  H   BDP d 216      20.713 -22.705  78.730  0.00  0.00     0.094 H 
ATOM     21  O4  ASG d 217      23.004 -15.869  80.747  0.00  0.00    -0.246 OA
ATOM     22  O7  ASG d 217      26.748 -18.096  79.503  0.00  0.00    -0.274 OA
ATOM     23  O1  ASG d 217      23.748 -20.168  79.719  0.00  0.00    -0.348 OA
ATOM     24  C5  ASG d 217      21.667 -17.710  81.666  0.00  0.00     0.090 C 
ATOM     25  C1  ASG d 217      23.377 -19.283  80.762  0.00  0.00     0.154 C 
ATOM     26  C6  ASG d 217      20.217 -17.126  81.500  0.00  0.00     0.043 C 
ATOM     27  OSA ASG d 217      23.210 -13.787  82.191  0.00  0.00    -0.572 OA
ATOM     28  C3  ASG d 217      24.045 -17.409  82.341  0.00  0.00     0.094 C 
ATOM     29  C7  ASG d 217      26.874 -18.845  80.408  0.00  0.00     0.214 C 
ATOM     30  C2  ASG d 217      24.516 -18.309  81.205  0.00  0.00     0.087 C 
ATOM     31  O5  ASG d 217      22.099 -18.540  80.520  0.00  0.00    -0.349 OA
ATOM     32  OSB ASG d 217      21.517 -13.845  80.486  0.00  0.00    -0.572 OA
ATOM     33  OSC ASG d 217      23.841 -13.658  79.906  0.00  0.00    -0.572 OA
ATOM     34  C8  ASG d 217      28.240 -19.509  80.659  0.00  0.00    -0.003 C 
ATOM     35  S   ASG d 217      22.878 -14.232  80.837  0.00  0.00     0.252 S 
ATOM     36  O6  ASG d 217      19.123 -17.901  81.971  0.00  0.00    -0.398 OA
ATOM     37  C4  ASG d 217      22.790 -16.656  81.907  0.00  0.00     0.114 C 
ATOM     38  N   ASG d 217      25.812 -18.978  81.401  0.00  0.00    -0.349 N 
ATOM     39  H   ASG d 217      21.557 -18.303  82.550  0.00  0.00     0.090 H 
ATOM     40  H   ASG d 217      23.193 -19.944  81.583  0.00  0.00     0.132 H 
ATOM     41  H   ASG d 217      20.060 -16.958  80.455  0.00  0.00     0.078 H 
ATOM     42  H   ASG d 217      20.209 -16.253  82.119  0.00  0.00     0.078 H 
ATOM     43  H   ASG d 217      23.920 -18.020  83.211  0.00  0.00     0.091 H 
ATOM     44  H   ASG d 217      24.731 -17.644  80.395  0.00  0.00     0.084 H 
ATOM     45  H   ASG d 217      28.890 -19.309  79.833  0.00  0.00     0.040 H 
ATOM     46  H   ASG d 217      28.108 -20.566  80.762  0.00  0.00     0.040 H 
ATOM     47  H   ASG d 217      28.669 -19.113  81.556  0.00  0.00     0.040 H 
ATOM     48  H   ASG d 217      19.061 -18.720  81.454  0.00  0.00     0.209 HD
ATOM     49  H   ASG d 217      22.508 -15.967  82.678  0.00  0.00     0.093 H 
ATOM     50  H   ASG d 217      25.965 -19.520  82.208  0.00  0.00     0.163 HD
ATOM     51  C6  BDP d 218      25.023 -16.137  87.216  0.00  0.00     0.206 C 
ATOM     52  O3  BDP d 218      28.886 -14.646  84.573  0.00  0.00    -0.390 OA
ATOM     53  C1  BDP d 218      25.786 -16.463  83.603  0.00  0.00     0.160 C 
ATOM     54  C2  BDP d 218      26.951 -15.486  83.478  0.00  0.00     0.110 C 
ATOM     55  O6A BDP d 218      24.876 -17.113  87.984  0.00  0.00    -0.646 OA
ATOM     56  O1  BDP d 218      24.947 -16.357  82.468  0.00  0.00    -0.348 OA
ATOM     57  C3  BDP d 218      27.861 -15.603  84.687  0.00  0.00     0.092 C 
ATOM     58  O5  BDP d 218      25.080 -16.141  84.785  0.00  0.00    -0.340 OA
ATOM     59  C5  BDP d 218      25.861 -16.332  85.953  0.00  0.00     0.152 C 
ATOM     60  C4  BDP d 218      27.050 -15.375  85.958  0.00  0.00     0.103 C 
ATOM     61  O2  BDP d 218      27.697 -15.738  82.307  0.00  0.00    -0.388 OA
ATOM     62  O6B BDP d 218      24.539 -15.004  87.435  0.00  0.00    -0.646 OA
ATOM     63  H   BDP d 218      29.390 -14.808  83.759  0.00  0.00     0.210 HD
ATOM     64  H   BDP d 218      26.137 -17.472  83.654  0.00  0.00     0.133 H 
ATOM     65  H   BDP d 218      26.549 -14.496  83.424  0.00  0.00     0.094 H 
ATOM     66  H   BDP d 218      28.296 -16.580  84.734  0.00  0.00     0.091 H 
ATOM     67  H   BDP d 218      26.224 -17.338  85.947  0.00  0.00     0.104 H 
ATOM     68  H   BDP d 218      26.823 -14.331  86.014  0.00  0.00     0.092 H 
ATOM     69  H   BDP d 218      28.067 -16.634  82.346  0.00  0.00     0.210 HD
ATOM     70  O4  ASG d 221      24.151 -17.273  99.709  0.00  0.00    -0.249 OA
ATOM     71  OSB ASG d 221      22.293 -19.013  99.580  0.00  0.00    -0.572 OA
ATOM     72  OSC ASG d 221      24.089 -19.412 101.104  0.00  0.00    -0.572 OA
ATOM     73  C2  ASG d 221      25.401 -15.101  98.518  0.00  0.00     0.062 C 
ATOM     74  C1  ASG d 221      26.393 -15.975  97.675  0.00  0.00     0.151 C 
ATOM     75  C3  ASG d 221      25.581 -15.343 100.001  0.00  0.00    -0.014 C 
ATOM     76  O7  ASG d 221      24.121 -12.959  99.952  0.00  0.00    -0.274 OA
ATOM     77  C7  ASG d 221      24.860 -12.660  99.078  0.00  0.00     0.214 C 
ATOM     78  O6  ASG d 221      28.063 -19.594  99.630  0.00  0.00    -0.398 OA
ATOM     79  O1  ASG d 221      26.138 -15.954  96.274  0.00  0.00    -0.348 OA
ATOM     80  C5  ASG d 221      26.652 -17.446  99.709  0.00  0.00     0.088 C 
ATOM     81  C4  ASG d 221      25.360 -16.807 100.286  0.00  0.00     0.089 C 
ATOM     82  OSA ASG d 221      24.429 -19.617  98.747  0.00  0.00    -0.572 OA
ATOM     83  S   ASG d 221      23.731 -18.872  99.792  0.00  0.00     0.252 S 
ATOM     84  O5  ASG d 221      26.551 -17.360  98.236  0.00  0.00    -0.349 OA
ATOM     85  C8  ASG d 221      25.086 -11.172  98.759  0.00  0.00    -0.003 C 
ATOM     86  C6  ASG d 221      27.068 -18.839 100.308  0.00  0.00     0.043 C 
ATOM     87  N   ASG d 221      25.384 -13.672  98.161  0.00  0.00    -0.352 N 
ATOM     88  H   ASG d 221      24.420 -15.436  98.252  0.00  0.00     0.080 H 
ATOM     89  H   ASG d 221      27.347 -15.503  97.774  0.00  0.00     0.132 H 
ATOM     90  H   ASG d 221      24.872 -14.759 100.549  0.00  0.00     0.040 H 
ATOM     91  H   ASG d 221      26.570 -15.060 100.298  0.00  0.00     0.040 H 
ATOM     92  H   ASG d 221      28.219 -20.424 100.106  0.00  0.00     0.209 HD
ATOM     93  H   ASG d 221      27.504 -16.888 100.036  0.00  0.00     0.090 H 
ATOM     94  H   ASG d 221      25.225 -17.054 101.318  0.00  0.00     0.089 H 
ATOM     95  H   ASG d 221      24.642 -10.572  99.525  0.00  0.00     0.040 H 
ATOM     96  H   ASG d 221      24.637 -10.937  97.816  0.00  0.00     0.040 H 
ATOM     97  H   ASG d 221      26.136 -10.973  98.712  0.00  0.00     0.040 H 
ATOM     98  H   ASG d 221      27.427 -18.663 101.301  0.00  0.00     0.078 H 
ATOM     99  H   ASG d 221      26.184 -19.435 100.228  0.00  0.00     0.078 H 
ATOM    100  H   ASG d 221      25.734 -13.390  97.285  0.00  0.00     0.163 HD
ATOM    101  O5  BDP d 220      27.877 -14.483  93.572  0.00  0.00    -0.340 OA
ATOM    102  C5  BDP d 220      26.846 -14.700  94.514  0.00  0.00     0.152 C 
ATOM    103  C6  BDP d 220      26.485 -13.395  95.219  0.00  0.00     0.206 C 
ATOM    104  C1  BDP d 220      28.008 -15.579  92.693  0.00  0.00     0.160 C 
ATOM    105  C3  BDP d 220      27.554 -17.065  94.728  0.00  0.00     0.092 C 
ATOM    106  O2  BDP d 220      28.446 -17.929  92.657  0.00  0.00    -0.388 OA
ATOM    107  O6B BDP d 220      27.396 -12.771  95.815  0.00  0.00    -0.646 OA
ATOM    108  C2  BDP d 220      28.437 -16.800  93.503  0.00  0.00     0.110 C 
ATOM    109  O3  BDP d 220      28.191 -18.000  95.580  0.00  0.00    -0.390 OA
ATOM    110  O1  BDP d 220      28.990 -15.311  91.703  0.00  0.00    -0.348 OA
ATOM    111  O6A BDP d 220      25.289 -13.017  95.165  0.00  0.00    -0.646 OA
ATOM    112  C4  BDP d 220      27.279 -15.776  95.505  0.00  0.00     0.103 C 
ATOM    113  H   BDP d 220      25.966 -15.043  94.011  0.00  0.00     0.104 H 
ATOM    114  H   BDP d 220      27.071 -15.757  92.208  0.00  0.00     0.133 H 
ATOM    115  H   BDP d 220      26.619 -17.456  94.386  0.00  0.00     0.091 H 
ATOM    116  H   BDP d 220      29.007 -17.751  91.886  0.00  0.00     0.210 HD
ATOM    117  H   BDP d 220      29.418 -16.600  93.883  0.00  0.00     0.094 H 
ATOM    118  H   BDP d 220      29.037 -17.635  95.885  0.00  0.00     0.210 HD
ATOM    119  H   BDP d 220      28.151 -15.526  96.073  0.00  0.00     0.092 H 
ATOM    120  OSC ASG d 219      33.346 -14.052  89.875  0.00  0.00    -0.572 OA
ATOM    121  C5  ASG d 219      28.949 -12.897  88.910  0.00  0.00     0.090 C 
ATOM    122  C3  ASG d 219      28.483 -14.683  90.571  0.00  0.00     0.094 C 
ATOM    123  C6  ASG d 219      29.776 -11.625  88.520  0.00  0.00     0.043 C 
ATOM    124  C7  ASG d 219      27.767 -18.224  89.510  0.00  0.00     0.214 C 
ATOM    125  C4  ASG d 219      29.520 -13.657  90.138  0.00  0.00     0.114 C 
ATOM    126  S   ASG d 219      32.154 -13.507  90.523  0.00  0.00     0.252 S 
ATOM    127  C8  ASG d 219      26.774 -19.378  89.761  0.00  0.00    -0.003 C 
ATOM    128  O7  ASG d 219      28.816 -18.448  89.019  0.00  0.00    -0.274 OA
ATOM    129  O6  ASG d 219      29.466 -10.954  87.307  0.00  0.00    -0.398 OA
ATOM    130  OSB ASG d 219      32.187 -12.060  90.313  0.00  0.00    -0.572 OA
ATOM    131  O1  ASG d 219      27.742 -15.917  87.028  0.00  0.00    -0.348 OA
ATOM    132  O4  ASG d 219      30.802 -14.188  89.848  0.00  0.00    -0.246 OA
ATOM    133  OSA ASG d 219      32.117 -13.843  91.948  0.00  0.00    -0.572 OA
ATOM    134  O5  ASG d 219      28.856 -13.892  87.820  0.00  0.00    -0.349 OA
ATOM    135  N   ASG d 219      27.410 -16.848  89.846  0.00  0.00    -0.349 N 
ATOM    136  C2  ASG d 219      28.283 -15.719  89.477  0.00  0.00     0.087 C 
ATOM    137  C1  ASG d 219      27.911 -15.020  88.118  0.00  0.00     0.154 C 
ATOM    138  H   ASG d 219      27.986 -12.491  89.135  0.00  0.00     0.090 H 
ATOM    139  H   ASG d 219      27.543 -14.211  90.767  0.00  0.00     0.091 H 
ATOM    140  H   ASG d 219      30.803 -11.922  88.462  0.00  0.00     0.078 H 
ATOM    141  H   ASG d 219      29.531 -10.913  89.280  0.00  0.00     0.078 H 
ATOM    142  H   ASG d 219      29.688 -13.004  90.969  0.00  0.00     0.093 H 
ATOM    143  H   ASG d 219      25.882 -18.991  90.208  0.00  0.00     0.040 H 
ATOM    144  H   ASG d 219      27.221 -20.095  90.418  0.00  0.00     0.040 H 
ATOM    145  H   ASG d 219      26.531 -19.849  88.832  0.00  0.00     0.040 H 
ATOM    146  H   ASG d 219      29.662 -11.536  86.556  0.00  0.00     0.209 HD
ATOM    147  H   ASG d 219      26.570 -16.671  90.330  0.00  0.00     0.163 HD
ATOM    148  H   ASG d 219      29.225 -16.205  89.333  0.00  0.00     0.084 H 
ATOM    149  H   ASG d 219      26.937 -14.597  88.248  0.00  0.00     0.132 H 
ENDROOT
TORSDOF 38
ENDMDL
MODEL 39
REMARK VINA RESULT:      -6.4      4.889     16.150
REMARK  0 active torsions:
REMARK  status: ('A' for Active; 'I' for Inactive)
REMARK       I    between atoms: C6_2  and  C5_55 
REMARK       I    between atoms: O4_3  and  C4_83 
REMARK       I    between atoms: O4_3  and  S_75 
REMARK       I    between atoms: C6_4  and  C5_67 
REMARK       I    between atoms: O4_5  and  C4_61 
REMARK       I    between atoms: O4_5  and  S_71 
REMARK       I    between atoms: O3_6  and  C3_32 
REMARK       I    between atoms: C1_8  and  O1_30 
REMARK       I    between atoms: C3_12  and  O3_62 
REMARK       I    between atoms: C5_13  and  C6_25 
REMARK       I    between atoms: O1_14  and  C4_39 
REMARK       I    between atoms: O1_14  and  C1_23 
REMARK       I    between atoms: C5_15  and  C6_27 
REMARK       I    between atoms: C5_18  and  C6_44 
REMARK       I    between atoms: C3_19  and  O1_82 
REMARK       I    between atoms: C2_20  and  N_89 
REMARK       I    between atoms: C2_21  and  O2_80 
REMARK       I    between atoms: C1_24  and  O1_45 
REMARK       I    between atoms: C6_25  and  O6_48 
REMARK       I    between atoms: C6_27  and  O6_77 
REMARK       I    between atoms: C7_28  and  C8_35 
REMARK       I    between atoms: C7_28  and  N_70 
REMARK       I    between atoms: O1_30  and  C3_43 
REMARK       I    between atoms: C4_33  and  O4_53 
REMARK       I    between atoms: S_34  and  O4_53 
REMARK       I    between atoms: O2_40  and  C2_87 
REMARK       I    between atoms: C7_41  and  C8_81 
REMARK       I    between atoms: C7_41  and  N_89 
REMARK       I    between atoms: O6_42  and  C6_88 
REMARK       I    between atoms: O1_45  and  C4_90 
REMARK       I    between atoms: C7_46  and  C8_69 
REMARK       I    between atoms: C7_46  and  N_85 
REMARK       I    between atoms: C2_47  and  N_85 
REMARK       I    between atoms: O1_50  and  C4_73 
REMARK       I    between atoms: O1_50  and  C1_76 
REMARK       I    between atoms: C1_52  and  O1_82 
REMARK       I    between atoms: C3_54  and  O3_72 
REMARK       I    between atoms: C5_57  and  C6_88 
REMARK       I    between atoms: O1_59  and  C1_78 
REMARK       I    between atoms: O2_63  and  C2_68 
REMARK       I    between atoms: N_70  and  C2_74 
ROOT
ATOM      1  O6B BDP d 216      31.791 -13.237  82.706  0.00  0.00    -0.646 OA
ATOM      2  C6  BDP d 216      32.198 -12.203  82.134  0.00  0.00     0.206 C 
ATOM      3  C3  BDP d 216      30.546 -12.549  78.653  0.00  0.00     0.092 C 
ATOM      4  O6A BDP d 216      32.707 -11.233  82.734  0.00  0.00    -0.646 OA
ATOM      5  O5  BDP d 216      33.001 -13.013  80.028  0.00  0.00    -0.340 OA
ATOM      6  C4  BDP d 216      30.646 -12.455  80.174  0.00  0.00     0.103 C 
ATOM      7  O2  BDP d 216      31.682 -13.323  76.677  0.00  0.00    -0.388 OA
ATOM      8  C5  BDP d 216      32.072 -12.122  80.616  0.00  0.00     0.152 C 
ATOM      9  O1  BDP d 216      34.062 -13.703  78.080  0.00  0.00    -0.368 OA
ATOM     10  O3  BDP d 216      29.300 -13.108  78.291  0.00  0.00    -0.390 OA
ATOM     11  C1  BDP d 216      33.019 -12.917  78.620  0.00  0.00     0.156 C 
ATOM     12  C2  BDP d 216      31.678 -13.401  78.084  0.00  0.00     0.110 C 
ATOM     13  H   BDP d 216      30.628 -11.563  78.246  0.00  0.00     0.091 H 
ATOM     14  H   BDP d 216      30.405 -13.399  80.617  0.00  0.00     0.092 H 
ATOM     15  H   BDP d 216      30.828 -13.631  76.334  0.00  0.00     0.210 HD
ATOM     16  H   BDP d 216      32.286 -11.124  80.293  0.00  0.00     0.104 H 
ATOM     17  H   BDP d 216      34.914 -13.391  78.424  0.00  0.00     0.212 HD
ATOM     18  H   BDP d 216      29.228 -14.002  78.661  0.00  0.00     0.210 HD
ATOM     19  H   BDP d 216      33.186 -11.899  78.335  0.00  0.00     0.133 H 
ATOM     20  H   BDP d 216      31.524 -14.417  78.383  0.00  0.00     0.094 H 
ATOM     21  O4  ASG d 217      25.352 -11.533  81.486  0.00  0.00    -0.246 OA
ATOM     22  O7  ASG d 217      28.464  -8.246  81.671  0.00  0.00    -0.274 OA
ATOM     23  O1  ASG d 217      29.746 -11.494  80.600  0.00  0.00    -0.348 OA
ATOM     24  C5  ASG d 217      26.776 -13.518  81.717  0.00  0.00     0.090 C 
ATOM     25  C1  ASG d 217      28.751 -12.019  81.464  0.00  0.00     0.154 C 
ATOM     26  C6  ASG d 217      25.869 -14.606  81.034  0.00  0.00     0.043 C 
ATOM     27  OSA ASG d 217      23.317 -11.414  83.004  0.00  0.00    -0.572 OA
ATOM     28  C3  ASG d 217      27.023 -11.591  83.275  0.00  0.00     0.094 C 
ATOM     29  C7  ASG d 217      29.179  -8.663  82.514  0.00  0.00     0.214 C 
ATOM     30  C2  ASG d 217      28.059 -10.945  82.364  0.00  0.00     0.087 C 
ATOM     31  O5  ASG d 217      27.735 -12.886  80.786  0.00  0.00    -0.349 OA
ATOM     32  OSB ASG d 217      23.045 -12.274  80.777  0.00  0.00    -0.572 OA
ATOM     33  OSC ASG d 217      23.446  -9.935  81.151  0.00  0.00    -0.572 OA
ATOM     34  C8  ASG d 217      30.139  -7.702  83.238  0.00  0.00    -0.003 C 
ATOM     35  S   ASG d 217      23.730 -11.291  81.606  0.00  0.00     0.252 S 
ATOM     36  O6  ASG d 217      26.338 -15.947  81.004  0.00  0.00    -0.398 OA
ATOM     37  C4  ASG d 217      26.011 -12.361  82.430  0.00  0.00     0.114 C 
ATOM     38  N   ASG d 217      29.010 -10.025  83.010  0.00  0.00    -0.349 N 
ATOM     39  H   ASG d 217      27.285 -14.100  82.457  0.00  0.00     0.090 H 
ATOM     40  H   ASG d 217      29.311 -12.658  82.114  0.00  0.00     0.132 H 
ATOM     41  H   ASG d 217      25.716 -14.301  80.020  0.00  0.00     0.078 H 
ATOM     42  H   ASG d 217      24.993 -14.645  81.647  0.00  0.00     0.078 H 
ATOM     43  H   ASG d 217      27.546 -12.185  83.995  0.00  0.00     0.091 H 
ATOM     44  H   ASG d 217      27.502 -10.281  81.736  0.00  0.00     0.084 H 
ATOM     45  H   ASG d 217      30.139  -6.755  82.741  0.00  0.00     0.040 H 
ATOM     46  H   ASG d 217      31.128  -8.110  83.226  0.00  0.00     0.040 H 
ATOM     47  H   ASG d 217      29.818  -7.573  84.251  0.00  0.00     0.040 H 
ATOM     48  H   ASG d 217      27.141 -15.997  80.461  0.00  0.00     0.209 HD
ATOM     49  H   ASG d 217      25.241 -12.747  83.066  0.00  0.00     0.093 H 
ATOM     50  H   ASG d 217      29.536 -10.331  83.784  0.00  0.00     0.163 HD
ATOM     51  C6  BDP d 218      25.803 -12.308  88.208  0.00  0.00     0.206 C 
ATOM     52  O3  BDP d 218      25.401  -7.488  87.347  0.00  0.00    -0.390 OA
ATOM     53  C1  BDP d 218      26.465 -10.305  85.159  0.00  0.00     0.160 C 
ATOM     54  C2  BDP d 218      25.802  -8.986  85.547  0.00  0.00     0.110 C 
ATOM     55  O6A BDP d 218      26.680 -12.969  88.807  0.00  0.00    -0.646 OA
ATOM     56  O1  BDP d 218      26.212 -10.586  83.796  0.00  0.00    -0.348 OA
ATOM     57  C3  BDP d 218      26.079  -8.672  87.006  0.00  0.00     0.092 C 
ATOM     58  O5  BDP d 218      25.930 -11.316  85.992  0.00  0.00    -0.340 OA
ATOM     59  C5  BDP d 218      26.250 -11.118  87.360  0.00  0.00     0.152 C 
ATOM     60  C4  BDP d 218      25.606  -9.834  87.874  0.00  0.00     0.103 C 
ATOM     61  O2  BDP d 218      26.278  -7.928  84.744  0.00  0.00    -0.388 OA
ATOM     62  O6B BDP d 218      24.578 -12.555  88.281  0.00  0.00    -0.646 OA
ATOM     63  H   BDP d 218      25.715  -6.763  86.785  0.00  0.00     0.210 HD
ATOM     64  H   BDP d 218      27.526 -10.252  85.290  0.00  0.00     0.133 H 
ATOM     65  H   BDP d 218      24.748  -9.088  85.394  0.00  0.00     0.094 H 
ATOM     66  H   BDP d 218      27.128  -8.536  87.166  0.00  0.00     0.091 H 
ATOM     67  H   BDP d 218      27.313 -11.032  87.441  0.00  0.00     0.104 H 
ATOM     68  H   BDP d 218      24.536  -9.809  87.893  0.00  0.00     0.092 H 
ATOM     69  H   BDP d 218      27.234  -7.827  84.876  0.00  0.00     0.210 HD
ATOM     70  O4  ASG d 221      26.132 -18.201  99.312  0.00  0.00    -0.249 OA
ATOM     71  OSB ASG d 221      27.380 -20.219  98.383  0.00  0.00    -0.572 OA
ATOM     72  OSC ASG d 221      28.128 -19.305 100.460  0.00  0.00    -0.572 OA
ATOM     73  C2  ASG d 221      24.379 -16.108  98.813  0.00  0.00     0.062 C 
ATOM     74  C1  ASG d 221      25.502 -15.107  98.375  0.00  0.00     0.151 C 
ATOM     75  C3  ASG d 221      24.589 -16.581 100.236  0.00  0.00    -0.014 C 
ATOM     76  O7  ASG d 221      21.930 -17.295  99.752  0.00  0.00    -0.274 OA
ATOM     77  C7  ASG d 221      21.856 -16.227  99.248  0.00  0.00     0.214 C 
ATOM     78  O6  ASG d 221      29.322 -15.238 100.631  0.00  0.00    -0.398 OA
ATOM     79  O1  ASG d 221      25.484 -14.784  96.988  0.00  0.00    -0.348 OA
ATOM     80  C5  ASG d 221      26.898 -16.014 100.271  0.00  0.00     0.088 C 
ATOM     81  C4  ASG d 221      25.943 -17.236 100.335  0.00  0.00     0.089 C 
ATOM     82  OSA ASG d 221      28.515 -18.137  98.411  0.00  0.00    -0.572 OA
ATOM     83  S   ASG d 221      27.578 -18.987  99.142  0.00  0.00     0.252 S 
ATOM     84  O5  ASG d 221      26.857 -15.512  98.880  0.00  0.00    -0.349 OA
ATOM     85  C8  ASG d 221      20.481 -15.548  99.120  0.00  0.00    -0.003 C 
ATOM     86  C6  ASG d 221      28.322 -16.207 100.910  0.00  0.00     0.043 C 
ATOM     87  N   ASG d 221      23.004 -15.645  98.554  0.00  0.00    -0.352 N 
ATOM     88  H   ASG d 221      24.481 -16.959  98.172  0.00  0.00     0.080 H 
ATOM     89  H   ASG d 221      25.267 -14.182  98.861  0.00  0.00     0.132 H 
ATOM     90  H   ASG d 221      23.828 -17.286 100.497  0.00  0.00     0.040 H 
ATOM     91  H   ASG d 221      24.538 -15.748 100.907  0.00  0.00     0.040 H 
ATOM     92  H   ASG d 221      30.144 -15.481 101.086  0.00  0.00     0.209 HD
ATOM     93  H   ASG d 221      26.546 -15.249 100.931  0.00  0.00     0.090 H 
ATOM     94  H   ASG d 221      26.103 -17.816 101.220  0.00  0.00     0.089 H 
ATOM     95  H   ASG d 221      19.758 -16.098  99.685  0.00  0.00     0.040 H 
ATOM     96  H   ASG d 221      20.189 -15.526  98.091  0.00  0.00     0.040 H 
ATOM     97  H   ASG d 221      20.542 -14.547  99.494  0.00  0.00     0.040 H 
ATOM     98  H   ASG d 221      28.192 -16.231 101.972  0.00  0.00     0.078 H 
ATOM     99  H   ASG d 221      28.692 -17.106 100.463  0.00  0.00     0.078 H 
ATOM    100  H   ASG d 221      22.854 -14.926  97.897  0.00  0.00     0.163 HD
ATOM    101  O5  BDP d 220      24.595 -11.839  95.251  0.00  0.00    -0.340 OA
ATOM    102  C5  BDP d 220      24.516 -13.174  95.708  0.00  0.00     0.152 C 
ATOM    103  C6  BDP d 220      23.132 -13.458  96.286  0.00  0.00     0.206 C 
ATOM    104  C1  BDP d 220      25.729 -11.642  94.435  0.00  0.00     0.160 C 
ATOM    105  C3  BDP d 220      26.969 -13.189  96.054  0.00  0.00     0.092 C 
ATOM    106  O2  BDP d 220      28.115 -11.796  94.447  0.00  0.00    -0.388 OA
ATOM    107  O6B BDP d 220      22.718 -12.730  97.220  0.00  0.00    -0.646 OA
ATOM    108  C2  BDP d 220      26.979 -11.863  95.282  0.00  0.00     0.110 C 
ATOM    109  O3  BDP d 220      27.991 -13.174  97.036  0.00  0.00    -0.390 OA
ATOM    110  O1  BDP d 220      25.749 -10.319  93.917  0.00  0.00    -0.348 OA
ATOM    111  O6A BDP d 220      22.481 -14.412  95.794  0.00  0.00    -0.646 OA
ATOM    112  C4  BDP d 220      25.619 -13.428  96.731  0.00  0.00     0.103 C 
ATOM    113  H   BDP d 220      24.661 -13.843  94.886  0.00  0.00     0.104 H 
ATOM    114  H   BDP d 220      25.699 -12.330  93.616  0.00  0.00     0.133 H 
ATOM    115  H   BDP d 220      27.141 -13.981  95.356  0.00  0.00     0.091 H 
ATOM    116  H   BDP d 220      28.111 -10.956  93.964  0.00  0.00     0.210 HD
ATOM    117  H   BDP d 220      27.003 -11.090  96.022  0.00  0.00     0.094 H 
ATOM    118  H   BDP d 220      27.826 -12.452  97.663  0.00  0.00     0.210 HD
ATOM    119  H   BDP d 220      25.559 -12.812  97.604  0.00  0.00     0.092 H 
ATOM    120  OSC ASG d 219      25.653  -5.432  93.986  0.00  0.00    -0.572 OA
ATOM    121  C5  ASG d 219      23.524  -8.698  91.457  0.00  0.00     0.090 C 
ATOM    122  C3  ASG d 219      25.069 -10.182  92.712  0.00  0.00     0.094 C 
ATOM    123  C6  ASG d 219      22.506  -7.508  91.485  0.00  0.00     0.043 C 
ATOM    124  C7  ASG d 219      28.381 -11.251  91.271  0.00  0.00     0.214 C 
ATOM    125  C4  ASG d 219      24.342  -8.847  92.768  0.00  0.00     0.114 C 
ATOM    126  S   ASG d 219      24.810  -6.614  94.150  0.00  0.00     0.252 S 
ATOM    127  C8  ASG d 219      29.251 -12.507  91.058  0.00  0.00    -0.003 C 
ATOM    128  O7  ASG d 219      28.871 -10.179  91.214  0.00  0.00    -0.274 OA
ATOM    129  O6  ASG d 219      21.835  -7.153  90.284  0.00  0.00    -0.398 OA
ATOM    130  OSB ASG d 219      23.424  -6.160  94.046  0.00  0.00    -0.572 OA
ATOM    131  O1  ASG d 219      26.249  -9.761  89.099  0.00  0.00    -0.348 OA
ATOM    132  O4  ASG d 219      25.177  -7.719  92.970  0.00  0.00    -0.246 OA
ATOM    133  OSA ASG d 219      25.063  -7.280  95.430  0.00  0.00    -0.572 OA
ATOM    134  O5  ASG d 219      24.516  -8.595  90.365  0.00  0.00    -0.349 OA
ATOM    135  N   ASG d 219      26.946 -11.372  91.515  0.00  0.00    -0.349 N 
ATOM    136  C2  ASG d 219      26.076 -10.182  91.572  0.00  0.00     0.087 C 
ATOM    137  C1  ASG d 219      25.370  -9.820  90.214  0.00  0.00     0.154 C 
ATOM    138  H   ASG d 219      22.889  -9.547  91.313  0.00  0.00     0.090 H 
ATOM    139  H   ASG d 219      24.378 -10.983  92.554  0.00  0.00     0.091 H 
ATOM    140  H   ASG d 219      23.042  -6.642  91.813  0.00  0.00     0.078 H 
ATOM    141  H   ASG d 219      21.722  -7.852  92.127  0.00  0.00     0.078 H 
ATOM    142  H   ASG d 219      23.711  -8.864  93.632  0.00  0.00     0.093 H 
ATOM    143  H   ASG d 219      28.641 -13.382  91.145  0.00  0.00     0.040 H 
ATOM    144  H   ASG d 219      30.023 -12.534  91.798  0.00  0.00     0.040 H 
ATOM    145  H   ASG d 219      29.691 -12.474  90.084  0.00  0.00     0.040 H 
ATOM    146  H   ASG d 219      22.481  -6.826  89.637  0.00  0.00     0.209 HD
ATOM    147  H   ASG d 219      26.551 -12.265  91.645  0.00  0.00     0.163 HD
ATOM    148  H   ASG d 219      26.780  -9.403  91.779  0.00  0.00     0.084 H 
ATOM    149  H   ASG d 219      24.721 -10.637  89.980  0.00  0.00     0.132 H 
ENDROOT
TORSDOF 38
ENDMDL
MODEL 40
REMARK VINA RESULT:      -6.4      6.083      8.759
REMARK  0 active torsions:
REMARK  status: ('A' for Active; 'I' for Inactive)
REMARK       I    between atoms: C6_2  and  C5_55 
REMARK       I    between atoms: O4_3  and  C4_83 
REMARK       I    between atoms: O4_3  and  S_75 
REMARK       I    between atoms: C6_4  and  C5_67 
REMARK       I    between atoms: O4_5  and  C4_61 
REMARK       I    between atoms: O4_5  and  S_71 
REMARK       I    between atoms: O3_6  and  C3_32 
REMARK       I    between atoms: C1_8  and  O1_30 
REMARK       I    between atoms: C3_12  and  O3_62 
REMARK       I    between atoms: C5_13  and  C6_25 
REMARK       I    between atoms: O1_14  and  C4_39 
REMARK       I    between atoms: O1_14  and  C1_23 
REMARK       I    between atoms: C5_15  and  C6_27 
REMARK       I    between atoms: C5_18  and  C6_44 
REMARK       I    between atoms: C3_19  and  O1_82 
REMARK       I    between atoms: C2_20  and  N_89 
REMARK       I    between atoms: C2_21  and  O2_80 
REMARK       I    between atoms: C1_24  and  O1_45 
REMARK       I    between atoms: C6_25  and  O6_48 
REMARK       I    between atoms: C6_27  and  O6_77 
REMARK       I    between atoms: C7_28  and  C8_35 
REMARK       I    between atoms: C7_28  and  N_70 
REMARK       I    between atoms: O1_30  and  C3_43 
REMARK       I    between atoms: C4_33  and  O4_53 
REMARK       I    between atoms: S_34  and  O4_53 
REMARK       I    between atoms: O2_40  and  C2_87 
REMARK       I    between atoms: C7_41  and  C8_81 
REMARK       I    between atoms: C7_41  and  N_89 
REMARK       I    between atoms: O6_42  and  C6_88 
REMARK       I    between atoms: O1_45  and  C4_90 
REMARK       I    between atoms: C7_46  and  C8_69 
REMARK       I    between atoms: C7_46  and  N_85 
REMARK       I    between atoms: C2_47  and  N_85 
REMARK       I    between atoms: O1_50  and  C4_73 
REMARK       I    between atoms: O1_50  and  C1_76 
REMARK       I    between atoms: C1_52  and  O1_82 
REMARK       I    between atoms: C3_54  and  O3_72 
REMARK       I    between atoms: C5_57  and  C6_88 
REMARK       I    between atoms: O1_59  and  C1_78 
REMARK       I    between atoms: O2_63  and  C2_68 
REMARK       I    between atoms: N_70  and  C2_74 
ROOT
ATOM      1  O6B BDP d 216      20.702 -14.912 101.260  0.00  0.00    -0.646 OA
ATOM      2  C6  BDP d 216      21.277 -14.684 102.346  0.00  0.00     0.206 C 
ATOM      3  C3  BDP d 216      21.405 -18.224 103.904  0.00  0.00     0.092 C 
ATOM      4  O6A BDP d 216      21.900 -13.630 102.595  0.00  0.00    -0.646 OA
ATOM      5  O5  BDP d 216      19.896 -15.804 103.950  0.00  0.00    -0.340 OA
ATOM      6  C4  BDP d 216      21.631 -17.115 102.878  0.00  0.00     0.103 C 
ATOM      7  O2  BDP d 216      19.895 -19.021 105.599  0.00  0.00    -0.388 OA
ATOM      8  C5  BDP d 216      21.213 -15.752 103.434  0.00  0.00     0.152 C 
ATOM      9  O1  BDP d 216      18.499 -16.606 105.624  0.00  0.00    -0.368 OA
ATOM     10  O3  BDP d 216      21.550 -19.484 103.282  0.00  0.00    -0.390 OA
ATOM     11  C1  BDP d 216      19.782 -16.697 105.037  0.00  0.00     0.156 C 
ATOM     12  C2  BDP d 216      20.016 -18.113 104.528  0.00  0.00     0.110 C 
ATOM     13  H   BDP d 216      22.134 -18.121 104.680  0.00  0.00     0.091 H 
ATOM     14  H   BDP d 216      21.026 -17.287 102.012  0.00  0.00     0.092 H 
ATOM     15  H   BDP d 216      20.044 -19.923 105.277  0.00  0.00     0.210 HD
ATOM     16  H   BDP d 216      21.892 -15.501 104.221  0.00  0.00     0.104 H 
ATOM     17  H   BDP d 216      18.354 -15.703 105.947  0.00  0.00     0.212 HD
ATOM     18  H   BDP d 216      20.888 -19.575 102.579  0.00  0.00     0.210 HD
ATOM     19  H   BDP d 216      20.508 -16.445 105.782  0.00  0.00     0.133 H 
ATOM     20  H   BDP d 216      19.286 -18.346 103.782  0.00  0.00     0.094 H 
ATOM     21  O4  ASG d 217      25.383 -19.515  99.597  0.00  0.00    -0.246 OA
ATOM     22  O7  ASG d 217      26.511 -16.235 102.511  0.00  0.00    -0.274 OA
ATOM     23  O1  ASG d 217      22.969 -17.129 102.525  0.00  0.00    -0.348 OA
ATOM     24  C5  ASG d 217      22.996 -19.040  99.283  0.00  0.00     0.090 C 
ATOM     25  C1  ASG d 217      23.171 -17.394 101.147  0.00  0.00     0.154 C 
ATOM     26  C6  ASG d 217      22.475 -20.456  98.840  0.00  0.00     0.043 C 
ATOM     27  OSA ASG d 217      26.761 -19.839  97.486  0.00  0.00    -0.572 OA
ATOM     28  C3  ASG d 217      24.684 -17.217  99.115  0.00  0.00     0.094 C 
ATOM     29  C7  ASG d 217      25.893 -15.327 102.076  0.00  0.00     0.214 C 
ATOM     30  C2  ASG d 217      24.556 -16.916 100.603  0.00  0.00     0.087 C 
ATOM     31  O5  ASG d 217      22.894 -18.809 100.741  0.00  0.00    -0.349 OA
ATOM     32  OSB ASG d 217      25.892 -21.780  98.605  0.00  0.00    -0.572 OA
ATOM     33  OSC ASG d 217      27.687 -20.507  99.568  0.00  0.00    -0.572 OA
ATOM     34  C8  ASG d 217      26.284 -13.888 102.461  0.00  0.00    -0.003 C 
ATOM     35  S   ASG d 217      26.462 -20.450  98.781  0.00  0.00     0.252 S 
ATOM     36  O6  ASG d 217      21.099 -20.592  98.512  0.00  0.00    -0.398 OA
ATOM     37  C4  ASG d 217      24.464 -18.710  98.877  0.00  0.00     0.114 C 
ATOM     38  N   ASG d 217      24.908 -15.550 101.023  0.00  0.00    -0.349 N 
ATOM     39  H   ASG d 217      22.336 -18.393  98.744  0.00  0.00     0.090 H 
ATOM     40  H   ASG d 217      22.424 -16.791 100.675  0.00  0.00     0.132 H 
ATOM     41  H   ASG d 217      22.679 -21.135  99.641  0.00  0.00     0.078 H 
ATOM     42  H   ASG d 217      22.988 -20.652  97.921  0.00  0.00     0.078 H 
ATOM     43  H   ASG d 217      24.004 -16.578  98.593  0.00  0.00     0.091 H 
ATOM     44  H   ASG d 217      25.325 -17.496 101.072  0.00  0.00     0.084 H 
ATOM     45  H   ASG d 217      27.012 -13.915 103.244  0.00  0.00     0.040 H 
ATOM     46  H   ASG d 217      25.417 -13.361 102.798  0.00  0.00     0.040 H 
ATOM     47  H   ASG d 217      26.696 -13.390 101.607  0.00  0.00     0.040 H 
ATOM     48  H   ASG d 217      20.561 -20.428  99.302  0.00  0.00     0.209 HD
ATOM     49  H   ASG d 217      24.633 -18.930  97.843  0.00  0.00     0.093 H 
ATOM     50  H   ASG d 217      24.474 -14.780 100.589  0.00  0.00     0.163 HD
ATOM     51  C6  BDP d 218      25.380 -14.992  94.544  0.00  0.00     0.206 C 
ATOM     52  O3  BDP d 218      29.517 -14.282  97.096  0.00  0.00    -0.390 OA
ATOM     53  C1  BDP d 218      26.305 -15.927  98.010  0.00  0.00     0.160 C 
ATOM     54  C2  BDP d 218      27.812 -15.691  97.966  0.00  0.00     0.110 C 
ATOM     55  O6A BDP d 218      24.440 -14.216  94.263  0.00  0.00    -0.646 OA
ATOM     56  O1  BDP d 218      26.024 -17.094  98.758  0.00  0.00    -0.348 OA
ATOM     57  C3  BDP d 218      28.121 -14.434  97.173  0.00  0.00     0.092 C 
ATOM     58  O5  BDP d 218      25.852 -16.060  96.677  0.00  0.00    -0.340 OA
ATOM     59  C5  BDP d 218      26.028 -14.871  95.922  0.00  0.00     0.152 C 
ATOM     60  C4  BDP d 218      27.513 -14.550  95.780  0.00  0.00     0.103 C 
ATOM     61  O2  BDP d 218      28.341 -15.563  99.267  0.00  0.00    -0.388 OA
ATOM     62  O6B BDP d 218      25.832 -15.848  93.751  0.00  0.00    -0.646 OA
ATOM     63  H   BDP d 218      29.884 -14.210  97.991  0.00  0.00     0.210 HD
ATOM     64  H   BDP d 218      25.805 -15.108  98.483  0.00  0.00     0.133 H 
ATOM     65  H   BDP d 218      28.266 -16.536  97.491  0.00  0.00     0.094 H 
ATOM     66  H   BDP d 218      27.700 -13.576  97.655  0.00  0.00     0.091 H 
ATOM     67  H   BDP d 218      25.547 -14.073  96.447  0.00  0.00     0.104 H 
ATOM     68  H   BDP d 218      28.103 -15.250  95.226  0.00  0.00     0.092 H 
ATOM     69  H   BDP d 218      27.936 -14.798  99.707  0.00  0.00     0.210 HD
ATOM     70  O4  ASG d 221      21.732  -9.288  83.947  0.00  0.00    -0.249 OA
ATOM     71  OSB ASG d 221      19.257  -9.714  84.382  0.00  0.00    -0.572 OA
ATOM     72  OSC ASG d 221      19.899  -7.535  83.643  0.00  0.00    -0.572 OA
ATOM     73  C2  ASG d 221      24.348 -10.127  84.335  0.00  0.00     0.062 C 
ATOM     74  C1  ASG d 221      24.534  -9.338  85.677  0.00  0.00     0.151 C 
ATOM     75  C3  ASG d 221      24.029  -9.192  83.188  0.00  0.00    -0.014 C 
ATOM     76  O7  ASG d 221      24.776 -11.536  81.862  0.00  0.00    -0.274 OA
ATOM     77  C7  ASG d 221      25.644 -11.577  82.665  0.00  0.00     0.214 C 
ATOM     78  O6  ASG d 221      22.695  -5.306  85.925  0.00  0.00    -0.398 OA
ATOM     79  O1  ASG d 221      24.631 -10.169  86.830  0.00  0.00    -0.348 OA
ATOM     80  C5  ASG d 221      23.283  -7.430  84.601  0.00  0.00     0.088 C 
ATOM     81  C4  ASG d 221      22.774  -8.424  83.523  0.00  0.00     0.089 C 
ATOM     82  OSA ASG d 221      20.403  -8.259  85.864  0.00  0.00    -0.572 OA
ATOM     83  S   ASG d 221      20.284  -8.679  84.469  0.00  0.00     0.252 S 
ATOM     84  O5  ASG d 221      23.542  -8.220  85.824  0.00  0.00    -0.349 OA
ATOM     85  C8  ASG d 221      26.924 -12.370  82.352  0.00  0.00    -0.003 C 
ATOM     86  C6  ASG d 221      22.451  -6.107  84.778  0.00  0.00     0.043 C 
ATOM     87  N   ASG d 221      25.431 -11.077  84.023  0.00  0.00    -0.352 N 
ATOM     88  H   ASG d 221      23.497 -10.758  84.484  0.00  0.00     0.080 H 
ATOM     89  H   ASG d 221      25.497  -8.876  85.607  0.00  0.00     0.132 H 
ATOM     90  H   ASG d 221      23.875  -9.759  82.294  0.00  0.00     0.040 H 
ATOM     91  H   ASG d 221      24.841  -8.512  83.036  0.00  0.00     0.040 H 
ATOM     92  H   ASG d 221      22.116  -4.528  85.906  0.00  0.00     0.209 HD
ATOM     93  H   ASG d 221      24.198  -6.982  84.272  0.00  0.00     0.090 H 
ATOM     94  H   ASG d 221      22.320  -7.915  82.699  0.00  0.00     0.089 H 
ATOM     95  H   ASG d 221      26.922 -12.659  81.322  0.00  0.00     0.040 H 
ATOM     96  H   ASG d 221      26.962 -13.244  82.968  0.00  0.00     0.040 H 
ATOM     97  H   ASG d 221      27.779 -11.758  82.550  0.00  0.00     0.040 H 
ATOM     98  H   ASG d 221      22.639  -5.496  83.920  0.00  0.00     0.078 H 
ATOM     99  H   ASG d 221      21.443  -6.444  84.901  0.00  0.00     0.078 H 
ATOM    100  H   ASG d 221      26.026 -11.383  84.746  0.00  0.00     0.163 HD
ATOM    101  O5  BDP d 220      27.341 -10.973  88.950  0.00  0.00    -0.340 OA
ATOM    102  C5  BDP d 220      26.324 -11.153  87.984  0.00  0.00     0.152 C 
ATOM    103  C6  BDP d 220      26.896 -11.793  86.722  0.00  0.00     0.206 C 
ATOM    104  C1  BDP d 220      26.797 -10.688  90.220  0.00  0.00     0.160 C 
ATOM    105  C3  BDP d 220      25.057  -9.274  88.985  0.00  0.00     0.092 C 
ATOM    106  O2  BDP d 220      25.404  -9.122  91.370  0.00  0.00    -0.388 OA
ATOM    107  O6B BDP d 220      27.849 -11.217  86.143  0.00  0.00    -0.646 OA
ATOM    108  C2  BDP d 220      26.060  -9.354  90.143  0.00  0.00     0.110 C 
ATOM    109  O3  BDP d 220      24.657  -7.928  88.794  0.00  0.00    -0.390 OA
ATOM    110  O1  BDP d 220      27.826 -10.593  91.194  0.00  0.00    -0.348 OA
ATOM    111  O6A BDP d 220      26.377 -12.867  86.328  0.00  0.00    -0.646 OA
ATOM    112  C4  BDP d 220      25.662  -9.812  87.687  0.00  0.00     0.103 C 
ATOM    113  H   BDP d 220      25.579 -11.818  88.368  0.00  0.00     0.104 H 
ATOM    114  H   BDP d 220      26.129 -11.475  90.503  0.00  0.00     0.133 H 
ATOM    115  H   BDP d 220      24.210  -9.878  89.236  0.00  0.00     0.091 H 
ATOM    116  H   BDP d 220      26.047  -9.174  92.094  0.00  0.00     0.210 HD
ATOM    117  H   BDP d 220      26.792  -8.597  89.952  0.00  0.00     0.094 H 
ATOM    118  H   BDP d 220      25.432  -7.390  88.567  0.00  0.00     0.210 HD
ATOM    119  H   BDP d 220      26.324  -9.073  87.286  0.00  0.00     0.092 H 
ATOM    120  OSC ASG d 219      31.980  -9.038  93.251  0.00  0.00    -0.572 OA
ATOM    121  C5  ASG d 219      30.040 -13.206  92.575  0.00  0.00     0.090 C 
ATOM    122  C3  ASG d 219      28.142 -11.808  91.792  0.00  0.00     0.094 C 
ATOM    123  C6  ASG d 219      31.580 -13.490  92.556  0.00  0.00     0.043 C 
ATOM    124  C7  ASG d 219      25.302 -10.878  94.083  0.00  0.00     0.214 C 
ATOM    125  C4  ASG d 219      29.654 -11.830  91.965  0.00  0.00     0.114 C 
ATOM    126  S   ASG d 219      31.458  -9.878  92.175  0.00  0.00     0.252 S 
ATOM    127  C8  ASG d 219      23.761 -10.837  94.133  0.00  0.00    -0.003 C 
ATOM    128  O7  ASG d 219      25.932 -10.240  94.850  0.00  0.00    -0.274 OA
ATOM    129  O6  ASG d 219      32.074 -14.626  93.250  0.00  0.00    -0.398 OA
ATOM    130  OSB ASG d 219      32.560 -10.734  91.739  0.00  0.00    -0.572 OA
ATOM    131  O1  ASG d 219      27.394 -13.279  95.241  0.00  0.00    -0.348 OA
ATOM    132  O4  ASG d 219      30.182 -10.770  92.744  0.00  0.00    -0.246 OA
ATOM    133  OSA ASG d 219      30.935  -9.071  91.069  0.00  0.00    -0.572 OA
ATOM    134  O5  ASG d 219      29.456 -13.229  93.933  0.00  0.00    -0.349 OA
ATOM    135  N   ASG d 219      25.994 -11.722  93.112  0.00  0.00    -0.349 N 
ATOM    136  C2  ASG d 219      27.459 -11.887  93.147  0.00  0.00     0.087 C 
ATOM    137  C1  ASG d 219      27.958 -13.149  93.943  0.00  0.00     0.154 C 
ATOM    138  H   ASG d 219      29.646 -14.003  91.979  0.00  0.00     0.090 H 
ATOM    139  H   ASG d 219      27.817 -12.637  91.199  0.00  0.00     0.091 H 
ATOM    140  H   ASG d 219      32.064 -12.631  92.972  0.00  0.00     0.078 H 
ATOM    141  H   ASG d 219      31.792 -13.702  91.529  0.00  0.00     0.078 H 
ATOM    142  H   ASG d 219      30.088 -11.687  90.998  0.00  0.00     0.093 H 
ATOM    143  H   ASG d 219      23.362 -11.472  93.370  0.00  0.00     0.040 H 
ATOM    144  H   ASG d 219      23.426  -9.834  93.974  0.00  0.00     0.040 H 
ATOM    145  H   ASG d 219      23.426 -11.178  95.090  0.00  0.00     0.040 H 
ATOM    146  H   ASG d 219      31.921 -14.515  94.202  0.00  0.00     0.209 HD
ATOM    147  H   ASG d 219      25.472 -12.189  92.420  0.00  0.00     0.163 HD
ATOM    148  H   ASG d 219      27.766 -11.024  93.701  0.00  0.00     0.084 H 
ATOM    149  H   ASG d 219      27.586 -14.005  93.421  0.00  0.00     0.132 H 
ENDROOT
TORSDOF 38
ENDMDL
MODEL 41
REMARK VINA RESULT:      -6.4      4.440      7.725
REMARK  0 active torsions:
REMARK  status: ('A' for Active; 'I' for Inactive)
REMARK       I    between atoms: C6_2  and  C5_55 
REMARK       I    between atoms: O4_3  and  C4_83 
REMARK       I    between atoms: O4_3  and  S_75 
REMARK       I    between atoms: C6_4  and  C5_67 
REMARK       I    between atoms: O4_5  and  C4_61 
REMARK       I    between atoms: O4_5  and  S_71 
REMARK       I    between atoms: O3_6  and  C3_32 
REMARK       I    between atoms: C1_8  and  O1_30 
REMARK       I    between atoms: C3_12  and  O3_62 
REMARK       I    between atoms: C5_13  and  C6_25 
REMARK       I    between atoms: O1_14  and  C4_39 
REMARK       I    between atoms: O1_14  and  C1_23 
REMARK       I    between atoms: C5_15  and  C6_27 
REMARK       I    between atoms: C5_18  and  C6_44 
REMARK       I    between atoms: C3_19  and  O1_82 
REMARK       I    between atoms: C2_20  and  N_89 
REMARK       I    between atoms: C2_21  and  O2_80 
REMARK       I    between atoms: C1_24  and  O1_45 
REMARK       I    between atoms: C6_25  and  O6_48 
REMARK       I    between atoms: C6_27  and  O6_77 
REMARK       I    between atoms: C7_28  and  C8_35 
REMARK       I    between atoms: C7_28  and  N_70 
REMARK       I    between atoms: O1_30  and  C3_43 
REMARK       I    between atoms: C4_33  and  O4_53 
REMARK       I    between atoms: S_34  and  O4_53 
REMARK       I    between atoms: O2_40  and  C2_87 
REMARK       I    between atoms: C7_41  and  C8_81 
REMARK       I    between atoms: C7_41  and  N_89 
REMARK       I    between atoms: O6_42  and  C6_88 
REMARK       I    between atoms: O1_45  and  C4_90 
REMARK       I    between atoms: C7_46  and  C8_69 
REMARK       I    between atoms: C7_46  and  N_85 
REMARK       I    between atoms: C2_47  and  N_85 
REMARK       I    between atoms: O1_50  and  C4_73 
REMARK       I    between atoms: O1_50  and  C1_76 
REMARK       I    between atoms: C1_52  and  O1_82 
REMARK       I    between atoms: C3_54  and  O3_72 
REMARK       I    between atoms: C5_57  and  C6_88 
REMARK       I    between atoms: O1_59  and  C1_78 
REMARK       I    between atoms: O2_63  and  C2_68 
REMARK       I    between atoms: N_70  and  C2_74 
ROOT
ATOM      1  O6B BDP d 216      21.497 -11.076  99.888  0.00  0.00    -0.646 OA
ATOM      2  C6  BDP d 216      21.698  -9.855 100.065  0.00  0.00     0.206 C 
ATOM      3  C3  BDP d 216      23.139  -9.828 103.656  0.00  0.00     0.092 C 
ATOM      4  O6A BDP d 216      21.715  -9.013  99.143  0.00  0.00    -0.646 OA
ATOM      5  O5  BDP d 216      20.713  -9.437 102.208  0.00  0.00    -0.340 OA
ATOM      6  C4  BDP d 216      23.017 -10.193 102.178  0.00  0.00     0.103 C 
ATOM      7  O2  BDP d 216      21.878  -9.258 105.625  0.00  0.00    -0.388 OA
ATOM      8  C5  BDP d 216      21.931  -9.362 101.491  0.00  0.00     0.152 C 
ATOM      9  O1  BDP d 216      19.557  -8.845 104.135  0.00  0.00    -0.368 OA
ATOM     10  O3  BDP d 216      23.951 -10.777 104.315  0.00  0.00    -0.390 OA
ATOM     11  C1  BDP d 216      20.823  -8.897 103.508  0.00  0.00     0.156 C 
ATOM     12  C2  BDP d 216      21.765  -9.776 104.320  0.00  0.00     0.110 C 
ATOM     13  H   BDP d 216      23.586  -8.859 103.730  0.00  0.00     0.091 H 
ATOM     14  H   BDP d 216      22.725 -11.217 102.075  0.00  0.00     0.092 H 
ATOM     15  H   BDP d 216      22.478  -9.817 106.144  0.00  0.00     0.210 HD
ATOM     16  H   BDP d 216      22.266  -8.347 101.466  0.00  0.00     0.104 H 
ATOM     17  H   BDP d 216      18.961  -8.284 103.614  0.00  0.00     0.212 HD
ATOM     18  H   BDP d 216      23.544 -11.655 104.246  0.00  0.00     0.210 HD
ATOM     19  H   BDP d 216      21.207  -7.900 103.447  0.00  0.00     0.133 H 
ATOM     20  H   BDP d 216      21.370 -10.770 104.365  0.00  0.00     0.094 H 
ATOM     21  O4  ASG d 217      27.974 -12.477 101.281  0.00  0.00    -0.246 OA
ATOM     22  O7  ASG d 217      26.935  -8.346  99.738  0.00  0.00    -0.274 OA
ATOM     23  O1  ASG d 217      24.253  -9.996 101.588  0.00  0.00    -0.348 OA
ATOM     24  C5  ASG d 217      25.734 -13.455 101.499  0.00  0.00     0.090 C 
ATOM     25  C1  ASG d 217      24.800 -11.188 101.049  0.00  0.00     0.154 C 
ATOM     26  C6  ASG d 217      26.006 -14.561 102.583  0.00  0.00     0.043 C 
ATOM     27  OSA ASG d 217      29.706 -13.872 100.050  0.00  0.00    -0.572 OA
ATOM     28  C3  ASG d 217      26.406 -12.276  99.411  0.00  0.00     0.094 C 
ATOM     29  C7  ASG d 217      26.062  -8.602  98.984  0.00  0.00     0.214 C 
ATOM     30  C2  ASG d 217      25.888 -10.950  99.953  0.00  0.00     0.087 C 
ATOM     31  O5  ASG d 217      25.276 -12.171 102.074  0.00  0.00    -0.349 OA
ATOM     32  OSB ASG d 217      29.629 -13.984 102.449  0.00  0.00    -0.572 OA
ATOM     33  OSC ASG d 217      30.440 -12.016 101.335  0.00  0.00    -0.572 OA
ATOM     34  C8  ASG d 217      25.679  -7.586  97.894  0.00  0.00    -0.003 C 
ATOM     35  S   ASG d 217      29.488 -13.118 101.284  0.00  0.00     0.252 S 
ATOM     36  O6  ASG d 217      24.928 -15.405 102.965  0.00  0.00    -0.398 OA
ATOM     37  C4  ASG d 217      26.937 -13.125 100.563  0.00  0.00     0.114 C 
ATOM     38  N   ASG d 217      25.496  -9.947  98.950  0.00  0.00    -0.349 N 
ATOM     39  H   ASG d 217      24.962 -13.913 100.917  0.00  0.00     0.090 H 
ATOM     40  H   ASG d 217      23.959 -11.639 100.563  0.00  0.00     0.132 H 
ATOM     41  H   ASG d 217      26.347 -14.063 103.466  0.00  0.00     0.078 H 
ATOM     42  H   ASG d 217      26.708 -15.222 102.118  0.00  0.00     0.078 H 
ATOM     43  H   ASG d 217      25.617 -12.731  98.849  0.00  0.00     0.091 H 
ATOM     44  H   ASG d 217      26.737 -10.486 100.410  0.00  0.00     0.084 H 
ATOM     45  H   ASG d 217      26.183  -6.660  98.076  0.00  0.00     0.040 H 
ATOM     46  H   ASG d 217      24.621  -7.425  97.913  0.00  0.00     0.040 H 
ATOM     47  H   ASG d 217      25.965  -7.966  96.935  0.00  0.00     0.040 H 
ATOM     48  H   ASG d 217      24.241 -14.875 103.398  0.00  0.00     0.209 HD
ATOM     49  H   ASG d 217      27.372 -14.022 100.171  0.00  0.00     0.093 H 
ATOM     50  H   ASG d 217      24.845 -10.184  98.250  0.00  0.00     0.163 HD
ATOM     51  C6  BDP d 218      26.828 -15.045  95.110  0.00  0.00     0.206 C 
ATOM     52  O3  BDP d 218      29.647 -11.069  94.503  0.00  0.00    -0.390 OA
ATOM     53  C1  BDP d 218      27.432 -12.118  97.303  0.00  0.00     0.160 C 
ATOM     54  C2  BDP d 218      28.646 -11.503  96.614  0.00  0.00     0.110 C 
ATOM     55  O6A BDP d 218      25.705 -15.341  94.642  0.00  0.00    -0.646 OA
ATOM     56  O1  BDP d 218      27.582 -12.031  98.708  0.00  0.00    -0.348 OA
ATOM     57  C3  BDP d 218      28.486 -11.583  95.107  0.00  0.00     0.092 C 
ATOM     58  O5  BDP d 218      27.339 -13.467  96.888  0.00  0.00    -0.340 OA
ATOM     59  C5  BDP d 218      27.087 -13.590  95.497  0.00  0.00     0.152 C 
ATOM     60  C4  BDP d 218      28.261 -13.034  94.696  0.00  0.00     0.103 C 
ATOM     61  O2  BDP d 218      28.812 -10.155  96.994  0.00  0.00    -0.388 OA
ATOM     62  O6B BDP d 218      27.755 -15.871  95.260  0.00  0.00    -0.646 OA
ATOM     63  H   BDP d 218      29.772 -10.147  94.776  0.00  0.00     0.210 HD
ATOM     64  H   BDP d 218      26.537 -11.595  97.039  0.00  0.00     0.133 H 
ATOM     65  H   BDP d 218      29.512 -12.055  96.914  0.00  0.00     0.094 H 
ATOM     66  H   BDP d 218      27.641 -11.008  94.790  0.00  0.00     0.091 H 
ATOM     67  H   BDP d 218      26.210 -13.023  95.268  0.00  0.00     0.104 H 
ATOM     68  H   BDP d 218      29.195 -13.547  94.796  0.00  0.00     0.092 H 
ATOM     69  H   BDP d 218      28.032  -9.644  96.726  0.00  0.00     0.210 HD
ATOM     70  O4  ASG d 221      22.969 -23.223  86.371  0.00  0.00    -0.249 OA
ATOM     71  OSB ASG d 221      20.927 -23.941  87.717  0.00  0.00    -0.572 OA
ATOM     72  OSC ASG d 221      20.629 -23.502  85.388  0.00  0.00    -0.572 OA
ATOM     73  C2  ASG d 221      25.561 -22.234  86.412  0.00  0.00     0.062 C 
ATOM     74  C1  ASG d 221      25.122 -20.730  86.388  0.00  0.00     0.151 C 
ATOM     75  C3  ASG d 221      25.065 -22.971  85.186  0.00  0.00    -0.014 C 
ATOM     76  O7  ASG d 221      27.024 -24.702  86.175  0.00  0.00    -0.274 OA
ATOM     77  C7  ASG d 221      27.653 -23.713  86.334  0.00  0.00     0.214 C 
ATOM     78  O6  ASG d 221      21.637 -19.681  83.846  0.00  0.00    -0.398 OA
ATOM     79  O1  ASG d 221      25.375 -20.032  87.604  0.00  0.00    -0.348 OA
ATOM     80  C5  ASG d 221      23.356 -21.386  84.709  0.00  0.00     0.088 C 
ATOM     81  C4  ASG d 221      23.561 -22.866  85.132  0.00  0.00     0.089 C 
ATOM     82  OSA ASG d 221      20.995 -21.707  86.922  0.00  0.00    -0.572 OA
ATOM     83  S   ASG d 221      21.336 -23.092  86.601  0.00  0.00     0.252 S 
ATOM     84  O5  ASG d 221      23.721 -20.553  85.875  0.00  0.00    -0.349 OA
ATOM     85  C8  ASG d 221      29.188 -23.799  86.410  0.00  0.00    -0.003 C 
ATOM     86  C6  ASG d 221      21.996 -21.047  83.996  0.00  0.00     0.043 C 
ATOM     87  N   ASG d 221      26.994 -22.453  86.678  0.00  0.00    -0.352 N 
ATOM     88  H   ASG d 221      25.081 -22.665  87.265  0.00  0.00     0.080 H 
ATOM     89  H   ASG d 221      25.762 -20.254  85.676  0.00  0.00     0.132 H 
ATOM     90  H   ASG d 221      25.351 -24.000  85.244  0.00  0.00     0.040 H 
ATOM     91  H   ASG d 221      25.491 -22.538  84.304  0.00  0.00     0.040 H 
ATOM     92  H   ASG d 221      20.782 -19.619  83.393  0.00  0.00     0.209 HD
ATOM     93  H   ASG d 221      24.009 -21.154  83.893  0.00  0.00     0.090 H 
ATOM     94  H   ASG d 221      23.083 -23.540  84.454  0.00  0.00     0.089 H 
ATOM     95  H   ASG d 221      29.503 -24.782  86.129  0.00  0.00     0.040 H 
ATOM     96  H   ASG d 221      29.507 -23.594  87.411  0.00  0.00     0.040 H 
ATOM     97  H   ASG d 221      29.619 -23.081  85.745  0.00  0.00     0.040 H 
ATOM     98  H   ASG d 221      22.038 -21.472  83.015  0.00  0.00     0.078 H 
ATOM     99  H   ASG d 221      21.249 -21.447  84.648  0.00  0.00     0.078 H 
ATOM    100  H   ASG d 221      27.521 -21.734  87.097  0.00  0.00     0.163 HD
ATOM    101  O5  BDP d 220      27.720 -17.528  88.453  0.00  0.00    -0.340 OA
ATOM    102  C5  BDP d 220      27.090 -18.794  88.437  0.00  0.00     0.152 C 
ATOM    103  C6  BDP d 220      28.109 -19.891  88.140  0.00  0.00     0.206 C 
ATOM    104  C1  BDP d 220      26.885 -16.548  89.031  0.00  0.00     0.160 C 
ATOM    105  C3  BDP d 220      24.949 -17.709  87.825  0.00  0.00     0.092 C 
ATOM    106  O2  BDP d 220      24.750 -15.502  88.785  0.00  0.00    -0.388 OA
ATOM    107  O6B BDP d 220      28.782 -19.807  87.085  0.00  0.00    -0.646 OA
ATOM    108  C2  BDP d 220      25.649 -16.384  88.150  0.00  0.00     0.110 C 
ATOM    109  O3  BDP d 220      24.022 -17.510  86.772  0.00  0.00    -0.390 OA
ATOM    110  O1  BDP d 220      27.563 -15.302  89.115  0.00  0.00    -0.348 OA
ATOM    111  O6A BDP d 220      28.217 -20.825  88.973  0.00  0.00    -0.646 OA
ATOM    112  C4  BDP d 220      25.956 -18.786  87.417  0.00  0.00     0.103 C 
ATOM    113  H   BDP d 220      26.674 -18.999  89.401  0.00  0.00     0.104 H 
ATOM    114  H   BDP d 220      26.610 -16.856  90.018  0.00  0.00     0.133 H 
ATOM    115  H   BDP d 220      24.440 -18.041  88.706  0.00  0.00     0.091 H 
ATOM    116  H   BDP d 220      25.203 -14.668  88.986  0.00  0.00     0.210 HD
ATOM    117  H   BDP d 220      25.978 -15.985  87.212  0.00  0.00     0.094 H 
ATOM    118  H   BDP d 220      24.493 -17.210  85.979  0.00  0.00     0.210 HD
ATOM    119  H   BDP d 220      26.269 -18.598  86.412  0.00  0.00     0.092 H 
ATOM    120  OSC ASG d 219      30.102 -11.420  87.573  0.00  0.00    -0.572 OA
ATOM    121  C5  ASG d 219      30.432 -14.295  91.208  0.00  0.00     0.090 C 
ATOM    122  C3  ASG d 219      28.283 -15.138  90.292  0.00  0.00     0.094 C 
ATOM    123  C6  ASG d 219      31.908 -13.843  90.939  0.00  0.00     0.043 C 
ATOM    124  C7  ASG d 219      24.969 -13.907  91.589  0.00  0.00     0.214 C 
ATOM    125  C4  ASG d 219      29.579 -14.435  89.918  0.00  0.00     0.114 C 
ATOM    126  S   ASG d 219      30.225 -12.844  87.877  0.00  0.00     0.252 S 
ATOM    127  C8  ASG d 219      23.598 -14.426  92.070  0.00  0.00    -0.003 C 
ATOM    128  O7  ASG d 219      25.089 -12.781  91.259  0.00  0.00    -0.274 OA
ATOM    129  O6  ASG d 219      32.730 -13.500  92.046  0.00  0.00    -0.398 OA
ATOM    130  OSB ASG d 219      31.654 -13.125  88.000  0.00  0.00    -0.572 OA
ATOM    131  O1  ASG d 219      27.676 -13.054  93.440  0.00  0.00    -0.348 OA
ATOM    132  O4  ASG d 219      29.416 -13.176  89.286  0.00  0.00    -0.246 OA
ATOM    133  OSA ASG d 219      29.601 -13.670  86.840  0.00  0.00    -0.572 OA
ATOM    134  O5  ASG d 219      29.688 -13.372  92.092  0.00  0.00    -0.349 OA
ATOM    135  N   ASG d 219      26.132 -14.791  91.564  0.00  0.00    -0.349 N 
ATOM    136  C2  ASG d 219      27.478 -14.275  91.250  0.00  0.00     0.087 C 
ATOM    137  C1  ASG d 219      28.344 -13.893  92.507  0.00  0.00     0.154 C 
ATOM    138  H   ASG d 219      30.560 -15.248  91.678  0.00  0.00     0.090 H 
ATOM    139  H   ASG d 219      28.485 -16.075  90.767  0.00  0.00     0.091 H 
ATOM    140  H   ASG d 219      31.863 -12.984  90.303  0.00  0.00     0.078 H 
ATOM    141  H   ASG d 219      32.375 -14.714  90.530  0.00  0.00     0.078 H 
ATOM    142  H   ASG d 219      30.068 -15.037  89.181  0.00  0.00     0.093 H 
ATOM    143  H   ASG d 219      23.678 -15.461  92.327  0.00  0.00     0.040 H 
ATOM    144  H   ASG d 219      22.878 -14.305  91.289  0.00  0.00     0.040 H 
ATOM    145  H   ASG d 219      23.288 -13.869  92.930  0.00  0.00     0.040 H 
ATOM    146  H   ASG d 219      32.373 -12.709  92.481  0.00  0.00     0.209 HD
ATOM    147  H   ASG d 219      26.016 -15.748  91.760  0.00  0.00     0.163 HD
ATOM    148  H   ASG d 219      27.252 -13.365  90.735  0.00  0.00     0.084 H 
ATOM    149  H   ASG d 219      28.504 -14.798  93.054  0.00  0.00     0.132 H 
ENDROOT
TORSDOF 38
ENDMDL
MODEL 42
REMARK VINA RESULT:      -6.4      5.888     15.500
REMARK  0 active torsions:
REMARK  status: ('A' for Active; 'I' for Inactive)
REMARK       I    between atoms: C6_2  and  C5_55 
REMARK       I    between atoms: O4_3  and  C4_83 
REMARK       I    between atoms: O4_3  and  S_75 
REMARK       I    between atoms: C6_4  and  C5_67 
REMARK       I    between atoms: O4_5  and  C4_61 
REMARK       I    between atoms: O4_5  and  S_71 
REMARK       I    between atoms: O3_6  and  C3_32 
REMARK       I    between atoms: C1_8  and  O1_30 
REMARK       I    between atoms: C3_12  and  O3_62 
REMARK       I    between atoms: C5_13  and  C6_25 
REMARK       I    between atoms: O1_14  and  C4_39 
REMARK       I    between atoms: O1_14  and  C1_23 
REMARK       I    between atoms: C5_15  and  C6_27 
REMARK       I    between atoms: C5_18  and  C6_44 
REMARK       I    between atoms: C3_19  and  O1_82 
REMARK       I    between atoms: C2_20  and  N_89 
REMARK       I    between atoms: C2_21  and  O2_80 
REMARK       I    between atoms: C1_24  and  O1_45 
REMARK       I    between atoms: C6_25  and  O6_48 
REMARK       I    between atoms: C6_27  and  O6_77 
REMARK       I    between atoms: C7_28  and  C8_35 
REMARK       I    between atoms: C7_28  and  N_70 
REMARK       I    between atoms: O1_30  and  C3_43 
REMARK       I    between atoms: C4_33  and  O4_53 
REMARK       I    between atoms: S_34  and  O4_53 
REMARK       I    between atoms: O2_40  and  C2_87 
REMARK       I    between atoms: C7_41  and  C8_81 
REMARK       I    between atoms: C7_41  and  N_89 
REMARK       I    between atoms: O6_42  and  C6_88 
REMARK       I    between atoms: O1_45  and  C4_90 
REMARK       I    between atoms: C7_46  and  C8_69 
REMARK       I    between atoms: C7_46  and  N_85 
REMARK       I    between atoms: C2_47  and  N_85 
REMARK       I    between atoms: O1_50  and  C4_73 
REMARK       I    between atoms: O1_50  and  C1_76 
REMARK       I    between atoms: C1_52  and  O1_82 
REMARK       I    between atoms: C3_54  and  O3_72 
REMARK       I    between atoms: C5_57  and  C6_88 
REMARK       I    between atoms: O1_59  and  C1_78 
REMARK       I    between atoms: O2_63  and  C2_68 
REMARK       I    between atoms: N_70  and  C2_74 
ROOT
ATOM      1  O6B BDP d 216      21.096 -14.910  82.402  0.00  0.00    -0.646 OA
ATOM      2  C6  BDP d 216      21.792 -14.744  81.378  0.00  0.00     0.206 C 
ATOM      3  C3  BDP d 216      20.020 -11.728  79.725  0.00  0.00     0.092 C 
ATOM      4  O6A BDP d 216      22.924 -15.249  81.218  0.00  0.00    -0.646 OA
ATOM      5  O5  BDP d 216      20.170 -14.575  79.625  0.00  0.00    -0.340 OA
ATOM      6  C4  BDP d 216      20.744 -12.534  80.801  0.00  0.00     0.103 C 
ATOM      7  O2  BDP d 216      18.484 -11.895  77.879  0.00  0.00    -0.388 OA
ATOM      8  C5  BDP d 216      21.228 -13.878  80.255  0.00  0.00     0.152 C 
ATOM      9  O1  BDP d 216      18.721 -14.673  77.810  0.00  0.00    -0.368 OA
ATOM     10  O3  BDP d 216      19.364 -10.625  80.316  0.00  0.00    -0.390 OA
ATOM     11  C1  BDP d 216      19.665 -13.881  78.504  0.00  0.00     0.156 C 
ATOM     12  C2  BDP d 216      19.004 -12.596  78.986  0.00  0.00     0.110 C 
ATOM     13  H   BDP d 216      20.744 -11.379  79.018  0.00  0.00     0.091 H 
ATOM     14  H   BDP d 216      20.074 -12.758  81.605  0.00  0.00     0.092 H 
ATOM     15  H   BDP d 216      18.063 -11.076  78.185  0.00  0.00     0.210 HD
ATOM     16  H   BDP d 216      21.997 -13.679  79.538  0.00  0.00     0.104 H 
ATOM     17  H   BDP d 216      19.147 -15.490  77.505  0.00  0.00     0.212 HD
ATOM     18  H   BDP d 216      18.709 -10.944  80.956  0.00  0.00     0.210 HD
ATOM     19  H   BDP d 216      20.469 -13.656  77.833  0.00  0.00     0.133 H 
ATOM     20  H   BDP d 216      18.208 -12.839  79.658  0.00  0.00     0.094 H 
ATOM     21  O4  ASG d 217      22.148  -8.501  84.317  0.00  0.00    -0.246 OA
ATOM     22  O7  ASG d 217      25.199 -10.483  81.619  0.00  0.00    -0.274 OA
ATOM     23  O1  ASG d 217      21.798 -11.768  81.268  0.00  0.00    -0.348 OA
ATOM     24  C5  ASG d 217      20.440 -10.259  84.437  0.00  0.00     0.090 C 
ATOM     25  C1  ASG d 217      21.688 -11.467  82.650  0.00  0.00     0.154 C 
ATOM     26  C6  ASG d 217      19.168  -9.403  84.789  0.00  0.00     0.043 C 
ATOM     27  OSA ASG d 217      22.900  -7.498  86.529  0.00  0.00    -0.572 OA
ATOM     28  C3  ASG d 217      22.843 -10.797  84.810  0.00  0.00     0.094 C 
ATOM     29  C7  ASG d 217      25.173 -11.591  82.027  0.00  0.00     0.214 C 
ATOM     30  C2  ASG d 217      23.043 -11.083  83.327  0.00  0.00     0.087 C 
ATOM     31  O5  ASG d 217      20.619 -10.473  82.985  0.00  0.00    -0.349 OA
ATOM     32  OSB ASG d 217      21.184  -6.374  85.277  0.00  0.00    -0.572 OA
ATOM     33  OSC ASG d 217      23.463  -6.373  84.516  0.00  0.00    -0.572 OA
ATOM     34  C8  ASG d 217      26.346 -12.541  81.724  0.00  0.00    -0.003 C 
ATOM     35  S   ASG d 217      22.424  -7.137  85.194  0.00  0.00     0.252 S 
ATOM     36  O6  ASG d 217      17.938 -10.084  84.991  0.00  0.00    -0.398 OA
ATOM     37  C4  ASG d 217      21.792  -9.703  84.980  0.00  0.00     0.114 C 
ATOM     38  N   ASG d 217      24.146 -11.995  82.983  0.00  0.00    -0.349 N 
ATOM     39  H   ASG d 217      20.221 -11.180  84.937  0.00  0.00     0.090 H 
ATOM     40  H   ASG d 217      21.379 -12.400  83.074  0.00  0.00     0.132 H 
ATOM     41  H   ASG d 217      19.020  -8.711  83.986  0.00  0.00     0.078 H 
ATOM     42  H   ASG d 217      19.393  -8.972  85.742  0.00  0.00     0.078 H 
ATOM     43  H   ASG d 217      22.605 -11.723  85.291  0.00  0.00     0.091 H 
ATOM     44  H   ASG d 217      23.383 -10.158  82.909  0.00  0.00     0.084 H 
ATOM     45  H   ASG d 217      26.996 -12.086  81.007  0.00  0.00     0.040 H 
ATOM     46  H   ASG d 217      25.968 -13.460  81.330  0.00  0.00     0.040 H 
ATOM     47  H   ASG d 217      26.890 -12.735  82.626  0.00  0.00     0.040 H 
ATOM     48  H   ASG d 217      17.662 -10.507  84.163  0.00  0.00     0.209 HD
ATOM     49  H   ASG d 217      21.711  -9.450  86.018  0.00  0.00     0.093 H 
ATOM     50  H   ASG d 217      24.192 -12.885  83.402  0.00  0.00     0.163 HD
ATOM     51  C6  BDP d 218      24.270 -12.335  89.493  0.00  0.00     0.206 C 
ATOM     52  O3  BDP d 218      28.282 -10.500  87.334  0.00  0.00    -0.390 OA
ATOM     53  C1  BDP d 218      24.803 -10.959  86.093  0.00  0.00     0.160 C 
ATOM     54  C2  BDP d 218      26.165 -10.294  86.275  0.00  0.00     0.110 C 
ATOM     55  O6A BDP d 218      23.919 -13.515  89.716  0.00  0.00    -0.646 OA
ATOM     56  O1  BDP d 218      23.976 -10.143  85.286  0.00  0.00    -0.348 OA
ATOM     57  C3  BDP d 218      27.062 -11.169  87.131  0.00  0.00     0.092 C 
ATOM     58  O5  BDP d 218      24.238 -11.139  87.377  0.00  0.00    -0.340 OA
ATOM     59  C5  BDP d 218      24.991 -12.033  88.181  0.00  0.00     0.152 C 
ATOM     60  C4  BDP d 218      26.374 -11.453  88.462  0.00  0.00     0.103 C 
ATOM     61  O2  BDP d 218      26.786 -10.067  85.029  0.00  0.00    -0.388 OA
ATOM     62  O6B BDP d 218      24.080 -11.393  90.295  0.00  0.00    -0.646 OA
ATOM     63  H   BDP d 218      28.703 -10.329  86.477  0.00  0.00     0.210 HD
ATOM     64  H   BDP d 218      24.903 -11.906  85.604  0.00  0.00     0.133 H 
ATOM     65  H   BDP d 218      26.011  -9.353  86.760  0.00  0.00     0.094 H 
ATOM     66  H   BDP d 218      27.250 -12.102  86.642  0.00  0.00     0.091 H 
ATOM     67  H   BDP d 218      25.100 -12.950  87.642  0.00  0.00     0.104 H 
ATOM     68  H   BDP d 218      26.408 -10.555  89.042  0.00  0.00     0.092 H 
ATOM     69  H   BDP d 218      26.931 -10.916  84.581  0.00  0.00     0.210 HD
ATOM     70  O4  ASG d 221      23.589 -19.348  99.909  0.00  0.00    -0.249 OA
ATOM     71  OSB ASG d 221      21.363 -20.398  99.247  0.00  0.00    -0.572 OA
ATOM     72  OSC ASG d 221      23.063 -21.839 100.109  0.00  0.00    -0.572 OA
ATOM     73  C2  ASG d 221      25.283 -17.158  99.724  0.00  0.00     0.062 C 
ATOM     74  C1  ASG d 221      26.005 -17.668  98.429  0.00  0.00     0.151 C 
ATOM     75  C3  ASG d 221      25.452 -18.135 100.868  0.00  0.00    -0.014 C 
ATOM     76  O7  ASG d 221      24.608 -15.815 102.178  0.00  0.00    -0.274 OA
ATOM     77  C7  ASG d 221      25.366 -15.268 101.453  0.00  0.00     0.214 C 
ATOM     78  O6  ASG d 221      26.822 -22.022  98.151  0.00  0.00    -0.398 OA
ATOM     79  O1  ASG d 221      25.714 -16.904  97.263  0.00  0.00    -0.348 OA
ATOM     80  C5  ASG d 221      25.973 -19.974  99.453  0.00  0.00     0.088 C 
ATOM     81  C4  ASG d 221      24.895 -19.473 100.450  0.00  0.00     0.089 C 
ATOM     82  OSA ASG d 221      23.261 -20.905  97.918  0.00  0.00    -0.572 OA
ATOM     83  S   ASG d 221      22.800 -20.661  99.283  0.00  0.00     0.252 S 
ATOM     84  O5  ASG d 221      25.845 -19.149  98.232  0.00  0.00    -0.349 OA
ATOM     85  C8  ASG d 221      25.932 -13.894 101.850  0.00  0.00    -0.003 C 
ATOM     86  C6  ASG d 221      26.063 -21.531  99.246  0.00  0.00     0.043 C 
ATOM     87  N   ASG d 221      25.599 -15.768 100.098  0.00  0.00    -0.352 N 
ATOM     88  H   ASG d 221      24.242 -17.121  99.481  0.00  0.00     0.080 H 
ATOM     89  H   ASG d 221      27.048 -17.501  98.597  0.00  0.00     0.132 H 
ATOM     90  H   ASG d 221      24.924 -17.778 101.727  0.00  0.00     0.040 H 
ATOM     91  H   ASG d 221      26.490 -18.234 101.111  0.00  0.00     0.040 H 
ATOM     92  H   ASG d 221      26.790 -22.991  98.145  0.00  0.00     0.209 HD
ATOM     93  H   ASG d 221      26.946 -19.828  99.875  0.00  0.00     0.090 H 
ATOM     94  H   ASG d 221      24.740 -20.169 101.247  0.00  0.00     0.089 H 
ATOM     95  H   ASG d 221      25.673 -13.682 102.866  0.00  0.00     0.040 H 
ATOM     96  H   ASG d 221      25.520 -13.140 101.213  0.00  0.00     0.040 H 
ATOM     97  H   ASG d 221      26.997 -13.904 101.748  0.00  0.00     0.040 H 
ATOM     98  H   ASG d 221      26.488 -21.945 100.137  0.00  0.00     0.078 H 
ATOM     99  H   ASG d 221      25.058 -21.826  99.026  0.00  0.00     0.078 H 
ATOM    100  H   ASG d 221      25.975 -15.161  99.420  0.00  0.00     0.163 HD
ATOM    101  O5  BDP d 220      27.659 -14.649  95.362  0.00  0.00    -0.340 OA
ATOM    102  C5  BDP d 220      26.640 -15.103  96.229  0.00  0.00     0.152 C 
ATOM    103  C6  BDP d 220      26.629 -14.281  97.515  0.00  0.00     0.206 C 
ATOM    104  C1  BDP d 220      27.491 -15.163  94.059  0.00  0.00     0.160 C 
ATOM    105  C3  BDP d 220      26.765 -17.345  95.183  0.00  0.00     0.092 C 
ATOM    106  O2  BDP d 220      27.349 -17.217  92.843  0.00  0.00    -0.388 OA
ATOM    107  O6B BDP d 220      27.684 -14.225  98.193  0.00  0.00    -0.646 OA
ATOM    108  C2  BDP d 220      27.643 -16.681  94.115  0.00  0.00     0.110 C 
ATOM    109  O3  BDP d 220      27.188 -18.683  95.381  0.00  0.00    -0.390 OA
ATOM    110  O1  BDP d 220      28.474 -14.632  93.181  0.00  0.00    -0.348 OA
ATOM    111  O6A BDP d 220      25.559 -13.705  97.828  0.00  0.00    -0.646 OA
ATOM    112  C4  BDP d 220      26.836 -16.589  96.511  0.00  0.00     0.103 C 
ATOM    113  H   BDP d 220      25.687 -14.973  95.761  0.00  0.00     0.104 H 
ATOM    114  H   BDP d 220      26.523 -14.892  93.694  0.00  0.00     0.133 H 
ATOM    115  H   BDP d 220      25.752 -17.327  94.840  0.00  0.00     0.091 H 
ATOM    116  H   BDP d 220      27.909 -16.790  92.176  0.00  0.00     0.210 HD
ATOM    117  H   BDP d 220      28.655 -16.890  94.393  0.00  0.00     0.094 H 
ATOM    118  H   BDP d 220      28.107 -18.689  95.692  0.00  0.00     0.210 HD
ATOM    119  H   BDP d 220      27.762 -16.828  96.991  0.00  0.00     0.092 H 
ATOM    120  OSC ASG d 219      32.938 -13.493  91.545  0.00  0.00    -0.572 OA
ATOM    121  C5  ASG d 219      28.917 -11.192  91.916  0.00  0.00     0.090 C 
ATOM    122  C3  ASG d 219      28.094 -13.440  92.576  0.00  0.00     0.094 C 
ATOM    123  C6  ASG d 219      30.012 -10.081  92.060  0.00  0.00     0.043 C 
ATOM    124  C7  ASG d 219      26.508 -15.769  90.077  0.00  0.00     0.214 C 
ATOM    125  C4  ASG d 219      29.331 -12.556  92.533  0.00  0.00     0.114 C 
ATOM    126  S   ASG d 219      31.936 -13.126  92.544  0.00  0.00     0.252 S 
ATOM    127  C8  ASG d 219      25.277 -16.680  89.894  0.00  0.00    -0.003 C 
ATOM    128  O7  ASG d 219      27.455 -15.915  89.388  0.00  0.00    -0.274 OA
ATOM    129  O6  ASG d 219      29.831  -8.849  91.375  0.00  0.00    -0.398 OA
ATOM    130  OSB ASG d 219      32.309 -11.804  93.046  0.00  0.00    -0.572 OA
ATOM    131  O1  ASG d 219      26.953 -12.578  89.029  0.00  0.00    -0.348 OA
ATOM    132  O4  ASG d 219      30.437 -13.106  91.837  0.00  0.00    -0.246 OA
ATOM    133  OSA ASG d 219      31.869 -14.113  93.625  0.00  0.00    -0.572 OA
ATOM    134  O5  ASG d 219      28.549 -11.473  90.512  0.00  0.00    -0.349 OA
ATOM    135  N   ASG d 219      26.506 -14.705  91.077  0.00  0.00    -0.349 N 
ATOM    136  C2  ASG d 219      27.612 -13.733  91.164  0.00  0.00     0.087 C 
ATOM    137  C1  ASG d 219      27.372 -12.393  90.375  0.00  0.00     0.154 C 
ATOM    138  H   ASG d 219      28.088 -10.776  92.449  0.00  0.00     0.090 H 
ATOM    139  H   ASG d 219      27.303 -12.958  93.111  0.00  0.00     0.091 H 
ATOM    140  H   ASG d 219      30.934 -10.500  91.715  0.00  0.00     0.078 H 
ATOM    141  H   ASG d 219      29.972  -9.810  93.094  0.00  0.00     0.078 H 
ATOM    142  H   ASG d 219      29.680 -12.449  93.539  0.00  0.00     0.093 H 
ATOM    143  H   ASG d 219      24.521 -16.403  90.599  0.00  0.00     0.040 H 
ATOM    144  H   ASG d 219      25.561 -17.699  90.055  0.00  0.00     0.040 H 
ATOM    145  H   ASG d 219      24.895 -16.569  88.901  0.00  0.00     0.040 H 
ATOM    146  H   ASG d 219      29.854  -9.006  90.417  0.00  0.00     0.209 HD
ATOM    147  H   ASG d 219      25.751 -14.634  91.706  0.00  0.00     0.163 HD
ATOM    148  H   ASG d 219      28.403 -14.253  90.666  0.00  0.00     0.084 H 
ATOM    149  H   ASG d 219      26.533 -11.914  90.835  0.00  0.00     0.132 H 
ENDROOT
TORSDOF 38
ENDMDL
MODEL 43
REMARK VINA RESULT:      -6.4      5.136      7.535
REMARK  0 active torsions:
REMARK  status: ('A' for Active; 'I' for Inactive)
REMARK       I    between atoms: C6_2  and  C5_55 
REMARK       I    between atoms: O4_3  and  C4_83 
REMARK       I    between atoms: O4_3  and  S_75 
REMARK       I    between atoms: C6_4  and  C5_67 
REMARK       I    between atoms: O4_5  and  C4_61 
REMARK       I    between atoms: O4_5  and  S_71 
REMARK       I    between atoms: O3_6  and  C3_32 
REMARK       I    between atoms: C1_8  and  O1_30 
REMARK       I    between atoms: C3_12  and  O3_62 
REMARK       I    between atoms: C5_13  and  C6_25 
REMARK       I    between atoms: O1_14  and  C4_39 
REMARK       I    between atoms: O1_14  and  C1_23 
REMARK       I    between atoms: C5_15  and  C6_27 
REMARK       I    between atoms: C5_18  and  C6_44 
REMARK       I    between atoms: C3_19  and  O1_82 
REMARK       I    between atoms: C2_20  and  N_89 
REMARK       I    between atoms: C2_21  and  O2_80 
REMARK       I    between atoms: C1_24  and  O1_45 
REMARK       I    between atoms: C6_25  and  O6_48 
REMARK       I    between atoms: C6_27  and  O6_77 
REMARK       I    between atoms: C7_28  and  C8_35 
REMARK       I    between atoms: C7_28  and  N_70 
REMARK       I    between atoms: O1_30  and  C3_43 
REMARK       I    between atoms: C4_33  and  O4_53 
REMARK       I    between atoms: S_34  and  O4_53 
REMARK       I    between atoms: O2_40  and  C2_87 
REMARK       I    between atoms: C7_41  and  C8_81 
REMARK       I    between atoms: C7_41  and  N_89 
REMARK       I    between atoms: O6_42  and  C6_88 
REMARK       I    between atoms: O1_45  and  C4_90 
REMARK       I    between atoms: C7_46  and  C8_69 
REMARK       I    between atoms: C7_46  and  N_85 
REMARK       I    between atoms: C2_47  and  N_85 
REMARK       I    between atoms: O1_50  and  C4_73 
REMARK       I    between atoms: O1_50  and  C1_76 
REMARK       I    between atoms: C1_52  and  O1_82 
REMARK       I    between atoms: C3_54  and  O3_72 
REMARK       I    between atoms: C5_57  and  C6_88 
REMARK       I    between atoms: O1_59  and  C1_78 
REMARK       I    between atoms: O2_63  and  C2_68 
REMARK       I    between atoms: N_70  and  C2_74 
ROOT
ATOM      1  O6B BDP d 216      23.234 -15.309  98.326  0.00  0.00    -0.646 OA
ATOM      2  C6  BDP d 216      24.089 -15.698  99.151  0.00  0.00     0.206 C 
ATOM      3  C3  BDP d 216      22.470 -18.961 100.456  0.00  0.00     0.092 C 
ATOM      4  O6A BDP d 216      25.257 -15.258  99.199  0.00  0.00    -0.646 OA
ATOM      5  O5  BDP d 216      22.792 -16.201 101.100  0.00  0.00    -0.340 OA
ATOM      6  C4  BDP d 216      23.037 -17.961  99.450  0.00  0.00     0.103 C 
ATOM      7  O2  BDP d 216      21.293 -19.155 102.546  0.00  0.00    -0.388 OA
ATOM      8  C5  BDP d 216      23.684 -16.769 100.160  0.00  0.00     0.152 C 
ATOM      9  O1  BDP d 216      21.692 -16.457 103.130  0.00  0.00    -0.368 OA
ATOM     10  O3  BDP d 216      21.661 -19.904  99.785  0.00  0.00    -0.390 OA
ATOM     11  C1  BDP d 216      22.454 -17.104 102.131  0.00  0.00     0.156 C 
ATOM     12  C2  BDP d 216      21.649 -18.248 101.529  0.00  0.00     0.110 C 
ATOM     13  H   BDP d 216      23.285 -19.462 100.933  0.00  0.00     0.091 H 
ATOM     14  H   BDP d 216      22.250 -17.562  98.845  0.00  0.00     0.092 H 
ATOM     15  H   BDP d 216      20.779 -19.884 102.165  0.00  0.00     0.210 HD
ATOM     16  H   BDP d 216      24.554 -17.127 100.668  0.00  0.00     0.104 H 
ATOM     17  H   BDP d 216      22.209 -15.730 103.511  0.00  0.00     0.212 HD
ATOM     18  H   BDP d 216      20.922 -19.447  99.353  0.00  0.00     0.210 HD
ATOM     19  H   BDP d 216      23.349 -17.478 102.583  0.00  0.00     0.133 H 
ATOM     20  H   BDP d 216      20.762 -17.856 101.076  0.00  0.00     0.094 H 
ATOM     21  O4  ASG d 217      23.578 -21.196  94.996  0.00  0.00    -0.246 OA
ATOM     22  O7  ASG d 217      27.160 -19.875  97.435  0.00  0.00    -0.274 OA
ATOM     23  O1  ASG d 217      23.949 -18.631  98.654  0.00  0.00    -0.348 OA
ATOM     24  C5  ASG d 217      21.975 -19.421  95.548  0.00  0.00     0.090 C 
ATOM     25  C1  ASG d 217      23.582 -18.635  97.284  0.00  0.00     0.154 C 
ATOM     26  C6  ASG d 217      20.616 -20.162  95.270  0.00  0.00     0.043 C 
ATOM     27  OSA ASG d 217      23.874 -21.728  92.529  0.00  0.00    -0.572 OA
ATOM     28  C3  ASG d 217      24.302 -18.860  94.859  0.00  0.00     0.094 C 
ATOM     29  C7  ASG d 217      27.123 -18.706  97.270  0.00  0.00     0.214 C 
ATOM     30  C2  ASG d 217      24.774 -18.894  96.307  0.00  0.00     0.087 C 
ATOM     31  O5  ASG d 217      22.418 -19.518  96.957  0.00  0.00    -0.349 OA
ATOM     32  OSB ASG d 217      22.344 -23.059  93.820  0.00  0.00    -0.572 OA
ATOM     33  OSC ASG d 217      24.718 -23.259  94.135  0.00  0.00    -0.572 OA
ATOM     34  C8  ASG d 217      28.383 -17.862  97.539  0.00  0.00    -0.003 C 
ATOM     35  S   ASG d 217      23.619 -22.352  93.827  0.00  0.00     0.252 S 
ATOM     36  O6  ASG d 217      19.408 -19.432  95.438  0.00  0.00    -0.398 OA
ATOM     37  C4  ASG d 217      23.178 -19.876  94.666  0.00  0.00     0.114 C 
ATOM     38  N   ASG d 217      25.969 -18.094  96.620  0.00  0.00    -0.349 N 
ATOM     39  H   ASG d 217      21.723 -18.413  95.293  0.00  0.00     0.090 H 
ATOM     40  H   ASG d 217      23.256 -17.629  97.121  0.00  0.00     0.132 H 
ATOM     41  H   ASG d 217      20.572 -21.004  95.930  0.00  0.00     0.078 H 
ATOM     42  H   ASG d 217      20.646 -20.389  94.225  0.00  0.00     0.078 H 
ATOM     43  H   ASG d 217      24.035 -17.851  94.627  0.00  0.00     0.091 H 
ATOM     44  H   ASG d 217      25.130 -19.892  96.461  0.00  0.00     0.084 H 
ATOM     45  H   ASG d 217      29.122 -18.468  98.019  0.00  0.00     0.040 H 
ATOM     46  H   ASG d 217      28.131 -17.038  98.173  0.00  0.00     0.040 H 
ATOM     47  H   ASG d 217      28.770 -17.494  96.611  0.00  0.00     0.040 H 
ATOM     48  H   ASG d 217      19.306 -19.186  96.371  0.00  0.00     0.209 HD
ATOM     49  H   ASG d 217      22.902 -19.905  93.632  0.00  0.00     0.093 H 
ATOM     50  H   ASG d 217      25.990 -17.137  96.389  0.00  0.00     0.163 HD
ATOM     51  C6  BDP d 218      24.968 -16.405  90.403  0.00  0.00     0.206 C 
ATOM     52  O3  BDP d 218      29.189 -18.721  91.375  0.00  0.00    -0.390 OA
ATOM     53  C1  BDP d 218      26.013 -18.470  93.299  0.00  0.00     0.160 C 
ATOM     54  C2  BDP d 218      27.282 -19.106  92.740  0.00  0.00     0.110 C 
ATOM     55  O6A BDP d 218      24.649 -15.198  90.491  0.00  0.00    -0.646 OA
ATOM     56  O1  BDP d 218      25.295 -19.421  94.062  0.00  0.00    -0.348 OA
ATOM     57  C3  BDP d 218      28.062 -18.087  91.929  0.00  0.00     0.092 C 
ATOM     58  O5  BDP d 218      25.242 -18.015  92.203  0.00  0.00    -0.340 OA
ATOM     59  C5  BDP d 218      25.891 -16.987  91.472  0.00  0.00     0.152 C 
ATOM     60  C4  BDP d 218      27.169 -17.520  90.831  0.00  0.00     0.103 C 
ATOM     61  O2  BDP d 218      28.099 -19.599  93.779  0.00  0.00    -0.388 OA
ATOM     62  O6B BDP d 218      24.589 -17.155  89.476  0.00  0.00    -0.646 OA
ATOM     63  H   BDP d 218      29.744 -19.075  92.088  0.00  0.00     0.210 HD
ATOM     64  H   BDP d 218      26.249 -17.648  93.942  0.00  0.00     0.133 H 
ATOM     65  H   BDP d 218      26.994 -19.923  92.111  0.00  0.00     0.094 H 
ATOM     66  H   BDP d 218      28.385 -17.281  92.553  0.00  0.00     0.091 H 
ATOM     67  H   BDP d 218      26.143 -16.205  92.156  0.00  0.00     0.104 H 
ATOM     68  H   BDP d 218      27.051 -18.278  90.086  0.00  0.00     0.092 H 
ATOM     69  H   BDP d 218      28.367 -18.865  94.355  0.00  0.00     0.210 HD
ATOM     70  O4  ASG d 221      22.862  -7.362  81.922  0.00  0.00    -0.249 OA
ATOM     71  OSB ASG d 221      20.848  -6.433  83.178  0.00  0.00    -0.572 OA
ATOM     72  OSC ASG d 221      22.448  -4.875  82.328  0.00  0.00    -0.572 OA
ATOM     73  C2  ASG d 221      24.438  -9.573  81.348  0.00  0.00     0.062 C 
ATOM     74  C1  ASG d 221      25.403  -9.357  82.564  0.00  0.00     0.151 C 
ATOM     75  C3  ASG d 221      24.458  -8.381  80.414  0.00  0.00    -0.014 C 
ATOM     76  O7  ASG d 221      23.270 -10.362  78.838  0.00  0.00    -0.274 OA
ATOM     77  C7  ASG d 221      24.112 -11.061  79.287  0.00  0.00     0.214 C 
ATOM     78  O6  ASG d 221      26.496  -5.172  83.562  0.00  0.00    -0.398 OA
ATOM     79  O1  ASG d 221      25.279 -10.342  83.586  0.00  0.00    -0.348 OA
ATOM     80  C5  ASG d 221      25.320  -6.888  82.051  0.00  0.00     0.088 C 
ATOM     81  C4  ASG d 221      24.057  -7.151  81.188  0.00  0.00     0.089 C 
ATOM     82  OSA ASG d 221      22.975  -6.249  84.212  0.00  0.00    -0.572 OA
ATOM     83  S   ASG d 221      22.269  -6.195  82.933  0.00  0.00     0.252 S 
ATOM     84  O5  ASG d 221      25.362  -7.947  83.082  0.00  0.00    -0.349 OA
ATOM     85  C8  ASG d 221      24.523 -12.332  78.524  0.00  0.00    -0.003 C 
ATOM     86  C6  ASG d 221      25.531  -5.410  82.548  0.00  0.00     0.043 C 
ATOM     87  N   ASG d 221      24.606 -10.859  80.649  0.00  0.00    -0.352 N 
ATOM     88  H   ASG d 221      23.455  -9.641  81.764  0.00  0.00     0.080 H 
ATOM     89  H   ASG d 221      26.390  -9.504  82.178  0.00  0.00     0.132 H 
ATOM     90  H   ASG d 221      23.768  -8.542  79.611  0.00  0.00     0.040 H 
ATOM     91  H   ASG d 221      25.441  -8.253  80.009  0.00  0.00     0.040 H 
ATOM     92  H   ASG d 221      26.520  -4.225  83.769  0.00  0.00     0.209 HD
ATOM     93  H   ASG d 221      26.195  -6.960  81.438  0.00  0.00     0.090 H 
ATOM     94  H   ASG d 221      23.805  -6.301  80.589  0.00  0.00     0.089 H 
ATOM     95  H   ASG d 221      24.078 -12.322  77.551  0.00  0.00     0.040 H 
ATOM     96  H   ASG d 221      24.188 -13.195  79.061  0.00  0.00     0.040 H 
ATOM     97  H   ASG d 221      25.588 -12.363  78.430  0.00  0.00     0.040 H 
ATOM     98  H   ASG d 221      25.815  -4.827  81.697  0.00  0.00     0.078 H 
ATOM     99  H   ASG d 221      24.598  -5.150  83.003  0.00  0.00     0.078 H 
ATOM    100  H   ASG d 221      25.061 -11.601  81.110  0.00  0.00     0.163 HD
ATOM    101  O5  BDP d 220      27.400 -12.979  84.603  0.00  0.00    -0.340 OA
ATOM    102  C5  BDP d 220      26.271 -12.335  84.047  0.00  0.00     0.152 C 
ATOM    103  C6  BDP d 220      25.989 -12.871  82.645  0.00  0.00     0.206 C 
ATOM    104  C1  BDP d 220      27.491 -12.744  85.991  0.00  0.00     0.160 C 
ATOM    105  C3  BDP d 220      26.701 -10.363  85.483  0.00  0.00     0.092 C 
ATOM    106  O2  BDP d 220      27.679 -10.988  87.602  0.00  0.00    -0.388 OA
ATOM    107  O6B BDP d 220      26.904 -12.803  81.789  0.00  0.00    -0.646 OA
ATOM    108  C2  BDP d 220      27.714 -11.252  86.216  0.00  0.00     0.110 C 
ATOM    109  O3  BDP d 220      27.156  -9.022  85.486  0.00  0.00    -0.390 OA
ATOM    110  O1  BDP d 220      28.581 -13.465  86.549  0.00  0.00    -0.348 OA
ATOM    111  O6A BDP d 220      24.850 -13.350  82.424  0.00  0.00    -0.646 OA
ATOM    112  C4  BDP d 220      26.497 -10.827  84.040  0.00  0.00     0.103 C 
ATOM    113  H   BDP d 220      25.408 -12.543  84.645  0.00  0.00     0.104 H 
ATOM    114  H   BDP d 220      26.588 -13.069  86.465  0.00  0.00     0.133 H 
ATOM    115  H   BDP d 220      25.764 -10.435  85.995  0.00  0.00     0.091 H 
ATOM    116  H   BDP d 220      28.322 -11.554  88.055  0.00  0.00     0.210 HD
ATOM    117  H   BDP d 220      28.672 -11.008  85.806  0.00  0.00     0.094 H 
ATOM    118  H   BDP d 220      28.005  -8.968  85.020  0.00  0.00     0.210 HD
ATOM    119  H   BDP d 220      27.336 -10.510  83.457  0.00  0.00     0.092 H 
ATOM    120  OSC ASG d 219      33.193 -15.000  87.076  0.00  0.00    -0.572 OA
ATOM    121  C5  ASG d 219      29.049 -17.100  86.990  0.00  0.00     0.090 C 
ATOM    122  C3  ASG d 219      28.248 -14.750  86.960  0.00  0.00     0.094 C 
ATOM    123  C6  ASG d 219      30.038 -18.177  86.427  0.00  0.00     0.043 C 
ATOM    124  C7  ASG d 219      27.257 -12.965  90.125  0.00  0.00     0.214 C 
ATOM    125  C4  ASG d 219      29.423 -15.645  86.596  0.00  0.00     0.114 C 
ATOM    126  S   ASG d 219      32.013 -15.132  86.224  0.00  0.00     0.252 S 
ATOM    127  C8  ASG d 219      26.129 -12.091  90.710  0.00  0.00    -0.003 C 
ATOM    128  O7  ASG d 219      28.316 -12.983  90.644  0.00  0.00    -0.274 OA
ATOM    129  O6  ASG d 219      29.912 -19.520  86.871  0.00  0.00    -0.398 OA
ATOM    130  OSB ASG d 219      32.219 -16.326  85.406  0.00  0.00    -0.572 OA
ATOM    131  O1  ASG d 219      27.701 -16.313  90.408  0.00  0.00    -0.348 OA
ATOM    132  O4  ASG d 219      30.662 -15.272  87.175  0.00  0.00    -0.246 OA
ATOM    133  OSA ASG d 219      31.813 -13.941  85.396  0.00  0.00    -0.572 OA
ATOM    134  O5  ASG d 219      28.948 -17.112  88.465  0.00  0.00    -0.349 OA
ATOM    135  N   ASG d 219      27.020 -13.798  88.948  0.00  0.00    -0.349 N 
ATOM    136  C2  ASG d 219      28.038 -14.749  88.466  0.00  0.00     0.087 C 
ATOM    137  C1  ASG d 219      27.866 -16.220  88.999  0.00  0.00     0.154 C 
ATOM    138  H   ASG d 219      28.117 -17.381  86.545  0.00  0.00     0.090 H 
ATOM    139  H   ASG d 219      27.350 -15.095  86.493  0.00  0.00     0.091 H 
ATOM    140  H   ASG d 219      31.028 -17.855  86.675  0.00  0.00     0.078 H 
ATOM    141  H   ASG d 219      29.803 -18.225  85.385  0.00  0.00     0.078 H 
ATOM    142  H   ASG d 219      29.584 -15.547  85.543  0.00  0.00     0.093 H 
ATOM    143  H   ASG d 219      25.247 -12.201  90.114  0.00  0.00     0.040 H 
ATOM    144  H   ASG d 219      26.436 -11.066  90.709  0.00  0.00     0.040 H 
ATOM    145  H   ASG d 219      25.921 -12.400  91.713  0.00  0.00     0.040 H 
ATOM    146  H   ASG d 219      30.111 -19.567  87.819  0.00  0.00     0.209 HD
ATOM    147  H   ASG d 219      26.164 -13.722  88.467  0.00  0.00     0.163 HD
ATOM    148  H   ASG d 219      28.932 -14.358  88.905  0.00  0.00     0.084 H 
ATOM    149  H   ASG d 219      26.935 -16.577  88.612  0.00  0.00     0.132 H 
ENDROOT
TORSDOF 38
ENDMDL
MODEL 44
REMARK VINA RESULT:      -6.4      4.453     16.652
REMARK  0 active torsions:
REMARK  status: ('A' for Active; 'I' for Inactive)
REMARK       I    between atoms: C6_2  and  C5_55 
REMARK       I    between atoms: O4_3  and  C4_83 
REMARK       I    between atoms: O4_3  and  S_75 
REMARK       I    between atoms: C6_4  and  C5_67 
REMARK       I    between atoms: O4_5  and  C4_61 
REMARK       I    between atoms: O4_5  and  S_71 
REMARK       I    between atoms: O3_6  and  C3_32 
REMARK       I    between atoms: C1_8  and  O1_30 
REMARK       I    between atoms: C3_12  and  O3_62 
REMARK       I    between atoms: C5_13  and  C6_25 
REMARK       I    between atoms: O1_14  and  C4_39 
REMARK       I    between atoms: O1_14  and  C1_23 
REMARK       I    between atoms: C5_15  and  C6_27 
REMARK       I    between atoms: C5_18  and  C6_44 
REMARK       I    between atoms: C3_19  and  O1_82 
REMARK       I    between atoms: C2_20  and  N_89 
REMARK       I    between atoms: C2_21  and  O2_80 
REMARK       I    between atoms: C1_24  and  O1_45 
REMARK       I    between atoms: C6_25  and  O6_48 
REMARK       I    between atoms: C6_27  and  O6_77 
REMARK       I    between atoms: C7_28  and  C8_35 
REMARK       I    between atoms: C7_28  and  N_70 
REMARK       I    between atoms: O1_30  and  C3_43 
REMARK       I    between atoms: C4_33  and  O4_53 
REMARK       I    between atoms: S_34  and  O4_53 
REMARK       I    between atoms: O2_40  and  C2_87 
REMARK       I    between atoms: C7_41  and  C8_81 
REMARK       I    between atoms: C7_41  and  N_89 
REMARK       I    between atoms: O6_42  and  C6_88 
REMARK       I    between atoms: O1_45  and  C4_90 
REMARK       I    between atoms: C7_46  and  C8_69 
REMARK       I    between atoms: C7_46  and  N_85 
REMARK       I    between atoms: C2_47  and  N_85 
REMARK       I    between atoms: O1_50  and  C4_73 
REMARK       I    between atoms: O1_50  and  C1_76 
REMARK       I    between atoms: C1_52  and  O1_82 
REMARK       I    between atoms: C3_54  and  O3_72 
REMARK       I    between atoms: C5_57  and  C6_88 
REMARK       I    between atoms: O1_59  and  C1_78 
REMARK       I    between atoms: O2_63  and  C2_68 
REMARK       I    between atoms: N_70  and  C2_74 
ROOT
ATOM      1  O6B BDP d 216      31.591 -18.290  81.849  0.00  0.00    -0.646 OA
ATOM      2  C6  BDP d 216      31.970 -17.704  80.812  0.00  0.00     0.206 C 
ATOM      3  C3  BDP d 216      30.006 -19.621  78.085  0.00  0.00     0.092 C 
ATOM      4  O6A BDP d 216      32.552 -16.598  80.813  0.00  0.00    -0.646 OA
ATOM      5  O5  BDP d 216      32.562 -19.500  79.344  0.00  0.00    -0.340 OA
ATOM      6  C4  BDP d 216      30.243 -18.793  79.346  0.00  0.00     0.103 C 
ATOM      7  O2  BDP d 216      30.943 -21.343  76.689  0.00  0.00    -0.388 OA
ATOM      8  C5  BDP d 216      31.711 -18.377  79.467  0.00  0.00     0.152 C 
ATOM      9  O1  BDP d 216      33.429 -21.131  77.934  0.00  0.00    -0.368 OA
ATOM     10  O3  BDP d 216      28.720 -20.205  78.134  0.00  0.00    -0.390 OA
ATOM     11  C1  BDP d 216      32.457 -20.115  78.077  0.00  0.00     0.156 C 
ATOM     12  C2  BDP d 216      31.063 -20.714  77.944  0.00  0.00     0.110 C 
ATOM     13  H   BDP d 216      30.074 -18.973  77.237  0.00  0.00     0.091 H 
ATOM     14  H   BDP d 216      30.021 -19.376  80.216  0.00  0.00     0.092 H 
ATOM     15  H   BDP d 216      30.055 -21.725  76.602  0.00  0.00     0.210 HD
ATOM     16  H   BDP d 216      31.918 -17.686  78.677  0.00  0.00     0.104 H 
ATOM     17  H   BDP d 216      34.315 -20.745  78.019  0.00  0.00     0.212 HD
ATOM     18  H   BDP d 216      28.661 -20.791  78.904  0.00  0.00     0.210 HD
ATOM     19  H   BDP d 216      32.621 -19.385  77.312  0.00  0.00     0.133 H 
ATOM     20  H   BDP d 216      30.913 -21.436  78.719  0.00  0.00     0.094 H 
ATOM     21  O4  ASG d 217      25.110 -17.004  80.369  0.00  0.00    -0.246 OA
ATOM     22  O7  ASG d 217      28.300 -14.265  78.684  0.00  0.00    -0.274 OA
ATOM     23  O1  ASG d 217      29.407 -17.692  79.295  0.00  0.00    -0.348 OA
ATOM     24  C5  ASG d 217      26.503 -18.701  81.466  0.00  0.00     0.090 C 
ATOM     25  C1  ASG d 217      28.481 -17.654  80.368  0.00  0.00     0.154 C 
ATOM     26  C6  ASG d 217      25.515 -19.924  81.478  0.00  0.00     0.043 C 
ATOM     27  OSA ASG d 217      23.222 -16.019  81.756  0.00  0.00    -0.572 OA
ATOM     28  C3  ASG d 217      26.932 -16.275  81.834  0.00  0.00     0.094 C 
ATOM     29  C7  ASG d 217      29.079 -14.255  79.573  0.00  0.00     0.214 C 
ATOM     30  C2  ASG d 217      27.897 -16.233  80.656  0.00  0.00     0.087 C 
ATOM     31  O5  ASG d 217      27.390 -18.676  80.282  0.00  0.00    -0.349 OA
ATOM     32  OSB ASG d 217      22.732 -17.849  80.279  0.00  0.00    -0.572 OA
ATOM     33  OSC ASG d 217      23.219 -15.663  79.409  0.00  0.00    -0.572 OA
ATOM     34  C8  ASG d 217      30.121 -13.125  79.657  0.00  0.00    -0.003 C 
ATOM     35  S   ASG d 217      23.511 -16.630  80.459  0.00  0.00     0.252 S 
ATOM     36  O6  ASG d 217      25.948 -21.130  82.090  0.00  0.00    -0.398 OA
ATOM     37  C4  ASG d 217      25.831 -17.296  81.554  0.00  0.00     0.114 C 
ATOM     38  N   ASG d 217      28.923 -15.178  80.693  0.00  0.00    -0.349 N 
ATOM     39  H   ASG d 217      27.063 -18.871  82.362  0.00  0.00     0.090 H 
ATOM     40  H   ASG d 217      29.083 -17.922  81.212  0.00  0.00     0.132 H 
ATOM     41  H   ASG d 217      25.278 -20.151  80.459  0.00  0.00     0.078 H 
ATOM     42  H   ASG d 217      24.696 -19.597  82.085  0.00  0.00     0.078 H 
ATOM     43  H   ASG d 217      27.504 -16.467  82.718  0.00  0.00     0.091 H 
ATOM     44  H   ASG d 217      27.302 -15.934  79.819  0.00  0.00     0.084 H 
ATOM     45  H   ASG d 217      30.098 -12.551  78.754  0.00  0.00     0.040 H 
ATOM     46  H   ASG d 217      31.095 -13.548  79.785  0.00  0.00     0.040 H 
ATOM     47  H   ASG d 217      29.894 -12.491  80.489  0.00  0.00     0.040 H 
ATOM     48  H   ASG d 217      26.698 -21.494  81.592  0.00  0.00     0.209 HD
ATOM     49  H   ASG d 217      25.113 -17.267  82.348  0.00  0.00     0.093 H 
ATOM     50  H   ASG d 217      29.509 -15.094  81.479  0.00  0.00     0.163 HD
ATOM     51  C6  BDP d 218      26.141 -14.375  86.535  0.00  0.00     0.206 C 
ATOM     52  O3  BDP d 218      25.774 -10.600  83.414  0.00  0.00    -0.390 OA
ATOM     53  C1  BDP d 218      26.574 -14.192  82.858  0.00  0.00     0.160 C 
ATOM     54  C2  BDP d 218      25.979 -12.815  82.578  0.00  0.00     0.110 C 
ATOM     55  O6A BDP d 218      27.053 -14.708  87.324  0.00  0.00    -0.646 OA
ATOM     56  O1  BDP d 218      26.194 -15.095  81.837  0.00  0.00    -0.348 OA
ATOM     57  C3  BDP d 218      26.392 -11.839  83.664  0.00  0.00     0.092 C 
ATOM     58  O5  BDP d 218      26.093 -14.621  84.116  0.00  0.00    -0.340 OA
ATOM     59  C5  BDP d 218      26.538 -13.793  85.179  0.00  0.00     0.152 C 
ATOM     60  C4  BDP d 218      25.972 -12.385  85.025  0.00  0.00     0.103 C 
ATOM     61  O2  BDP d 218      26.405 -12.326  81.326  0.00  0.00    -0.388 OA
ATOM     62  O6B BDP d 218      24.923 -14.474  86.802  0.00  0.00    -0.646 OA
ATOM     63  H   BDP d 218      26.054 -10.270  82.545  0.00  0.00     0.210 HD
ATOM     64  H   BDP d 218      27.643 -14.150  82.874  0.00  0.00     0.133 H 
ATOM     65  H   BDP d 218      24.913 -12.912  82.566  0.00  0.00     0.094 H 
ATOM     66  H   BDP d 218      27.454 -11.708  83.666  0.00  0.00     0.091 H 
ATOM     67  H   BDP d 218      27.605 -13.746  85.136  0.00  0.00     0.104 H 
ATOM     68  H   BDP d 218      24.909 -12.285  85.100  0.00  0.00     0.092 H 
ATOM     69  H   BDP d 218      27.371 -12.235  81.326  0.00  0.00     0.210 HD
ATOM     70  O4  ASG d 221      27.325 -14.003  99.049  0.00  0.00    -0.249 OA
ATOM     71  OSB ASG d 221      28.439 -16.292  99.170  0.00  0.00    -0.572 OA
ATOM     72  OSC ASG d 221      29.390 -14.519 100.460  0.00  0.00    -0.572 OA
ATOM     73  C2  ASG d 221      25.583 -12.324  97.690  0.00  0.00     0.062 C 
ATOM     74  C1  ASG d 221      26.685 -11.745  96.737  0.00  0.00     0.151 C 
ATOM     75  C3  ASG d 221      25.908 -12.042  99.141  0.00  0.00    -0.014 C 
ATOM     76  O7  ASG d 221      23.201 -12.730  99.254  0.00  0.00    -0.274 OA
ATOM     77  C7  ASG d 221      23.107 -12.049  98.291  0.00  0.00     0.214 C 
ATOM     78  O6  ASG d 221      30.687 -10.988  98.500  0.00  0.00    -0.398 OA
ATOM     79  O1  ASG d 221      26.550 -12.152  95.379  0.00  0.00    -0.348 OA
ATOM     80  C5  ASG d 221      28.224 -11.683  98.736  0.00  0.00     0.088 C 
ATOM     81  C4  ASG d 221      27.251 -12.648  99.464  0.00  0.00     0.089 C 
ATOM     82  OSA ASG d 221      29.620 -14.547  98.081  0.00  0.00    -0.572 OA
ATOM     83  S   ASG d 221      28.732 -14.861  99.199  0.00  0.00     0.252 S 
ATOM     84  O5  ASG d 221      28.070 -11.934  97.286  0.00  0.00    -0.349 OA
ATOM     85  C8  ASG d 221      21.742 -11.436  97.932  0.00  0.00    -0.003 C 
ATOM     86  C6  ASG d 221      29.694 -11.625  99.291  0.00  0.00     0.043 C 
ATOM     87  N   ASG d 221      24.201 -11.963  97.325  0.00  0.00    -0.352 N 
ATOM     88  H   ASG d 221      25.608 -13.385  97.553  0.00  0.00     0.080 H 
ATOM     89  H   ASG d 221      26.516 -10.689  96.711  0.00  0.00     0.132 H 
ATOM     90  H   ASG d 221      25.157 -12.476  99.769  0.00  0.00     0.040 H 
ATOM     91  H   ASG d 221      25.936 -10.985  99.309  0.00  0.00     0.040 H 
ATOM     92  H   ASG d 221      31.540 -11.026  98.960  0.00  0.00     0.209 HD
ATOM     93  H   ASG d 221      27.949 -10.670  98.948  0.00  0.00     0.090 H 
ATOM     94  H   ASG d 221      27.476 -12.722 100.507  0.00  0.00     0.089 H 
ATOM     95  H   ASG d 221      21.060 -11.586  98.743  0.00  0.00     0.040 H 
ATOM     96  H   ASG d 221      21.360 -11.908  97.052  0.00  0.00     0.040 H 
ATOM     97  H   ASG d 221      21.858 -10.388  97.753  0.00  0.00     0.040 H 
ATOM     98  H   ASG d 221      29.659 -11.112 100.229  0.00  0.00     0.078 H 
ATOM     99  H   ASG d 221      30.002 -12.649  99.328  0.00  0.00     0.078 H 
ATOM    100  H   ASG d 221      24.010 -11.656  96.409  0.00  0.00     0.163 HD
ATOM    101  O5  BDP d 220      25.578 -10.403  92.467  0.00  0.00    -0.340 OA
ATOM    102  C5  BDP d 220      25.509 -11.329  93.533  0.00  0.00     0.152 C 
ATOM    103  C6  BDP d 220      24.176 -11.200  94.266  0.00  0.00     0.206 C 
ATOM    104  C1  BDP d 220      26.639 -10.710  91.589  0.00  0.00     0.160 C 
ATOM    105  C3  BDP d 220      27.983 -11.328  93.678  0.00  0.00     0.092 C 
ATOM    106  O2  BDP d 220      29.012 -10.991  91.519  0.00  0.00    -0.388 OA
ATOM    107  O6B BDP d 220      23.864 -10.080  94.737  0.00  0.00    -0.646 OA
ATOM    108  C2  BDP d 220      27.954 -10.562  92.348  0.00  0.00     0.110 C 
ATOM    109  O3  BDP d 220      29.088 -10.894  94.452  0.00  0.00    -0.390 OA
ATOM    110  O1  BDP d 220      26.642  -9.821  90.480  0.00  0.00    -0.348 OA
ATOM    111  O6A BDP d 220      23.463 -12.228  94.359  0.00  0.00    -0.646 OA
ATOM    112  C4  BDP d 220      26.693 -11.113  94.471  0.00  0.00     0.103 C 
ATOM    113  H   BDP d 220      25.565 -12.325  93.147  0.00  0.00     0.104 H 
ATOM    114  H   BDP d 220      26.520 -11.710  91.226  0.00  0.00     0.133 H 
ATOM    115  H   BDP d 220      28.073 -12.371  93.459  0.00  0.00     0.091 H 
ATOM    116  H   BDP d 220      28.984 -10.501  90.682  0.00  0.00     0.210 HD
ATOM    117  H   BDP d 220      28.062  -9.528  92.601  0.00  0.00     0.094 H 
ATOM    118  H   BDP d 220      28.996  -9.948  94.644  0.00  0.00     0.210 HD
ATOM    119  H   BDP d 220      26.725 -10.143  94.922  0.00  0.00     0.092 H 
ATOM    120  OSC ASG d 219      26.664  -5.547  88.108  0.00  0.00    -0.572 OA
ATOM    121  C5  ASG d 219      24.245  -9.492  87.692  0.00  0.00     0.090 C 
ATOM    122  C3  ASG d 219      25.861 -10.256  89.415  0.00  0.00     0.094 C 
ATOM    123  C6  ASG d 219      23.260  -8.382  87.190  0.00  0.00     0.043 C 
ATOM    124  C7  ASG d 219      29.005 -12.108  88.485  0.00  0.00     0.214 C 
ATOM    125  C4  ASG d 219      25.173  -9.024  88.846  0.00  0.00     0.114 C 
ATOM    126  S   ASG d 219      25.813  -6.436  88.895  0.00  0.00     0.252 S 
ATOM    127  C8  ASG d 219      29.824 -13.357  88.870  0.00  0.00    -0.003 C 
ATOM    128  O7  ASG d 219      29.513 -11.240  87.868  0.00  0.00    -0.274 OA
ATOM    129  O6  ASG d 219      22.493  -8.627  86.019  0.00  0.00    -0.398 OA
ATOM    130  OSB ASG d 219      24.434  -6.004  88.670  0.00  0.00    -0.572 OA
ATOM    131  O1  ASG d 219      26.723 -11.757  86.005  0.00  0.00    -0.348 OA
ATOM    132  O4  ASG d 219      26.048  -8.001  88.402  0.00  0.00    -0.246 OA
ATOM    133  OSA ASG d 219      26.163  -6.395  90.317  0.00  0.00    -0.572 OA
ATOM    134  O5  ASG d 219      25.137 -10.008  86.632  0.00  0.00    -0.349 OA
ATOM    135  N   ASG d 219      27.596 -12.000  88.851  0.00  0.00    -0.349 N 
ATOM    136  C2  ASG d 219      26.762 -10.885  88.364  0.00  0.00     0.087 C 
ATOM    137  C1  ASG d 219      25.946 -11.198  87.056  0.00  0.00     0.154 C 
ATOM    138  H   ASG d 219      23.580 -10.258  88.033  0.00  0.00     0.090 H 
ATOM    139  H   ASG d 219      25.140 -10.983  89.724  0.00  0.00     0.091 H 
ATOM    140  H   ASG d 219      23.843  -7.504  87.006  0.00  0.00     0.078 H 
ATOM    141  H   ASG d 219      22.530  -8.311  87.968  0.00  0.00     0.078 H 
ATOM    142  H   ASG d 219      24.621  -8.571  89.643  0.00  0.00     0.093 H 
ATOM    143  H   ASG d 219      29.205 -14.034  89.422  0.00  0.00     0.040 H 
ATOM    144  H   ASG d 219      30.659 -13.064  89.472  0.00  0.00     0.040 H 
ATOM    145  H   ASG d 219      30.176 -13.840  87.983  0.00  0.00     0.040 H 
ATOM    146  H   ASG d 219      23.086  -8.705  85.255  0.00  0.00     0.209 HD
ATOM    147  H   ASG d 219      27.194 -12.684  89.434  0.00  0.00     0.163 HD
ATOM    148  H   ASG d 219      27.499 -10.153  88.107  0.00  0.00     0.084 H 
ATOM    149  H   ASG d 219      25.260 -11.981  87.305  0.00  0.00     0.132 H 
ENDROOT
TORSDOF 38
ENDMDL
MODEL 45
REMARK VINA RESULT:      -6.3      4.433      6.012
REMARK  0 active torsions:
REMARK  status: ('A' for Active; 'I' for Inactive)
REMARK       I    between atoms: C6_2  and  C5_55 
REMARK       I    between atoms: O4_3  and  C4_83 
REMARK       I    between atoms: O4_3  and  S_75 
REMARK       I    between atoms: C6_4  and  C5_67 
REMARK       I    between atoms: O4_5  and  C4_61 
REMARK       I    between atoms: O4_5  and  S_71 
REMARK       I    between atoms: O3_6  and  C3_32 
REMARK       I    between atoms: C1_8  and  O1_30 
REMARK       I    between atoms: C3_12  and  O3_62 
REMARK       I    between atoms: C5_13  and  C6_25 
REMARK       I    between atoms: O1_14  and  C4_39 
REMARK       I    between atoms: O1_14  and  C1_23 
REMARK       I    between atoms: C5_15  and  C6_27 
REMARK       I    between atoms: C5_18  and  C6_44 
REMARK       I    between atoms: C3_19  and  O1_82 
REMARK       I    between atoms: C2_20  and  N_89 
REMARK       I    between atoms: C2_21  and  O2_80 
REMARK       I    between atoms: C1_24  and  O1_45 
REMARK       I    between atoms: C6_25  and  O6_48 
REMARK       I    between atoms: C6_27  and  O6_77 
REMARK       I    between atoms: C7_28  and  C8_35 
REMARK       I    between atoms: C7_28  and  N_70 
REMARK       I    between atoms: O1_30  and  C3_43 
REMARK       I    between atoms: C4_33  and  O4_53 
REMARK       I    between atoms: S_34  and  O4_53 
REMARK       I    between atoms: O2_40  and  C2_87 
REMARK       I    between atoms: C7_41  and  C8_81 
REMARK       I    between atoms: C7_41  and  N_89 
REMARK       I    between atoms: O6_42  and  C6_88 
REMARK       I    between atoms: O1_45  and  C4_90 
REMARK       I    between atoms: C7_46  and  C8_69 
REMARK       I    between atoms: C7_46  and  N_85 
REMARK       I    between atoms: C2_47  and  N_85 
REMARK       I    between atoms: O1_50  and  C4_73 
REMARK       I    between atoms: O1_50  and  C1_76 
REMARK       I    between atoms: C1_52  and  O1_82 
REMARK       I    between atoms: C3_54  and  O3_72 
REMARK       I    between atoms: C5_57  and  C6_88 
REMARK       I    between atoms: O1_59  and  C1_78 
REMARK       I    between atoms: O2_63  and  C2_68 
REMARK       I    between atoms: N_70  and  C2_74 
ROOT
ATOM      1  O6B BDP d 216      24.439 -11.449  98.137  0.00  0.00    -0.646 OA
ATOM      2  C6  BDP d 216      25.312 -11.739  98.983  0.00  0.00     0.206 C 
ATOM      3  C3  BDP d 216      23.475 -14.408 101.099  0.00  0.00     0.092 C 
ATOM      4  O6A BDP d 216      26.519 -11.440  98.866  0.00  0.00    -0.646 OA
ATOM      5  O5  BDP d 216      24.128 -11.631 101.062  0.00  0.00    -0.340 OA
ATOM      6  C4  BDP d 216      24.061 -13.736  99.859  0.00  0.00     0.103 C 
ATOM      7  O2  BDP d 216      22.453 -13.984 103.236  0.00  0.00    -0.388 OA
ATOM      8  C5  BDP d 216      24.880 -12.499 100.235  0.00  0.00     0.152 C 
ATOM      9  O1  BDP d 216      23.171 -11.290 103.152  0.00  0.00    -0.368 OA
ATOM     10  O3  BDP d 216      22.523 -15.376 100.711  0.00  0.00    -0.390 OA
ATOM     11  C1  BDP d 216      23.781 -12.231 102.292  0.00  0.00     0.156 C 
ATOM     12  C2  BDP d 216      22.819 -13.379 102.017  0.00  0.00     0.110 C 
ATOM     13  H   BDP d 216      24.270 -14.881 101.636  0.00  0.00     0.091 H 
ATOM     14  H   BDP d 216      23.274 -13.394  99.220  0.00  0.00     0.092 H 
ATOM     15  H   BDP d 216      21.839 -14.715 103.063  0.00  0.00     0.210 HD
ATOM     16  H   BDP d 216      25.747 -12.832 100.766  0.00  0.00     0.104 H 
ATOM     17  H   BDP d 216      23.788 -10.561 103.324  0.00  0.00     0.212 HD
ATOM     18  H   BDP d 216      21.804 -14.945 100.224  0.00  0.00     0.210 HD
ATOM     19  H   BDP d 216      24.666 -12.596 102.771  0.00  0.00     0.133 H 
ATOM     20  H   BDP d 216      21.944 -12.998 101.533  0.00  0.00     0.094 H 
ATOM     21  O4  ASG d 217      23.915 -17.935  96.262  0.00  0.00    -0.246 OA
ATOM     22  O7  ASG d 217      27.795 -16.528  98.132  0.00  0.00    -0.274 OA
ATOM     23  O1  ASG d 217      24.834 -14.671  99.194  0.00  0.00    -0.348 OA
ATOM     24  C5  ASG d 217      22.551 -15.906  96.468  0.00  0.00     0.090 C 
ATOM     25  C1  ASG d 217      24.362 -14.942  97.885  0.00  0.00     0.154 C 
ATOM     26  C6  ASG d 217      21.106 -16.525  96.444  0.00  0.00     0.043 C 
ATOM     27  OSA ASG d 217      23.960 -19.044  93.975  0.00  0.00    -0.572 OA
ATOM     28  C3  ASG d 217      24.861 -15.793  95.545  0.00  0.00     0.094 C 
ATOM     29  C7  ASG d 217      27.865 -15.430  97.700  0.00  0.00     0.214 C 
ATOM     30  C2  ASG d 217      25.440 -15.554  96.933  0.00  0.00     0.087 C 
ATOM     31  O5  ASG d 217      23.091 -15.733  97.835  0.00  0.00    -0.349 OA
ATOM     32  OSB ASG d 217      22.409 -19.857  95.620  0.00  0.00    -0.572 OA
ATOM     33  OSC ASG d 217      24.767 -20.259  95.848  0.00  0.00    -0.572 OA
ATOM     34  C8  ASG d 217      29.222 -14.702  97.697  0.00  0.00    -0.003 C 
ATOM     35  S   ASG d 217      23.746 -19.322  95.395  0.00  0.00     0.252 S 
ATOM     36  O6  ASG d 217      19.996 -15.639  96.500  0.00  0.00    -0.398 OA
ATOM     37  C4  ASG d 217      23.628 -16.687  95.655  0.00  0.00     0.114 C 
ATOM     38  N   ASG d 217      26.732 -14.850  96.987  0.00  0.00    -0.349 N 
ATOM     39  H   ASG d 217      22.385 -14.959  95.998  0.00  0.00     0.090 H 
ATOM     40  H   ASG d 217      24.129 -13.968  97.508  0.00  0.00     0.132 H 
ATOM     41  H   ASG d 217      21.028 -17.184  97.283  0.00  0.00     0.078 H 
ATOM     42  H   ASG d 217      21.030 -16.984  95.480  0.00  0.00     0.078 H 
ATOM     43  H   ASG d 217      24.682 -14.838  95.097  0.00  0.00     0.091 H 
ATOM     44  H   ASG d 217      25.704 -16.526  97.297  0.00  0.00     0.084 H 
ATOM     45  H   ASG d 217      29.931 -15.267  98.265  0.00  0.00     0.040 H 
ATOM     46  H   ASG d 217      29.106 -13.732  98.134  0.00  0.00     0.040 H 
ATOM     47  H   ASG d 217      29.570 -14.601  96.690  0.00  0.00     0.040 H 
ATOM     48  H   ASG d 217      19.994 -15.178  97.353  0.00  0.00     0.209 HD
ATOM     49  H   ASG d 217      23.270 -16.917  94.672  0.00  0.00     0.093 H 
ATOM     50  H   ASG d 217      26.832 -13.980  96.538  0.00  0.00     0.163 HD
ATOM     51  C6  BDP d 218      25.423 -14.507  90.609  0.00  0.00     0.206 C 
ATOM     52  O3  BDP d 218      29.448 -17.023  91.871  0.00  0.00    -0.390 OA
ATOM     53  C1  BDP d 218      26.475 -15.970  93.848  0.00  0.00     0.160 C 
ATOM     54  C2  BDP d 218      27.625 -16.862  93.387  0.00  0.00     0.110 C 
ATOM     55  O6A BDP d 218      25.237 -13.282  90.429  0.00  0.00    -0.646 OA
ATOM     56  O1  BDP d 218      25.727 -16.633  94.849  0.00  0.00    -0.348 OA
ATOM     57  C3  BDP d 218      28.439 -16.152  92.320  0.00  0.00     0.092 C 
ATOM     58  O5  BDP d 218      25.671 -15.688  92.719  0.00  0.00    -0.340 OA
ATOM     59  C5  BDP d 218      26.362 -14.936  91.735  0.00  0.00     0.152 C 
ATOM     60  C4  BDP d 218      27.525 -15.746  91.169  0.00  0.00     0.103 C 
ATOM     61  O2  BDP d 218      28.466 -17.199  94.468  0.00  0.00    -0.388 OA
ATOM     62  O6B BDP d 218      24.897 -15.397  89.905  0.00  0.00    -0.646 OA
ATOM     63  H   BDP d 218      30.018 -17.269  92.616  0.00  0.00     0.210 HD
ATOM     64  H   BDP d 218      26.844 -15.058  94.267  0.00  0.00     0.133 H 
ATOM     65  H   BDP d 218      27.206 -17.760  92.983  0.00  0.00     0.094 H 
ATOM     66  H   BDP d 218      28.890 -15.269  92.721  0.00  0.00     0.091 H 
ATOM     67  H   BDP d 218      26.747 -14.054  92.202  0.00  0.00     0.104 H 
ATOM     68  H   BDP d 218      27.271 -16.634  90.629  0.00  0.00     0.092 H 
ATOM     69  H   BDP d 218      28.852 -16.391  94.842  0.00  0.00     0.210 HD
ATOM     70  O4  ASG d 221      23.592  -7.435  80.373  0.00  0.00    -0.249 OA
ATOM     71  OSB ASG d 221      21.789  -6.015  81.482  0.00  0.00    -0.572 OA
ATOM     72  OSC ASG d 221      23.468  -4.889  80.208  0.00  0.00    -0.572 OA
ATOM     73  C2  ASG d 221      24.884  -9.887  80.249  0.00  0.00     0.062 C 
ATOM     74  C1  ASG d 221      25.958  -9.517  81.329  0.00  0.00     0.151 C 
ATOM     75  C3  ASG d 221      24.952  -8.950  79.063  0.00  0.00    -0.014 C 
ATOM     76  O7  ASG d 221      23.447 -11.081  78.059  0.00  0.00    -0.274 OA
ATOM     77  C7  ASG d 221      24.245 -11.755  78.614  0.00  0.00     0.214 C 
ATOM     78  O6  ASG d 221      27.549  -5.374  81.261  0.00  0.00    -0.398 OA
ATOM     79  O1  ASG d 221      25.815 -10.224  82.557  0.00  0.00    -0.348 OA
ATOM     80  C5  ASG d 221      26.089  -7.236  80.258  0.00  0.00     0.088 C 
ATOM     81  C4  ASG d 221      24.741  -7.537  79.548  0.00  0.00     0.089 C 
ATOM     82  OSA ASG d 221      23.998  -5.853  82.330  0.00  0.00    -0.572 OA
ATOM     83  S   ASG d 221      23.203  -6.007  81.114  0.00  0.00     0.252 S 
ATOM     84  O5  ASG d 221      26.103  -8.032  81.504  0.00  0.00    -0.349 OA
ATOM     85  C8  ASG d 221      24.463 -13.205  78.148  0.00  0.00    -0.003 C 
ATOM     86  C6  ASG d 221      26.487  -5.720  80.383  0.00  0.00     0.043 C 
ATOM     87  N   ASG d 221      24.863 -11.309  79.863  0.00  0.00    -0.352 N 
ATOM     88  H   ASG d 221      23.935  -9.743  80.721  0.00  0.00     0.080 H 
ATOM     89  H   ASG d 221      26.891  -9.863  80.936  0.00  0.00     0.132 H 
ATOM     90  H   ASG d 221      24.188  -9.205  78.358  0.00  0.00     0.040 H 
ATOM     91  H   ASG d 221      25.907  -9.032  78.588  0.00  0.00     0.040 H 
ATOM     92  H   ASG d 221      27.686  -4.414  81.240  0.00  0.00     0.209 HD
ATOM     93  H   ASG d 221      26.900  -7.547  79.633  0.00  0.00     0.090 H 
ATOM     94  H   ASG d 221      24.530  -6.821  78.782  0.00  0.00     0.089 H 
ATOM     95  H   ASG d 221      23.946 -13.363  77.225  0.00  0.00     0.040 H 
ATOM     96  H   ASG d 221      24.085 -13.878  78.888  0.00  0.00     0.040 H 
ATOM     97  H   ASG d 221      25.508 -13.381  78.007  0.00  0.00     0.040 H 
ATOM     98  H   ASG d 221      26.762  -5.382  79.406  0.00  0.00     0.078 H 
ATOM     99  H   ASG d 221      25.625  -5.256  80.814  0.00  0.00     0.078 H 
ATOM    100  H   ASG d 221      25.275 -11.976  80.459  0.00  0.00     0.163 HD
ATOM    101  O5  BDP d 220      27.728 -12.793  84.049  0.00  0.00    -0.340 OA
ATOM    102  C5  BDP d 220      26.630 -12.164  83.418  0.00  0.00     0.152 C 
ATOM    103  C6  BDP d 220      26.186 -12.965  82.197  0.00  0.00     0.206 C 
ATOM    104  C1  BDP d 220      27.952 -12.263  85.337  0.00  0.00     0.160 C 
ATOM    105  C3  BDP d 220      27.372  -9.982  84.329  0.00  0.00     0.092 C 
ATOM    106  O2  BDP d 220      28.444 -10.222  86.480  0.00  0.00    -0.388 OA
ATOM    107  O6B BDP d 220      27.033 -13.202  81.302  0.00  0.00    -0.646 OA
ATOM    108  C2  BDP d 220      28.344 -10.795  85.195  0.00  0.00     0.110 C 
ATOM    109  O3  BDP d 220      27.961  -8.738  83.994  0.00  0.00    -0.390 OA
ATOM    110  O1  BDP d 220      29.003 -12.961  85.989  0.00  0.00    -0.348 OA
ATOM    111  O6A BDP d 220      24.990 -13.345  82.155  0.00  0.00    -0.646 OA
ATOM    112  C4  BDP d 220      27.009 -10.733  83.047  0.00  0.00     0.103 C 
ATOM    113  H   BDP d 220      25.801 -12.127  84.093  0.00  0.00     0.104 H 
ATOM    114  H   BDP d 220      27.060 -12.363  85.920  0.00  0.00     0.133 H 
ATOM    115  H   BDP d 220      26.476  -9.826  84.893  0.00  0.00     0.091 H 
ATOM    116  H   BDP d 220      29.060 -10.743  87.018  0.00  0.00     0.210 HD
ATOM    117  H   BDP d 220      29.286 -10.764  84.688  0.00  0.00     0.094 H 
ATOM    118  H   BDP d 220      28.772  -8.891  83.484  0.00  0.00     0.210 HD
ATOM    119  H   BDP d 220      27.827 -10.658  82.362  0.00  0.00     0.092 H 
ATOM    120  OSC ASG d 219      33.461 -14.869  86.616  0.00  0.00    -0.572 OA
ATOM    121  C5  ASG d 219      29.129 -16.432  87.243  0.00  0.00     0.090 C 
ATOM    122  C3  ASG d 219      28.574 -14.071  86.707  0.00  0.00     0.094 C 
ATOM    123  C6  ASG d 219      29.956 -17.716  86.895  0.00  0.00     0.043 C 
ATOM    124  C7  ASG d 219      28.022 -11.513  89.414  0.00  0.00     0.214 C 
ATOM    125  C4  ASG d 219      29.618 -15.158  86.500  0.00  0.00     0.114 C 
ATOM    126  S   ASG d 219      32.210 -15.052  85.882  0.00  0.00     0.252 S 
ATOM    127  C8  ASG d 219      27.039 -10.402  89.838  0.00  0.00    -0.003 C 
ATOM    128  O7  ASG d 219      29.112 -11.537  89.866  0.00  0.00    -0.274 OA
ATOM    129  O6  ASG d 219      29.728 -18.900  87.646  0.00  0.00    -0.398 OA
ATOM    130  OSB ASG d 219      32.227 -16.415  85.356  0.00  0.00    -0.572 OA
ATOM    131  O1  ASG d 219      28.142 -14.738  90.447  0.00  0.00    -0.348 OA
ATOM    132  O4  ASG d 219      30.931 -14.812  86.909  0.00  0.00    -0.246 OA
ATOM    133  OSA ASG d 219      32.068 -14.063  84.810  0.00  0.00    -0.572 OA
ATOM    134  O5  ASG d 219      29.145 -16.097  88.682  0.00  0.00    -0.349 OA
ATOM    135  N   ASG d 219      27.610 -12.556  88.479  0.00  0.00    -0.349 N 
ATOM    136  C2  ASG d 219      28.484 -13.706  88.179  0.00  0.00     0.087 C 
ATOM    137  C1  ASG d 219      28.205 -14.986  89.049  0.00  0.00     0.154 C 
ATOM    138  H   ASG d 219      28.142 -16.695  86.925  0.00  0.00     0.090 H 
ATOM    139  H   ASG d 219      27.611 -14.406  86.381  0.00  0.00     0.091 H 
ATOM    140  H   ASG d 219      30.990 -17.466  87.008  0.00  0.00     0.078 H 
ATOM    141  H   ASG d 219      29.635 -17.971  85.907  0.00  0.00     0.078 H 
ATOM    142  H   ASG d 219      29.705 -15.320  85.446  0.00  0.00     0.093 H 
ATOM    143  H   ASG d 219      26.107 -10.539  89.331  0.00  0.00     0.040 H 
ATOM    144  H   ASG d 219      27.449  -9.448  89.581  0.00  0.00     0.040 H 
ATOM    145  H   ASG d 219      26.881 -10.450  90.894  0.00  0.00     0.040 H 
ATOM    146  H   ASG d 219      29.995 -18.754  88.568  0.00  0.00     0.209 HD
ATOM    147  H   ASG d 219      26.731 -12.491  88.039  0.00  0.00     0.163 HD
ATOM    148  H   ASG d 219      29.445 -13.333  88.467  0.00  0.00     0.084 H 
ATOM    149  H   ASG d 219      27.214 -15.310  88.807  0.00  0.00     0.132 H 
ENDROOT
TORSDOF 38
ENDMDL
MODEL 46
REMARK VINA RESULT:      -6.3      4.259     16.116
REMARK  0 active torsions:
REMARK  status: ('A' for Active; 'I' for Inactive)
REMARK       I    between atoms: C6_2  and  C5_55 
REMARK       I    between atoms: O4_3  and  C4_83 
REMARK       I    between atoms: O4_3  and  S_75 
REMARK       I    between atoms: C6_4  and  C5_67 
REMARK       I    between atoms: O4_5  and  C4_61 
REMARK       I    between atoms: O4_5  and  S_71 
REMARK       I    between atoms: O3_6  and  C3_32 
REMARK       I    between atoms: C1_8  and  O1_30 
REMARK       I    between atoms: C3_12  and  O3_62 
REMARK       I    between atoms: C5_13  and  C6_25 
REMARK       I    between atoms: O1_14  and  C4_39 
REMARK       I    between atoms: O1_14  and  C1_23 
REMARK       I    between atoms: C5_15  and  C6_27 
REMARK       I    between atoms: C5_18  and  C6_44 
REMARK       I    between atoms: C3_19  and  O1_82 
REMARK       I    between atoms: C2_20  and  N_89 
REMARK       I    between atoms: C2_21  and  O2_80 
REMARK       I    between atoms: C1_24  and  O1_45 
REMARK       I    between atoms: C6_25  and  O6_48 
REMARK       I    between atoms: C6_27  and  O6_77 
REMARK       I    between atoms: C7_28  and  C8_35 
REMARK       I    between atoms: C7_28  and  N_70 
REMARK       I    between atoms: O1_30  and  C3_43 
REMARK       I    between atoms: C4_33  and  O4_53 
REMARK       I    between atoms: S_34  and  O4_53 
REMARK       I    between atoms: O2_40  and  C2_87 
REMARK       I    between atoms: C7_41  and  C8_81 
REMARK       I    between atoms: C7_41  and  N_89 
REMARK       I    between atoms: O6_42  and  C6_88 
REMARK       I    between atoms: O1_45  and  C4_90 
REMARK       I    between atoms: C7_46  and  C8_69 
REMARK       I    between atoms: C7_46  and  N_85 
REMARK       I    between atoms: C2_47  and  N_85 
REMARK       I    between atoms: O1_50  and  C4_73 
REMARK       I    between atoms: O1_50  and  C1_76 
REMARK       I    between atoms: C1_52  and  O1_82 
REMARK       I    between atoms: C3_54  and  O3_72 
REMARK       I    between atoms: C5_57  and  C6_88 
REMARK       I    between atoms: O1_59  and  C1_78 
REMARK       I    between atoms: O2_63  and  C2_68 
REMARK       I    between atoms: N_70  and  C2_74 
ROOT
ATOM      1  O6B BDP d 216      31.004 -16.007  85.191  0.00  0.00    -0.646 OA
ATOM      2  C6  BDP d 216      31.549 -15.117  84.503  0.00  0.00     0.206 C 
ATOM      3  C3  BDP d 216      29.460 -15.274  81.250  0.00  0.00     0.092 C 
ATOM      4  O6A BDP d 216      32.317 -14.250  84.971  0.00  0.00    -0.646 OA
ATOM      5  O5  BDP d 216      31.908 -16.189  82.392  0.00  0.00    -0.340 OA
ATOM      6  C4  BDP d 216      29.757 -15.126  82.741  0.00  0.00     0.103 C 
ATOM      7  O2  BDP d 216      30.166 -16.376  79.230  0.00  0.00    -0.388 OA
ATOM      8  C5  BDP d 216      31.264 -15.088  83.004  0.00  0.00     0.152 C 
ATOM      9  O1  BDP d 216      32.562 -17.192  80.401  0.00  0.00    -0.368 OA
ATOM     10  O3  BDP d 216      28.091 -15.568  81.064  0.00  0.00    -0.390 OA
ATOM     11  C1  BDP d 216      31.779 -16.171  80.986  0.00  0.00     0.156 C 
ATOM     12  C2  BDP d 216      30.313 -16.380  80.632  0.00  0.00     0.110 C 
ATOM     13  H   BDP d 216      29.699 -14.352  80.763  0.00  0.00     0.091 H 
ATOM     14  H   BDP d 216      29.378 -15.972  83.276  0.00  0.00     0.092 H 
ATOM     15  H   BDP d 216      29.232 -16.509  79.002  0.00  0.00     0.210 HD
ATOM     16  H   BDP d 216      31.643 -14.178  82.586  0.00  0.00     0.104 H 
ATOM     17  H   BDP d 216      33.495 -17.055  80.629  0.00  0.00     0.212 HD
ATOM     18  H   BDP d 216      27.877 -16.404  81.506  0.00  0.00     0.210 HD
ATOM     19  H   BDP d 216      32.121 -15.230  80.609  0.00  0.00     0.133 H 
ATOM     20  H   BDP d 216      29.986 -17.322  81.020  0.00  0.00     0.094 H 
ATOM     21  O4  ASG d 217      24.968 -13.011  84.526  0.00  0.00    -0.246 OA
ATOM     22  O7  ASG d 217      28.700 -10.473  84.135  0.00  0.00    -0.274 OA
ATOM     23  O1  ASG d 217      29.136 -13.972  83.185  0.00  0.00    -0.348 OA
ATOM     24  C5  ASG d 217      25.961 -15.243  84.757  0.00  0.00     0.090 C 
ATOM     25  C1  ASG d 217      28.162 -14.224  84.185  0.00  0.00     0.154 C 
ATOM     26  C6  ASG d 217      24.772 -16.142  84.256  0.00  0.00     0.043 C 
ATOM     27  OSA ASG d 217      23.197 -12.376  86.236  0.00  0.00    -0.572 OA
ATOM     28  C3  ASG d 217      26.790 -13.338  86.129  0.00  0.00     0.094 C 
ATOM     29  C7  ASG d 217      29.407 -10.991  84.927  0.00  0.00     0.214 C 
ATOM     30  C2  ASG d 217      27.823 -12.980  85.069  0.00  0.00     0.087 C 
ATOM     31  O5  ASG d 217      26.914 -14.883  83.685  0.00  0.00    -0.349 OA
ATOM     32  OSB ASG d 217      22.489 -13.269  84.120  0.00  0.00    -0.572 OA
ATOM     33  OSC ASG d 217      23.414 -11.057  84.273  0.00  0.00    -0.572 OA
ATOM     34  C8  ASG d 217      30.626 -10.226  85.473  0.00  0.00    -0.003 C 
ATOM     35  S   ASG d 217      23.459 -12.416  84.797  0.00  0.00     0.252 S 
ATOM     36  O6  ASG d 217      24.942 -17.553  84.278  0.00  0.00    -0.398 OA
ATOM     37  C4  ASG d 217      25.546 -13.912  85.455  0.00  0.00     0.114 C 
ATOM     38  N   ASG d 217      29.015 -12.256  85.540  0.00  0.00    -0.349 N 
ATOM     39  H   ASG d 217      26.420 -15.883  85.481  0.00  0.00     0.090 H 
ATOM     40  H   ASG d 217      28.649 -14.935  84.819  0.00  0.00     0.132 H 
ATOM     41  H   ASG d 217      24.567 -15.863  83.244  0.00  0.00     0.078 H 
ATOM     42  H   ASG d 217      23.986 -15.959  84.959  0.00  0.00     0.078 H 
ATOM     43  H   ASG d 217      27.258 -13.993  86.833  0.00  0.00     0.091 H 
ATOM     44  H   ASG d 217      27.347 -12.244  84.454  0.00  0.00     0.084 H 
ATOM     45  H   ASG d 217      30.765  -9.328  84.908  0.00  0.00     0.040 H 
ATOM     46  H   ASG d 217      31.498 -10.838  85.388  0.00  0.00     0.040 H 
ATOM     47  H   ASG d 217      30.461  -9.978  86.501  0.00  0.00     0.040 H 
ATOM     48  H   ASG d 217      25.646 -17.803  83.660  0.00  0.00     0.209 HD
ATOM     49  H   ASG d 217      24.793 -14.089  86.196  0.00  0.00     0.093 H 
ATOM     50  H   ASG d 217      29.553 -12.629  86.276  0.00  0.00     0.163 HD
ATOM     51  C6  BDP d 218      26.039 -13.518  91.203  0.00  0.00     0.206 C 
ATOM     52  O3  BDP d 218      26.559  -8.777  90.027  0.00  0.00    -0.390 OA
ATOM     53  C1  BDP d 218      26.741 -11.866  87.959  0.00  0.00     0.160 C 
ATOM     54  C2  BDP d 218      26.420 -10.417  88.313  0.00  0.00     0.110 C 
ATOM     55  O6A BDP d 218      26.823 -14.322  91.755  0.00  0.00    -0.646 OA
ATOM     56  O1  BDP d 218      26.275 -12.156  86.655  0.00  0.00    -0.348 OA
ATOM     57  C3  BDP d 218      26.927 -10.096  89.707  0.00  0.00     0.092 C 
ATOM     58  O5  BDP d 218      26.108 -12.693  88.917  0.00  0.00    -0.340 OA
ATOM     59  C5  BDP d 218      26.623 -12.499  90.225  0.00  0.00     0.152 C 
ATOM     60  C4  BDP d 218      26.328 -11.081  90.705  0.00  0.00     0.103 C 
ATOM     61  O2  BDP d 218      27.009  -9.530  87.388  0.00  0.00    -0.388 OA
ATOM     62  O6B BDP d 218      24.808 -13.489  91.423  0.00  0.00    -0.646 OA
ATOM     63  H   BDP d 218      26.949  -8.167  89.382  0.00  0.00     0.210 HD
ATOM     64  H   BDP d 218      27.797 -12.038  87.974  0.00  0.00     0.133 H 
ATOM     65  H   BDP d 218      25.358 -10.295  88.279  0.00  0.00     0.094 H 
ATOM     66  H   BDP d 218      27.993 -10.183  89.746  0.00  0.00     0.091 H 
ATOM     67  H   BDP d 218      27.682 -12.642  90.188  0.00  0.00     0.104 H 
ATOM     68  H   BDP d 218      25.297 -10.824  90.834  0.00  0.00     0.092 H 
ATOM     69  H   BDP d 218      27.974  -9.632  87.411  0.00  0.00     0.210 HD
ATOM     70  O4  ASG d 221      26.438 -18.763 102.625  0.00  0.00    -0.249 OA
ATOM     71  OSB ASG d 221      27.116 -21.049 101.726  0.00  0.00    -0.572 OA
ATOM     72  OSC ASG d 221      28.280 -20.214 103.638  0.00  0.00    -0.572 OA
ATOM     73  C2  ASG d 221      25.116 -16.369 102.156  0.00  0.00     0.062 C 
ATOM     74  C1  ASG d 221      26.365 -15.658 101.529  0.00  0.00     0.151 C 
ATOM     75  C3  ASG d 221      25.390 -16.801 103.581  0.00  0.00    -0.014 C 
ATOM     76  O7  ASG d 221      22.602 -16.946 103.433  0.00  0.00    -0.274 OA
ATOM     77  C7  ASG d 221      22.695 -15.914 102.861  0.00  0.00     0.214 C 
ATOM     78  O6  ASG d 221      30.313 -16.500 103.375  0.00  0.00    -0.398 OA
ATOM     79  O1  ASG d 221      26.251 -15.412 100.130  0.00  0.00    -0.348 OA
ATOM     80  C5  ASG d 221      27.754 -16.749 103.330  0.00  0.00     0.088 C 
ATOM     81  C4  ASG d 221      26.579 -17.730 103.587  0.00  0.00     0.089 C 
ATOM     82  OSA ASG d 221      28.658 -19.264 101.477  0.00  0.00    -0.572 OA
ATOM     83  S   ASG d 221      27.656 -19.852 102.365  0.00  0.00     0.252 S 
ATOM     84  O5  ASG d 221      27.655 -16.322 101.917  0.00  0.00    -0.349 OA
ATOM     85  C8  ASG d 221      21.488 -14.961 102.826  0.00  0.00    -0.003 C 
ATOM     86  C6  ASG d 221      29.172 -17.213 103.830  0.00  0.00     0.043 C 
ATOM     87  N   ASG d 221      23.849 -15.632 102.008  0.00  0.00    -0.352 N 
ATOM     88  H   ASG d 221      24.961 -17.253 101.574  0.00  0.00     0.080 H 
ATOM     89  H   ASG d 221      26.389 -14.681 101.964  0.00  0.00     0.132 H 
ATOM     90  H   ASG d 221      24.534 -17.311 103.972  0.00  0.00     0.040 H 
ATOM     91  H   ASG d 221      25.595 -15.944 104.188  0.00  0.00     0.040 H 
ATOM     92  H   ASG d 221      31.113 -16.891 103.758  0.00  0.00     0.209 HD
ATOM     93  H   ASG d 221      27.651 -15.893 103.964  0.00  0.00     0.090 H 
ATOM     94  H   ASG d 221      26.717 -18.284 104.491  0.00  0.00     0.089 H 
ATOM     95  H   ASG d 221      20.738 -15.311 103.504  0.00  0.00     0.040 H 
ATOM     96  H   ASG d 221      21.087 -14.929 101.835  0.00  0.00     0.040 H 
ATOM     97  H   ASG d 221      21.801 -13.979 103.115  0.00  0.00     0.040 H 
ATOM     98  H   ASG d 221      29.166 -17.154 104.898  0.00  0.00     0.078 H 
ATOM     99  H   ASG d 221      29.289 -18.192 103.416  0.00  0.00     0.078 H 
ATOM    100  H   ASG d 221      23.776 -14.933 101.318  0.00  0.00     0.163 HD
ATOM    101  O5  BDP d 220      25.800 -12.437  98.278  0.00  0.00    -0.340 OA
ATOM    102  C5  BDP d 220      25.498 -13.698  98.840  0.00  0.00     0.152 C 
ATOM    103  C6  BDP d 220      24.163 -13.645  99.580  0.00  0.00     0.206 C 
ATOM    104  C1  BDP d 220      26.846 -12.533  97.335  0.00  0.00     0.160 C 
ATOM    105  C3  BDP d 220      27.916 -14.227  98.928  0.00  0.00     0.092 C 
ATOM    106  O2  BDP d 220      29.130 -13.201  97.109  0.00  0.00    -0.388 OA
ATOM    107  O6B BDP d 220      24.025 -12.797 100.494  0.00  0.00    -0.646 OA
ATOM    108  C2  BDP d 220      28.113 -12.977  98.061  0.00  0.00     0.110 C 
ATOM    109  O3  BDP d 220      29.027 -14.383  99.794  0.00  0.00    -0.390 OA
ATOM    110  O1  BDP d 220      27.081 -11.275  96.720  0.00  0.00    -0.348 OA
ATOM    111  O6A BDP d 220      23.273 -14.459  99.232  0.00  0.00    -0.646 OA
ATOM    112  C4  BDP d 220      26.636 -14.132  99.759  0.00  0.00     0.103 C 
ATOM    113  H   BDP d 220      25.400 -14.424  98.061  0.00  0.00     0.104 H 
ATOM    114  H   BDP d 220      26.574 -13.239  96.578  0.00  0.00     0.133 H 
ATOM    115  H   BDP d 220      27.834 -15.073  98.278  0.00  0.00     0.091 H 
ATOM    116  H   BDP d 220      29.245 -12.405  96.567  0.00  0.00     0.210 HD
ATOM    117  H   BDP d 220      28.386 -12.190  98.734  0.00  0.00     0.094 H 
ATOM    118  H   BDP d 220      29.093 -13.612 100.378  0.00  0.00     0.210 HD
ATOM    119  H   BDP d 220      26.810 -13.474 100.584  0.00  0.00     0.092 H 
ATOM    120  OSC ASG d 219      28.021  -6.486  96.428  0.00  0.00    -0.572 OA
ATOM    121  C5  ASG d 219      24.970  -9.338  94.390  0.00  0.00     0.090 C 
ATOM    122  C3  ASG d 219      26.307 -11.056  95.586  0.00  0.00     0.094 C 
ATOM    123  C6  ASG d 219      24.235  -7.955  94.435  0.00  0.00     0.043 C 
ATOM    124  C7  ASG d 219      29.126 -12.890  93.891  0.00  0.00     0.214 C 
ATOM    125  C4  ASG d 219      25.888  -9.593  95.617  0.00  0.00     0.114 C 
ATOM    126  S   ASG d 219      26.974  -7.447  96.769  0.00  0.00     0.252 S 
ATOM    127  C8  ASG d 219      29.682 -14.314  93.684  0.00  0.00    -0.003 C 
ATOM    128  O7  ASG d 219      29.820 -11.955  93.702  0.00  0.00    -0.274 OA
ATOM    129  O6  ASG d 219      23.516  -7.526  93.287  0.00  0.00    -0.398 OA
ATOM    130  OSB ASG d 219      25.713  -6.709  96.776  0.00  0.00    -0.572 OA
ATOM    131  O1  ASG d 219      27.112 -11.087  91.847  0.00  0.00    -0.348 OA
ATOM    132  O4  ASG d 219      26.959  -8.664  95.643  0.00  0.00    -0.246 OA
ATOM    133  OSA ASG d 219      27.232  -8.085  98.062  0.00  0.00    -0.572 OA
ATOM    134  O5  ASG d 219      25.825  -9.509  93.196  0.00  0.00    -0.349 OA
ATOM    135  N   ASG d 219      27.737 -12.684  94.293  0.00  0.00    -0.349 N 
ATOM    136  C2  ASG d 219      27.149 -11.332  94.350  0.00  0.00     0.087 C 
ATOM    137  C1  ASG d 219      26.379 -10.896  93.050  0.00  0.00     0.154 C 
ATOM    138  H   ASG d 219      24.159 -10.035  94.379  0.00  0.00     0.090 H 
ATOM    139  H   ASG d 219      25.449 -11.694  95.562  0.00  0.00     0.091 H 
ATOM    140  H   ASG d 219      24.976  -7.210  94.638  0.00  0.00     0.078 H 
ATOM    141  H   ASG d 219      23.479  -8.087  95.180  0.00  0.00     0.078 H 
ATOM    142  H   ASG d 219      25.375  -9.429  96.541  0.00  0.00     0.093 H 
ATOM    143  H   ASG d 219      28.917 -15.030  93.900  0.00  0.00     0.040 H 
ATOM    144  H   ASG d 219      30.513 -14.470  94.338  0.00  0.00     0.040 H 
ATOM    145  H   ASG d 219      30.000 -14.428  92.669  0.00  0.00     0.040 H 
ATOM    146  H   ASG d 219      24.135  -7.381  92.554  0.00  0.00     0.209 HD
ATOM    147  H   ASG d 219      27.182 -13.462  94.530  0.00  0.00     0.163 HD
ATOM    148  H   ASG d 219      28.020 -10.715  94.422  0.00  0.00     0.084 H 
ATOM    149  H   ASG d 219      25.550 -11.564  92.948  0.00  0.00     0.132 H 
ENDROOT
TORSDOF 38
ENDMDL
MODEL 47
REMARK VINA RESULT:      -6.3      4.037     16.491
REMARK  0 active torsions:
REMARK  status: ('A' for Active; 'I' for Inactive)
REMARK       I    between atoms: C6_2  and  C5_55 
REMARK       I    between atoms: O4_3  and  C4_83 
REMARK       I    between atoms: O4_3  and  S_75 
REMARK       I    between atoms: C6_4  and  C5_67 
REMARK       I    between atoms: O4_5  and  C4_61 
REMARK       I    between atoms: O4_5  and  S_71 
REMARK       I    between atoms: O3_6  and  C3_32 
REMARK       I    between atoms: C1_8  and  O1_30 
REMARK       I    between atoms: C3_12  and  O3_62 
REMARK       I    between atoms: C5_13  and  C6_25 
REMARK       I    between atoms: O1_14  and  C4_39 
REMARK       I    between atoms: O1_14  and  C1_23 
REMARK       I    between atoms: C5_15  and  C6_27 
REMARK       I    between atoms: C5_18  and  C6_44 
REMARK       I    between atoms: C3_19  and  O1_82 
REMARK       I    between atoms: C2_20  and  N_89 
REMARK       I    between atoms: C2_21  and  O2_80 
REMARK       I    between atoms: C1_24  and  O1_45 
REMARK       I    between atoms: C6_25  and  O6_48 
REMARK       I    between atoms: C6_27  and  O6_77 
REMARK       I    between atoms: C7_28  and  C8_35 
REMARK       I    between atoms: C7_28  and  N_70 
REMARK       I    between atoms: O1_30  and  C3_43 
REMARK       I    between atoms: C4_33  and  O4_53 
REMARK       I    between atoms: S_34  and  O4_53 
REMARK       I    between atoms: O2_40  and  C2_87 
REMARK       I    between atoms: C7_41  and  C8_81 
REMARK       I    between atoms: C7_41  and  N_89 
REMARK       I    between atoms: O6_42  and  C6_88 
REMARK       I    between atoms: O1_45  and  C4_90 
REMARK       I    between atoms: C7_46  and  C8_69 
REMARK       I    between atoms: C7_46  and  N_85 
REMARK       I    between atoms: C2_47  and  N_85 
REMARK       I    between atoms: O1_50  and  C4_73 
REMARK       I    between atoms: O1_50  and  C1_76 
REMARK       I    between atoms: C1_52  and  O1_82 
REMARK       I    between atoms: C3_54  and  O3_72 
REMARK       I    between atoms: C5_57  and  C6_88 
REMARK       I    between atoms: O1_59  and  C1_78 
REMARK       I    between atoms: O2_63  and  C2_68 
REMARK       I    between atoms: N_70  and  C2_74 
ROOT
ATOM      1  O6B BDP d 216      26.767 -22.303  82.502  0.00  0.00    -0.646 OA
ATOM      2  C6  BDP d 216      27.738 -22.143  81.731  0.00  0.00     0.206 C 
ATOM      3  C3  BDP d 216      25.976 -20.882  78.526  0.00  0.00     0.092 C 
ATOM      4  O6A BDP d 216      28.927 -22.101  82.112  0.00  0.00    -0.646 OA
ATOM      5  O5  BDP d 216      27.040 -23.243  79.722  0.00  0.00    -0.340 OA
ATOM      6  C4  BDP d 216      26.393 -20.921  79.995  0.00  0.00     0.103 C 
ATOM      7  O2  BDP d 216      25.496 -22.252  76.607  0.00  0.00    -0.388 OA
ATOM      8  C5  BDP d 216      27.458 -21.993  80.239  0.00  0.00     0.152 C 
ATOM      9  O1  BDP d 216      26.600 -24.507  77.823  0.00  0.00    -0.368 OA
ATOM     10  O3  BDP d 216      24.823 -20.079  78.380  0.00  0.00    -0.390 OA
ATOM     11  C1  BDP d 216      26.863 -23.211  78.322  0.00  0.00     0.156 C 
ATOM     12  C2  BDP d 216      25.694 -22.288  78.002  0.00  0.00     0.110 C 
ATOM     13  H   BDP d 216      26.779 -20.464  77.956  0.00  0.00     0.091 H 
ATOM     14  H   BDP d 216      25.555 -21.182  80.607  0.00  0.00     0.092 H 
ATOM     15  H   BDP d 216      24.751 -21.665  76.401  0.00  0.00     0.210 HD
ATOM     16  H   BDP d 216      28.351 -21.683  79.738  0.00  0.00     0.104 H 
ATOM     17  H   BDP d 216      27.347 -25.091  78.029  0.00  0.00     0.212 HD
ATOM     18  H   BDP d 216      24.096 -20.460  78.898  0.00  0.00     0.210 HD
ATOM     19  H   BDP d 216      27.758 -22.850  77.858  0.00  0.00     0.133 H 
ATOM     20  H   BDP d 216      24.810 -22.660  78.477  0.00  0.00     0.094 H 
ATOM     21  O4  ASG d 217      24.844 -15.869  81.629  0.00  0.00    -0.246 OA
ATOM     22  O7  ASG d 217      29.198 -16.936  80.975  0.00  0.00    -0.274 OA
ATOM     23  O1  ASG d 217      26.853 -19.663  80.339  0.00  0.00    -0.348 OA
ATOM     24  C5  ASG d 217      23.892 -18.091  82.049  0.00  0.00     0.090 C 
ATOM     25  C1  ASG d 217      26.085 -19.060  81.367  0.00  0.00     0.154 C 
ATOM     26  C6  ASG d 217      22.393 -17.846  81.643  0.00  0.00     0.043 C 
ATOM     27  OSA ASG d 217      24.240 -14.044  83.291  0.00  0.00    -0.572 OA
ATOM     28  C3  ASG d 217      25.950 -17.347  83.237  0.00  0.00     0.094 C 
ATOM     29  C7  ASG d 217      29.352 -17.764  81.804  0.00  0.00     0.214 C 
ATOM     30  C2  ASG d 217      26.833 -17.925  82.139  0.00  0.00     0.087 C 
ATOM     31  O5  ASG d 217      24.722 -18.610  80.940  0.00  0.00    -0.349 OA
ATOM     32  OSB ASG d 217      22.952 -14.236  81.272  0.00  0.00    -0.572 OA
ATOM     33  OSC ASG d 217      25.212 -13.422  81.216  0.00  0.00    -0.572 OA
ATOM     34  C8  ASG d 217      30.777 -18.119  82.267  0.00  0.00    -0.003 C 
ATOM     35  S   ASG d 217      24.282 -14.341  81.859  0.00  0.00     0.252 S 
ATOM     36  O6  ASG d 217      21.474 -18.919  81.791  0.00  0.00    -0.398 OA
ATOM     37  C4  ASG d 217      24.640 -16.852  82.630  0.00  0.00     0.114 C 
ATOM     38  N   ASG d 217      28.204 -18.293  82.532  0.00  0.00    -0.349 N 
ATOM     39  H   ASG d 217      23.785 -18.822  82.824  0.00  0.00     0.090 H 
ATOM     40  H   ASG d 217      25.937 -19.864  82.058  0.00  0.00     0.132 H 
ATOM     41  H   ASG d 217      22.386 -17.561  80.612  0.00  0.00     0.078 H 
ATOM     42  H   ASG d 217      22.049 -17.105  82.334  0.00  0.00     0.078 H 
ATOM     43  H   ASG d 217      25.837 -18.096  83.993  0.00  0.00     0.091 H 
ATOM     44  H   ASG d 217      27.008 -17.113  81.465  0.00  0.00     0.084 H 
ATOM     45  H   ASG d 217      31.489 -17.648  81.622  0.00  0.00     0.040 H 
ATOM     46  H   ASG d 217      30.910 -19.179  82.229  0.00  0.00     0.040 H 
ATOM     47  H   ASG d 217      30.922 -17.775  83.270  0.00  0.00     0.040 H 
ATOM     48  H   ASG d 217      21.720 -19.640  81.190  0.00  0.00     0.209 HD
ATOM     49  H   ASG d 217      24.056 -16.376  83.390  0.00  0.00     0.093 H 
ATOM     50  H   ASG d 217      28.346 -18.902  83.293  0.00  0.00     0.163 HD
ATOM     51  C6  BDP d 218      25.681 -16.643  88.313  0.00  0.00     0.206 C 
ATOM     52  O3  BDP d 218      29.427 -13.900  86.712  0.00  0.00    -0.390 OA
ATOM     53  C1  BDP d 218      27.131 -16.223  84.928  0.00  0.00     0.160 C 
ATOM     54  C2  BDP d 218      28.005 -14.992  85.153  0.00  0.00     0.110 C 
ATOM     55  O6A BDP d 218      25.660 -17.733  88.928  0.00  0.00    -0.646 OA
ATOM     56  O1  BDP d 218      26.509 -16.144  83.660  0.00  0.00    -0.348 OA
ATOM     57  C3  BDP d 218      28.684 -15.076  86.508  0.00  0.00     0.092 C 
ATOM     58  O5  BDP d 218      26.167 -16.261  85.962  0.00  0.00    -0.340 OA
ATOM     59  C5  BDP d 218      26.752 -16.441  87.243  0.00  0.00     0.152 C 
ATOM     60  C4  BDP d 218      27.629 -15.243  87.596  0.00  0.00     0.103 C 
ATOM     61  O2  BDP d 218      28.986 -14.879  84.146  0.00  0.00    -0.388 OA
ATOM     62  O6B BDP d 218      24.887 -15.704  88.542  0.00  0.00    -0.646 OA
ATOM     63  H   BDP d 218      30.092 -13.812  86.011  0.00  0.00     0.210 HD
ATOM     64  H   BDP d 218      27.719 -17.117  84.947  0.00  0.00     0.133 H 
ATOM     65  H   BDP d 218      27.374 -14.128  85.119  0.00  0.00     0.094 H 
ATOM     66  H   BDP d 218      29.343 -15.919  86.544  0.00  0.00     0.091 H 
ATOM     67  H   BDP d 218      27.359 -17.320  87.208  0.00  0.00     0.104 H 
ATOM     68  H   BDP d 218      27.132 -14.303  87.712  0.00  0.00     0.092 H 
ATOM     69  H   BDP d 218      29.564 -15.659  84.169  0.00  0.00     0.210 HD
ATOM     70  O4  ASG d 221      22.930 -19.855 100.156  0.00  0.00    -0.249 OA
ATOM     71  OSB ASG d 221      21.644 -21.941  99.460  0.00  0.00    -0.572 OA
ATOM     72  OSC ASG d 221      23.182 -22.136 101.278  0.00  0.00    -0.572 OA
ATOM     73  C2  ASG d 221      23.762 -17.294  99.487  0.00  0.00     0.062 C 
ATOM     74  C1  ASG d 221      25.081 -17.770  98.786  0.00  0.00     0.151 C 
ATOM     75  C3  ASG d 221      23.733 -17.710 100.942  0.00  0.00    -0.014 C 
ATOM     76  O7  ASG d 221      21.735 -15.758 100.834  0.00  0.00    -0.274 OA
ATOM     77  C7  ASG d 221      22.513 -15.163 100.171  0.00  0.00     0.214 C 
ATOM     78  O6  ASG d 221      27.262 -21.150 100.663  0.00  0.00    -0.398 OA
ATOM     79  O1  ASG d 221      25.083 -17.595  97.372  0.00  0.00    -0.348 OA
ATOM     80  C5  ASG d 221      25.349 -19.433 100.665  0.00  0.00     0.088 C 
ATOM     81  C4  ASG d 221      23.854 -19.212 101.020  0.00  0.00     0.089 C 
ATOM     82  OSA ASG d 221      23.977 -21.891  99.037  0.00  0.00    -0.572 OA
ATOM     83  S   ASG d 221      22.934 -21.500  99.983  0.00  0.00     0.252 S 
ATOM     84  O5  ASG d 221      25.493 -19.148  99.221  0.00  0.00    -0.349 OA
ATOM     85  C8  ASG d 221      22.396 -13.633 100.063  0.00  0.00    -0.003 C 
ATOM     86  C6  ASG d 221      26.001 -20.764 101.190  0.00  0.00     0.043 C 
ATOM     87  N   ASG d 221      23.437 -15.870  99.285  0.00  0.00    -0.352 N 
ATOM     88  H   ASG d 221      22.966 -17.805  98.988  0.00  0.00     0.080 H 
ATOM     89  H   ASG d 221      25.846 -17.107  99.132  0.00  0.00     0.132 H 
ATOM     90  H   ASG d 221      22.810 -17.400 101.386  0.00  0.00     0.040 H 
ATOM     91  H   ASG d 221      24.545 -17.252 101.468  0.00  0.00     0.040 H 
ATOM     92  H   ASG d 221      27.542 -21.984 101.072  0.00  0.00     0.209 HD
ATOM     93  H   ASG d 221      25.954 -18.747 101.220  0.00  0.00     0.090 H 
ATOM     94  H   ASG d 221      23.607 -19.638 101.969  0.00  0.00     0.089 H 
ATOM     95  H   ASG d 221      21.682 -13.279 100.776  0.00  0.00     0.040 H 
ATOM     96  H   ASG d 221      22.076 -13.369  99.076  0.00  0.00     0.040 H 
ATOM     97  H   ASG d 221      23.349 -13.188 100.259  0.00  0.00     0.040 H 
ATOM     98  H   ASG d 221      26.119 -20.663 102.249  0.00  0.00     0.078 H 
ATOM     99  H   ASG d 221      25.331 -21.532 100.865  0.00  0.00     0.078 H 
ATOM    100  H   ASG d 221      23.851 -15.384  98.536  0.00  0.00     0.163 HD
ATOM    101  O5  BDP d 220      26.829 -15.360  95.265  0.00  0.00    -0.340 OA
ATOM    102  C5  BDP d 220      25.739 -15.955  95.941  0.00  0.00     0.152 C 
ATOM    103  C6  BDP d 220      24.932 -14.895  96.686  0.00  0.00     0.206 C 
ATOM    104  C1  BDP d 220      27.395 -16.247  94.324  0.00  0.00     0.160 C 
ATOM    105  C3  BDP d 220      26.990 -18.091  96.053  0.00  0.00     0.092 C 
ATOM    106  O2  BDP d 220      28.430 -18.393  94.137  0.00  0.00    -0.388 OA
ATOM    107  O6B BDP d 220      25.527 -14.174  97.521  0.00  0.00    -0.646 OA
ATOM    108  C2  BDP d 220      27.977 -17.441  95.075  0.00  0.00     0.110 C 
ATOM    109  O3  BDP d 220      27.687 -18.970  96.918  0.00  0.00    -0.390 OA
ATOM    110  O1  BDP d 220      28.433 -15.606  93.596  0.00  0.00    -0.348 OA
ATOM    111  O6A BDP d 220      23.708 -14.805  96.421  0.00  0.00    -0.646 OA
ATOM    112  C4  BDP d 220      26.256 -17.038  96.884  0.00  0.00     0.103 C 
ATOM    113  H   BDP d 220      25.084 -16.414  95.231  0.00  0.00     0.104 H 
ATOM    114  H   BDP d 220      26.638 -16.563  93.637  0.00  0.00     0.133 H 
ATOM    115  H   BDP d 220      26.266 -18.634  95.482  0.00  0.00     0.091 H 
ATOM    116  H   BDP d 220      29.053 -17.972  93.525  0.00  0.00     0.210 HD
ATOM    117  H   BDP d 220      28.788 -17.077  95.672  0.00  0.00     0.094 H 
ATOM    118  H   BDP d 220      28.341 -18.468  97.430  0.00  0.00     0.210 HD
ATOM    119  H   BDP d 220      26.917 -16.680  97.645  0.00  0.00     0.092 H 
ATOM    120  OSC ASG d 219      32.562 -13.094  92.866  0.00  0.00    -0.572 OA
ATOM    121  C5  ASG d 219      28.261 -12.871  91.122  0.00  0.00     0.090 C 
ATOM    122  C3  ASG d 219      27.989 -14.949  92.454  0.00  0.00     0.094 C 
ATOM    123  C6  ASG d 219      28.783 -11.396  91.050  0.00  0.00     0.043 C 
ATOM    124  C7  ASG d 219      28.421 -18.354  90.904  0.00  0.00     0.214 C 
ATOM    125  C4  ASG d 219      28.782 -13.655  92.358  0.00  0.00     0.114 C 
ATOM    126  S   ASG d 219      31.175 -12.950  93.302  0.00  0.00     0.252 S 
ATOM    127  C8  ASG d 219      27.736 -19.733  90.820  0.00  0.00    -0.003 C 
ATOM    128  O7  ASG d 219      29.562 -18.247  90.625  0.00  0.00    -0.274 OA
ATOM    129  O6  ASG d 219      28.530 -10.638  89.875  0.00  0.00    -0.398 OA
ATOM    130  OSB ASG d 219      30.866 -11.522  93.255  0.00  0.00    -0.572 OA
ATOM    131  O1  ASG d 219      28.237 -15.765  88.726  0.00  0.00    -0.348 OA
ATOM    132  O4  ASG d 219      30.189 -13.818  92.291  0.00  0.00    -0.246 OA
ATOM    133  OSA ASG d 219      30.974 -13.500  94.645  0.00  0.00    -0.572 OA
ATOM    134  O5  ASG d 219      28.625 -13.681  89.941  0.00  0.00    -0.349 OA
ATOM    135  N   ASG d 219      27.664 -17.169  91.299  0.00  0.00    -0.349 N 
ATOM    136  C2  ASG d 219      28.264 -15.823  91.241  0.00  0.00     0.087 C 
ATOM    137  C1  ASG d 219      27.970 -15.030  89.914  0.00  0.00     0.154 C 
ATOM    138  H   ASG d 219      27.201 -12.742  91.181  0.00  0.00     0.090 H 
ATOM    139  H   ASG d 219      26.940 -14.747  92.496  0.00  0.00     0.091 H 
ATOM    140  H   ASG d 219      29.845 -11.430  91.178  0.00  0.00     0.078 H 
ATOM    141  H   ASG d 219      28.230 -10.887  91.811  0.00  0.00     0.078 H 
ATOM    142  H   ASG d 219      28.624 -13.115  93.268  0.00  0.00     0.093 H 
ATOM    143  H   ASG d 219      26.709 -19.639  91.107  0.00  0.00     0.040 H 
ATOM    144  H   ASG d 219      28.230 -20.417  91.478  0.00  0.00     0.040 H 
ATOM    145  H   ASG d 219      27.793 -20.100  89.817  0.00  0.00     0.040 H 
ATOM    146  H   ASG d 219      29.001 -11.036  89.126  0.00  0.00     0.209 HD
ATOM    147  H   ASG d 219      26.736 -17.270  91.611  0.00  0.00     0.163 HD
ATOM    148  H   ASG d 219      29.310 -16.046  91.249  0.00  0.00     0.084 H 
ATOM    149  H   ASG d 219      26.912 -14.874  89.880  0.00  0.00     0.132 H 
ENDROOT
TORSDOF 38
ENDMDL
MODEL 48
REMARK VINA RESULT:      -6.3      4.451     16.463
REMARK  0 active torsions:
REMARK  status: ('A' for Active; 'I' for Inactive)
REMARK       I    between atoms: C6_2  and  C5_55 
REMARK       I    between atoms: O4_3  and  C4_83 
REMARK       I    between atoms: O4_3  and  S_75 
REMARK       I    between atoms: C6_4  and  C5_67 
REMARK       I    between atoms: O4_5  and  C4_61 
REMARK       I    between atoms: O4_5  and  S_71 
REMARK       I    between atoms: O3_6  and  C3_32 
REMARK       I    between atoms: C1_8  and  O1_30 
REMARK       I    between atoms: C3_12  and  O3_62 
REMARK       I    between atoms: C5_13  and  C6_25 
REMARK       I    between atoms: O1_14  and  C4_39 
REMARK       I    between atoms: O1_14  and  C1_23 
REMARK       I    between atoms: C5_15  and  C6_27 
REMARK       I    between atoms: C5_18  and  C6_44 
REMARK       I    between atoms: C3_19  and  O1_82 
REMARK       I    between atoms: C2_20  and  N_89 
REMARK       I    between atoms: C2_21  and  O2_80 
REMARK       I    between atoms: C1_24  and  O1_45 
REMARK       I    between atoms: C6_25  and  O6_48 
REMARK       I    between atoms: C6_27  and  O6_77 
REMARK       I    between atoms: C7_28  and  C8_35 
REMARK       I    between atoms: C7_28  and  N_70 
REMARK       I    between atoms: O1_30  and  C3_43 
REMARK       I    between atoms: C4_33  and  O4_53 
REMARK       I    between atoms: S_34  and  O4_53 
REMARK       I    between atoms: O2_40  and  C2_87 
REMARK       I    between atoms: C7_41  and  C8_81 
REMARK       I    between atoms: C7_41  and  N_89 
REMARK       I    between atoms: O6_42  and  C6_88 
REMARK       I    between atoms: O1_45  and  C4_90 
REMARK       I    between atoms: C7_46  and  C8_69 
REMARK       I    between atoms: C7_46  and  N_85 
REMARK       I    between atoms: C2_47  and  N_85 
REMARK       I    between atoms: O1_50  and  C4_73 
REMARK       I    between atoms: O1_50  and  C1_76 
REMARK       I    between atoms: C1_52  and  O1_82 
REMARK       I    between atoms: C3_54  and  O3_72 
REMARK       I    between atoms: C5_57  and  C6_88 
REMARK       I    between atoms: O1_59  and  C1_78 
REMARK       I    between atoms: O2_63  and  C2_68 
REMARK       I    between atoms: N_70  and  C2_74 
ROOT
ATOM      1  O6B BDP d 216      31.197 -16.817  82.223  0.00  0.00    -0.646 OA
ATOM      2  C6  BDP d 216      31.764 -16.062  81.405  0.00  0.00     0.206 C 
ATOM      3  C3  BDP d 216      29.756 -16.781  78.177  0.00  0.00     0.092 C 
ATOM      4  O6A BDP d 216      32.526 -15.128  81.734  0.00  0.00    -0.646 OA
ATOM      5  O5  BDP d 216      32.170 -17.487  79.523  0.00  0.00    -0.340 OA
ATOM      6  C4  BDP d 216      30.017 -16.376  79.626  0.00  0.00     0.103 C 
ATOM      7  O2  BDP d 216      30.505 -18.220  76.399  0.00  0.00    -0.388 OA
ATOM      8  C5  BDP d 216      31.517 -16.295  79.917  0.00  0.00     0.152 C 
ATOM      9  O1  BDP d 216      32.867 -18.824  77.755  0.00  0.00    -0.368 OA
ATOM     10  O3  BDP d 216      28.390 -17.100  78.010  0.00  0.00    -0.390 OA
ATOM     11  C1  BDP d 216      32.075 -17.715  78.133  0.00  0.00     0.156 C 
ATOM     12  C2  BDP d 216      30.617 -17.980  77.783  0.00  0.00     0.110 C 
ATOM     13  H   BDP d 216      30.013 -15.958  77.543  0.00  0.00     0.091 H 
ATOM     14  H   BDP d 216      29.619 -17.114  80.291  0.00  0.00     0.092 H 
ATOM     15  H   BDP d 216      29.577 -18.390  76.174  0.00  0.00     0.210 HD
ATOM     16  H   BDP d 216      31.912 -15.473  79.357  0.00  0.00     0.104 H 
ATOM     17  H   BDP d 216      33.795 -18.650  77.980  0.00  0.00     0.212 HD
ATOM     18  H   BDP d 216      28.160 -17.846  78.586  0.00  0.00     0.210 HD
ATOM     19  H   BDP d 216      32.433 -16.854  77.607  0.00  0.00     0.133 H 
ATOM     20  H   BDP d 216      30.275 -18.838  78.322  0.00  0.00     0.094 H 
ATOM     21  O4  ASG d 217      25.198 -13.972  80.891  0.00  0.00    -0.246 OA
ATOM     22  O7  ASG d 217      28.955 -11.548  80.159  0.00  0.00    -0.274 OA
ATOM     23  O1  ASG d 217      29.392 -15.161  79.846  0.00  0.00    -0.348 OA
ATOM     24  C5  ASG d 217      26.171 -16.132  81.533  0.00  0.00     0.090 C 
ATOM     25  C1  ASG d 217      28.392 -15.231  80.849  0.00  0.00     0.154 C 
ATOM     26  C6  ASG d 217      24.989 -17.102  81.167  0.00  0.00     0.043 C 
ATOM     27  OSA ASG d 217      23.390 -13.045  82.418  0.00  0.00    -0.572 OA
ATOM     28  C3  ASG d 217      26.977 -14.017  82.573  0.00  0.00     0.094 C 
ATOM     29  C7  ASG d 217      29.638 -11.922  81.047  0.00  0.00     0.214 C 
ATOM     30  C2  ASG d 217      28.039 -13.852  81.493  0.00  0.00     0.087 C 
ATOM     31  O5  ASG d 217      27.153 -15.966  80.440  0.00  0.00    -0.349 OA
ATOM     32  OSB ASG d 217      22.729 -14.293  80.473  0.00  0.00    -0.572 OA
ATOM     33  OSC ASG d 217      23.664 -12.090  80.261  0.00  0.00    -0.572 OA
ATOM     34  C8  ASG d 217      30.848 -11.075  81.482  0.00  0.00    -0.003 C 
ATOM     35  S   ASG d 217      23.687 -13.337  81.015  0.00  0.00     0.252 S 
ATOM     36  O6  ASG d 217      25.150 -18.487  81.440  0.00  0.00    -0.398 OA
ATOM     37  C4  ASG d 217      25.747 -14.698  81.978  0.00  0.00     0.114 C 
ATOM     38  N   ASG d 217      29.223 -13.059  81.862  0.00  0.00    -0.349 N 
ATOM     39  H   ASG d 217      26.608 -16.636  82.370  0.00  0.00     0.090 H 
ATOM     40  H   ASG d 217      28.859 -15.822  81.610  0.00  0.00     0.132 H 
ATOM     41  H   ASG d 217      24.811 -17.004  80.116  0.00  0.00     0.078 H 
ATOM     42  H   ASG d 217      24.187 -16.797  81.807  0.00  0.00     0.078 H 
ATOM     43  H   ASG d 217      27.424 -14.540  83.393  0.00  0.00     0.091 H 
ATOM     44  H   ASG d 217      27.583 -13.234  80.747  0.00  0.00     0.084 H 
ATOM     45  H   ASG d 217      31.007 -10.290  80.773  0.00  0.00     0.040 H 
ATOM     46  H   ASG d 217      31.719 -11.694  81.528  0.00  0.00     0.040 H 
ATOM     47  H   ASG d 217      30.659 -10.651  82.447  0.00  0.00     0.040 H 
ATOM     48  H   ASG d 217      25.868 -18.843  80.893  0.00  0.00     0.209 HD
ATOM     49  H   ASG d 217      24.975 -14.742  82.719  0.00  0.00     0.093 H 
ATOM     50  H   ASG d 217      29.741 -13.299  82.664  0.00  0.00     0.163 HD
ATOM     51  C6  BDP d 218      26.100 -13.307  87.579  0.00  0.00     0.206 C 
ATOM     52  O3  BDP d 218      26.678  -8.845  85.608  0.00  0.00    -0.390 OA
ATOM     53  C1  BDP d 218      26.893 -12.249  84.116  0.00  0.00     0.160 C 
ATOM     54  C2  BDP d 218      26.572 -10.759  84.203  0.00  0.00     0.110 C 
ATOM     55  O6A BDP d 218      26.864 -14.004  88.283  0.00  0.00    -0.646 OA
ATOM     56  O1  BDP d 218      26.457 -12.761  82.871  0.00  0.00    -0.348 OA
ATOM     57  C3  BDP d 218      27.046 -10.201  85.532  0.00  0.00     0.092 C 
ATOM     58  O5  BDP d 218      26.231 -12.894  85.187  0.00  0.00    -0.340 OA
ATOM     59  C5  BDP d 218      26.714 -12.476  86.454  0.00  0.00     0.152 C 
ATOM     60  C4  BDP d 218      26.416 -10.995  86.671  0.00  0.00     0.103 C 
ATOM     61  O2  BDP d 218      27.189 -10.048  83.153  0.00  0.00    -0.388 OA
ATOM     62  O6B BDP d 218      24.864 -13.238  87.759  0.00  0.00    -0.646 OA
ATOM     63  H   BDP d 218      27.088  -8.358  84.876  0.00  0.00     0.210 HD
ATOM     64  H   BDP d 218      27.947 -12.417  84.187  0.00  0.00     0.133 H 
ATOM     65  H   BDP d 218      25.511 -10.643  84.122  0.00  0.00     0.094 H 
ATOM     66  H   BDP d 218      28.110 -10.281  85.613  0.00  0.00     0.091 H 
ATOM     67  H   BDP d 218      27.773 -12.624  86.470  0.00  0.00     0.104 H 
ATOM     68  H   BDP d 218      25.384 -10.717  86.727  0.00  0.00     0.092 H 
ATOM     69  H   BDP d 218      28.152 -10.147  83.218  0.00  0.00     0.210 HD
ATOM     70  O4  ASG d 221      26.181 -16.477  99.748  0.00  0.00    -0.249 OA
ATOM     71  OSB ASG d 221      26.866 -18.886  99.279  0.00  0.00    -0.572 OA
ATOM     72  OSC ASG d 221      27.987 -17.732 101.046  0.00  0.00    -0.572 OA
ATOM     73  C2  ASG d 221      24.886 -14.199  98.835  0.00  0.00     0.062 C 
ATOM     74  C1  ASG d 221      26.154 -13.611  98.125  0.00  0.00     0.151 C 
ATOM     75  C3  ASG d 221      25.121 -14.376 100.320  0.00  0.00    -0.014 C 
ATOM     76  O7  ASG d 221      22.337 -14.539 100.127  0.00  0.00    -0.274 OA
ATOM     77  C7  ASG d 221      22.450 -13.624  99.387  0.00  0.00     0.214 C 
ATOM     78  O6  ASG d 221      30.049 -14.125 100.191  0.00  0.00    -0.398 OA
ATOM     79  O1  ASG d 221      26.076 -13.612  96.703  0.00  0.00    -0.348 OA
ATOM     80  C5  ASG d 221      27.491 -14.373 100.124  0.00  0.00     0.088 C 
ATOM     81  C4  ASG d 221      26.304 -15.291 100.518  0.00  0.00     0.089 C 
ATOM     82  OSA ASG d 221      28.425 -17.175  98.763  0.00  0.00    -0.572 OA
ATOM     83  S   ASG d 221      27.398 -17.597  99.713  0.00  0.00     0.252 S 
ATOM     84  O5  ASG d 221      27.430 -14.199  98.657  0.00  0.00    -0.349 OA
ATOM     85  C8  ASG d 221      21.251 -12.689  99.155  0.00  0.00    -0.003 C 
ATOM     86  C6  ASG d 221      28.893 -14.745 100.733  0.00  0.00     0.043 C 
ATOM     87  N   ASG d 221      23.627 -13.497  98.528  0.00  0.00    -0.352 N 
ATOM     88  H   ASG d 221      24.740 -15.170  98.412  0.00  0.00     0.080 H 
ATOM     89  H   ASG d 221      26.173 -12.573  98.384  0.00  0.00     0.132 H 
ATOM     90  H   ASG d 221      24.253 -14.808 100.772  0.00  0.00     0.040 H 
ATOM     91  H   ASG d 221      25.316 -13.427 100.773  0.00  0.00     0.040 H 
ATOM     92  H   ASG d 221      30.837 -14.444 100.657  0.00  0.00     0.209 HD
ATOM     93  H   ASG d 221      27.378 -13.419 100.596  0.00  0.00     0.090 H 
ATOM     94  H   ASG d 221      26.416 -15.679 101.508  0.00  0.00     0.089 H 
ATOM     95  H   ASG d 221      20.482 -12.913  99.864  0.00  0.00     0.040 H 
ATOM     96  H   ASG d 221      20.875 -12.830  98.164  0.00  0.00     0.040 H 
ATOM     97  H   ASG d 221      21.562 -11.672  99.276  0.00  0.00     0.040 H 
ATOM     98  H   ASG d 221      28.861 -14.500 101.775  0.00  0.00     0.078 H 
ATOM     99  H   ASG d 221      29.014 -15.782 100.500  0.00  0.00     0.078 H 
ATOM    100  H   ASG d 221      23.576 -12.929  97.725  0.00  0.00     0.163 HD
ATOM    101  O5  BDP d 220      25.691 -11.006  94.349  0.00  0.00    -0.340 OA
ATOM    102  C5  BDP d 220      25.366 -12.149  95.114  0.00  0.00     0.152 C 
ATOM    103  C6  BDP d 220      24.015 -11.965  95.799  0.00  0.00     0.206 C 
ATOM    104  C1  BDP d 220      26.759 -11.267  93.464  0.00  0.00     0.160 C 
ATOM    105  C3  BDP d 220      27.779 -12.659  95.355  0.00  0.00     0.092 C 
ATOM    106  O2  BDP d 220      29.044 -11.968  93.417  0.00  0.00    -0.388 OA
ATOM    107  O6B BDP d 220      23.859 -10.970  96.547  0.00  0.00    -0.646 OA
ATOM    108  C2  BDP d 220      28.005 -11.580  94.288  0.00  0.00     0.110 C 
ATOM    109  O3  BDP d 220      28.867 -12.664  96.263  0.00  0.00    -0.390 OA
ATOM    110  O1  BDP d 220      27.017 -10.136  92.645  0.00  0.00    -0.348 OA
ATOM    111  O6A BDP d 220      23.128 -12.825  95.576  0.00  0.00    -0.646 OA
ATOM    112  C4  BDP d 220      26.478 -12.418  96.123  0.00  0.00     0.103 C 
ATOM    113  H   BDP d 220      25.284 -13.000  94.471  0.00  0.00     0.104 H 
ATOM    114  H   BDP d 220      26.502 -12.095  92.836  0.00  0.00     0.133 H 
ATOM    115  H   BDP d 220      27.707 -13.605  94.861  0.00  0.00     0.091 H 
ATOM    116  H   BDP d 220      29.178 -11.280  92.747  0.00  0.00     0.210 HD
ATOM    117  H   BDP d 220      28.266 -10.688  94.821  0.00  0.00     0.094 H 
ATOM    118  H   BDP d 220      28.923 -11.802  96.705  0.00  0.00     0.210 HD
ATOM    119  H   BDP d 220      26.637 -11.626  96.825  0.00  0.00     0.092 H 
ATOM    120  OSC ASG d 219      27.995  -5.474  91.546  0.00  0.00    -0.572 OA
ATOM    121  C5  ASG d 219      24.978  -8.632  89.959  0.00  0.00     0.090 C 
ATOM    122  C3  ASG d 219      26.274 -10.117  91.470  0.00  0.00     0.094 C 
ATOM    123  C6  ASG d 219      24.250  -7.261  89.743  0.00  0.00     0.043 C 
ATOM    124  C7  ASG d 219      29.122 -12.225  90.194  0.00  0.00     0.214 C 
ATOM    125  C4  ASG d 219      25.863  -8.671  91.235  0.00  0.00     0.114 C 
ATOM    126  S   ASG d 219      26.934  -6.359  92.022  0.00  0.00     0.252 S 
ATOM    127  C8  ASG d 219      29.674 -13.664  90.253  0.00  0.00    -0.003 C 
ATOM    128  O7  ASG d 219      29.826 -11.338  89.863  0.00  0.00    -0.274 OA
ATOM    129  O6  ASG d 219      23.563  -7.038  88.520  0.00  0.00    -0.398 OA
ATOM    130  OSB ASG d 219      25.677  -5.628  91.868  0.00  0.00    -0.572 OA
ATOM    131  O1  ASG d 219      27.171 -10.803  87.817  0.00  0.00    -0.348 OA
ATOM    132  O4  ASG d 219      26.939  -7.754  91.126  0.00  0.00    -0.246 OA
ATOM    133  OSA ASG d 219      27.155  -6.762  93.413  0.00  0.00    -0.572 OA
ATOM    134  O5  ASG d 219      25.861  -9.011  88.836  0.00  0.00    -0.349 OA
ATOM    135  N   ASG d 219      27.725 -11.949  90.518  0.00  0.00    -0.349 N 
ATOM    136  C2  ASG d 219      27.144 -10.607  90.324  0.00  0.00     0.087 C 
ATOM    137  C1  ASG d 219      26.410 -10.403  88.948  0.00  0.00     0.154 C 
ATOM    138  H   ASG d 219      24.163  -9.319  90.049  0.00  0.00     0.090 H 
ATOM    139  H   ASG d 219      25.413 -10.749  91.536  0.00  0.00     0.091 H 
ATOM    140  H   ASG d 219      24.991  -6.494  89.832  0.00  0.00     0.078 H 
ATOM    141  H   ASG d 219      23.475  -7.260  90.480  0.00  0.00     0.078 H 
ATOM    142  H   ASG d 219      25.328  -8.347  92.102  0.00  0.00     0.093 H 
ATOM    143  H   ASG d 219      28.899 -14.330  90.572  0.00  0.00     0.040 H 
ATOM    144  H   ASG d 219      30.488 -13.705  90.946  0.00  0.00     0.040 H 
ATOM    145  H   ASG d 219      30.017 -13.954  89.283  0.00  0.00     0.040 H 
ATOM    146  H   ASG d 219      24.201  -7.024  87.789  0.00  0.00     0.209 HD
ATOM    147  H   ASG d 219      27.159 -12.673  90.873  0.00  0.00     0.163 HD
ATOM    148  H   ASG d 219      28.017  -9.988  90.309  0.00  0.00     0.084 H 
ATOM    149  H   ASG d 219      25.579 -11.077  88.943  0.00  0.00     0.132 H 
ENDROOT
TORSDOF 38
ENDMDL
MODEL 49
REMARK VINA RESULT:      -6.3      4.935      8.482
REMARK  0 active torsions:
REMARK  status: ('A' for Active; 'I' for Inactive)
REMARK       I    between atoms: C6_2  and  C5_55 
REMARK       I    between atoms: O4_3  and  C4_83 
REMARK       I    between atoms: O4_3  and  S_75 
REMARK       I    between atoms: C6_4  and  C5_67 
REMARK       I    between atoms: O4_5  and  C4_61 
REMARK       I    between atoms: O4_5  and  S_71 
REMARK       I    between atoms: O3_6  and  C3_32 
REMARK       I    between atoms: C1_8  and  O1_30 
REMARK       I    between atoms: C3_12  and  O3_62 
REMARK       I    between atoms: C5_13  and  C6_25 
REMARK       I    between atoms: O1_14  and  C4_39 
REMARK       I    between atoms: O1_14  and  C1_23 
REMARK       I    between atoms: C5_15  and  C6_27 
REMARK       I    between atoms: C5_18  and  C6_44 
REMARK       I    between atoms: C3_19  and  O1_82 
REMARK       I    between atoms: C2_20  and  N_89 
REMARK       I    between atoms: C2_21  and  O2_80 
REMARK       I    between atoms: C1_24  and  O1_45 
REMARK       I    between atoms: C6_25  and  O6_48 
REMARK       I    between atoms: C6_27  and  O6_77 
REMARK       I    between atoms: C7_28  and  C8_35 
REMARK       I    between atoms: C7_28  and  N_70 
REMARK       I    between atoms: O1_30  and  C3_43 
REMARK       I    between atoms: C4_33  and  O4_53 
REMARK       I    between atoms: S_34  and  O4_53 
REMARK       I    between atoms: O2_40  and  C2_87 
REMARK       I    between atoms: C7_41  and  C8_81 
REMARK       I    between atoms: C7_41  and  N_89 
REMARK       I    between atoms: O6_42  and  C6_88 
REMARK       I    between atoms: O1_45  and  C4_90 
REMARK       I    between atoms: C7_46  and  C8_69 
REMARK       I    between atoms: C7_46  and  N_85 
REMARK       I    between atoms: C2_47  and  N_85 
REMARK       I    between atoms: O1_50  and  C4_73 
REMARK       I    between atoms: O1_50  and  C1_76 
REMARK       I    between atoms: C1_52  and  O1_82 
REMARK       I    between atoms: C3_54  and  O3_72 
REMARK       I    between atoms: C5_57  and  C6_88 
REMARK       I    between atoms: O1_59  and  C1_78 
REMARK       I    between atoms: O2_63  and  C2_68 
REMARK       I    between atoms: N_70  and  C2_74 
ROOT
ATOM      1  O6B BDP d 216      27.488 -18.995  96.575  0.00  0.00    -0.646 OA
ATOM      2  C6  BDP d 216      26.466 -19.483  97.104  0.00  0.00     0.206 C 
ATOM      3  C3  BDP d 216      26.934 -18.426 100.797  0.00  0.00     0.092 C 
ATOM      4  O6A BDP d 216      25.472 -19.879  96.460  0.00  0.00    -0.646 OA
ATOM      5  O5  BDP d 216      27.328 -20.626  99.024  0.00  0.00    -0.340 OA
ATOM      6  C4  BDP d 216      26.794 -18.274  99.284  0.00  0.00     0.103 C 
ATOM      7  O2  BDP d 216      27.751 -19.876 102.535  0.00  0.00    -0.388 OA
ATOM      8  C5  BDP d 216      26.431 -19.607  98.625  0.00  0.00     0.152 C 
ATOM      9  O1  BDP d 216      28.061 -21.997 100.751  0.00  0.00    -0.368 OA
ATOM     10  O3  BDP d 216      27.518 -17.261 101.340  0.00  0.00    -0.390 OA
ATOM     11  C1  BDP d 216      27.272 -20.874 100.413  0.00  0.00     0.156 C 
ATOM     12  C2  BDP d 216      27.788 -19.643 101.146  0.00  0.00     0.110 C 
ATOM     13  H   BDP d 216      25.959 -18.567 101.215  0.00  0.00     0.091 H 
ATOM     14  H   BDP d 216      27.728 -17.972  98.857  0.00  0.00     0.092 H 
ATOM     15  H   BDP d 216      28.079 -19.093 103.004  0.00  0.00     0.210 HD
ATOM     16  H   BDP d 216      25.440 -19.864  98.938  0.00  0.00     0.104 H 
ATOM     17  H   BDP d 216      27.729 -22.778 100.282  0.00  0.00     0.212 HD
ATOM     18  H   BDP d 216      28.402 -17.135 100.960  0.00  0.00     0.210 HD
ATOM     19  H   BDP d 216      26.261 -21.078 100.698  0.00  0.00     0.133 H 
ATOM     20  H   BDP d 216      28.797 -19.449 100.846  0.00  0.00     0.094 H 
ATOM     21  O4  ASG d 217      25.899 -12.831  98.885  0.00  0.00    -0.246 OA
ATOM     22  O7  ASG d 217      22.570 -15.846  98.294  0.00  0.00    -0.274 OA
ATOM     23  O1  ASG d 217      25.833 -17.310  99.040  0.00  0.00    -0.348 OA
ATOM     24  C5  ASG d 217      27.859 -14.212  98.363  0.00  0.00     0.090 C 
ATOM     25  C1  ASG d 217      26.344 -16.191  98.335  0.00  0.00     0.154 C 
ATOM     26  C6  ASG d 217      28.977 -13.438  99.151  0.00  0.00     0.043 C 
ATOM     27  OSA ASG d 217      25.761 -10.573  97.725  0.00  0.00    -0.572 OA
ATOM     28  C3  ASG d 217      25.884 -14.186  96.846  0.00  0.00     0.094 C 
ATOM     29  C7  ASG d 217      22.954 -16.417  97.334  0.00  0.00     0.214 C 
ATOM     30  C2  ASG d 217      25.252 -15.353  97.594  0.00  0.00     0.087 C 
ATOM     31  O5  ASG d 217      27.243 -15.307  99.143  0.00  0.00    -0.349 OA
ATOM     32  OSB ASG d 217      26.689 -10.676  99.939  0.00  0.00    -0.572 OA
ATOM     33  OSC ASG d 217      24.335 -10.994  99.576  0.00  0.00    -0.572 OA
ATOM     34  C8  ASG d 217      21.961 -17.238  96.491  0.00  0.00    -0.003 C 
ATOM     35  S   ASG d 217      25.673 -11.209  99.040  0.00  0.00     0.252 S 
ATOM     36  O6  ASG d 217      30.313 -13.915  99.063  0.00  0.00    -0.398 OA
ATOM     37  C4  ASG d 217      26.691 -13.332  97.821  0.00  0.00     0.114 C 
ATOM     38  N   ASG d 217      24.303 -16.178  96.830  0.00  0.00    -0.349 N 
ATOM     39  H   ASG d 217      28.413 -14.597  97.532  0.00  0.00     0.090 H 
ATOM     40  H   ASG d 217      26.957 -16.642  97.583  0.00  0.00     0.132 H 
ATOM     41  H   ASG d 217      28.703 -13.450 100.186  0.00  0.00     0.078 H 
ATOM     42  H   ASG d 217      29.009 -12.473  98.689  0.00  0.00     0.078 H 
ATOM     43  H   ASG d 217      26.450 -14.588  96.032  0.00  0.00     0.091 H 
ATOM     44  H   ASG d 217      24.614 -14.902  98.325  0.00  0.00     0.084 H 
ATOM     45  H   ASG d 217      21.029 -17.312  97.011  0.00  0.00     0.040 H 
ATOM     46  H   ASG d 217      22.357 -18.218  96.329  0.00  0.00     0.040 H 
ATOM     47  H   ASG d 217      21.806 -16.754  95.549  0.00  0.00     0.040 H 
ATOM     48  H   ASG d 217      30.368 -14.796  99.466  0.00  0.00     0.209 HD
ATOM     49  H   ASG d 217      27.068 -12.471  97.308  0.00  0.00     0.093 H 
ATOM     50  H   ASG d 217      24.580 -16.572  95.972  0.00  0.00     0.163 HD
ATOM     51  C6  BDP d 218      26.471 -12.179  92.160  0.00  0.00     0.206 C 
ATOM     52  O3  BDP d 218      21.685 -11.888  93.222  0.00  0.00    -0.390 OA
ATOM     53  C1  BDP d 218      24.551 -13.317  95.118  0.00  0.00     0.160 C 
ATOM     54  C2  BDP d 218      23.229 -12.590  94.886  0.00  0.00     0.110 C 
ATOM     55  O6A BDP d 218      27.104 -12.951  91.405  0.00  0.00    -0.646 OA
ATOM     56  O1  BDP d 218      24.875 -13.293  96.496  0.00  0.00    -0.348 OA
ATOM     57  C3  BDP d 218      22.870 -12.621  93.411  0.00  0.00     0.092 C 
ATOM     58  O5  BDP d 218      25.543 -12.660  94.354  0.00  0.00    -0.340 OA
ATOM     59  C5  BDP d 218      25.302 -12.750  92.959  0.00  0.00     0.152 C 
ATOM     60  C4  BDP d 218      24.011 -12.021  92.597  0.00  0.00     0.103 C 
ATOM     61  O2  BDP d 218      22.189 -13.183  95.632  0.00  0.00    -0.388 OA
ATOM     62  O6B BDP d 218      26.731 -10.961  92.280  0.00  0.00    -0.646 OA
ATOM     63  H   BDP d 218      20.972 -12.285  93.747  0.00  0.00     0.210 HD
ATOM     64  H   BDP d 218      24.481 -14.342  94.818  0.00  0.00     0.133 H 
ATOM     65  H   BDP d 218      23.349 -11.576  95.206  0.00  0.00     0.094 H 
ATOM     66  H   BDP d 218      22.716 -13.629  93.086  0.00  0.00     0.091 H 
ATOM     67  H   BDP d 218      25.200 -13.785  92.707  0.00  0.00     0.104 H 
ATOM     68  H   BDP d 218      23.999 -10.963  92.754  0.00  0.00     0.092 H 
ATOM     69  H   BDP d 218      22.072 -14.104  95.348  0.00  0.00     0.210 HD
ATOM     70  O4  ASG d 221      32.033 -10.725  80.975  0.00  0.00    -0.249 OA
ATOM     71  OSB ASG d 221      34.062 -12.124  81.625  0.00  0.00    -0.572 OA
ATOM     72  OSC ASG d 221      33.079 -12.514  79.482  0.00  0.00    -0.572 OA
ATOM     73  C2  ASG d 221      29.978  -9.062  81.818  0.00  0.00     0.062 C 
ATOM     74  C1  ASG d 221      28.976 -10.234  82.097  0.00  0.00     0.151 C 
ATOM     75  C3  ASG d 221      30.406  -9.039  80.366  0.00  0.00    -0.014 C 
ATOM     76  O7  ASG d 221      31.167  -6.502  81.257  0.00  0.00    -0.274 OA
ATOM     77  C7  ASG d 221      30.115  -6.503  81.799  0.00  0.00     0.214 C 
ATOM     78  O6  ASG d 221      28.995 -13.634  79.244  0.00  0.00    -0.398 OA
ATOM     79  O1  ASG d 221      28.695 -10.442  83.478  0.00  0.00    -0.348 OA
ATOM     80  C5  ASG d 221      29.811 -11.308  79.972  0.00  0.00     0.088 C 
ATOM     81  C4  ASG d 221      31.042 -10.364  80.027  0.00  0.00     0.089 C 
ATOM     82  OSA ASG d 221      31.967 -13.224  81.475  0.00  0.00    -0.572 OA
ATOM     83  S   ASG d 221      32.807 -12.185  80.882  0.00  0.00     0.252 S 
ATOM     84  O5  ASG d 221      29.350 -11.492  81.365  0.00  0.00    -0.349 OA
ATOM     85  C8  ASG d 221      29.457  -5.163  82.171  0.00  0.00    -0.003 C 
ATOM     86  C6  ASG d 221      29.968 -12.609  79.102  0.00  0.00     0.043 C 
ATOM     87  N   ASG d 221      29.539  -7.745  82.313  0.00  0.00    -0.352 N 
ATOM     88  H   ASG d 221      30.845  -9.274  82.408  0.00  0.00     0.080 H 
ATOM     89  H   ASG d 221      28.041  -9.917  81.685  0.00  0.00     0.132 H 
ATOM     90  H   ASG d 221      31.113  -8.251  80.212  0.00  0.00     0.040 H 
ATOM     91  H   ASG d 221      29.555  -8.873  79.739  0.00  0.00     0.040 H 
ATOM     92  H   ASG d 221      29.214 -14.372  78.653  0.00  0.00     0.209 HD
ATOM     93  H   ASG d 221      29.031 -10.847  79.402  0.00  0.00     0.090 H 
ATOM     94  H   ASG d 221      31.593 -10.381  79.110  0.00  0.00     0.089 H 
ATOM     95  H   ASG d 221      29.998  -4.361  81.715  0.00  0.00     0.040 H 
ATOM     96  H   ASG d 221      29.468  -5.043  83.234  0.00  0.00     0.040 H 
ATOM     97  H   ASG d 221      28.445  -5.154  81.823  0.00  0.00     0.040 H 
ATOM     98  H   ASG d 221      29.962 -12.307  78.076  0.00  0.00     0.078 H 
ATOM     99  H   ASG d 221      30.874 -13.054  79.455  0.00  0.00     0.078 H 
ATOM    100  H   ASG d 221      28.842  -7.700  83.007  0.00  0.00     0.163 HD
ATOM    101  O5  BDP d 220      25.812  -9.829  85.427  0.00  0.00    -0.340 OA
ATOM    102  C5  BDP d 220      27.134  -9.686  84.948  0.00  0.00     0.152 C 
ATOM    103  C6  BDP d 220      27.418  -8.228  84.596  0.00  0.00     0.206 C 
ATOM    104  C1  BDP d 220      25.625 -11.080  86.052  0.00  0.00     0.160 C 
ATOM    105  C3  BDP d 220      27.109 -12.049  84.205  0.00  0.00     0.092 C 
ATOM    106  O2  BDP d 220      25.750 -13.432  85.645  0.00  0.00    -0.388 OA
ATOM    107  O6B BDP d 220      26.668  -7.661  83.766  0.00  0.00    -0.646 OA
ATOM    108  C2  BDP d 220      25.806 -12.176  85.005  0.00  0.00     0.110 C 
ATOM    109  O3  BDP d 220      27.053 -12.895  83.070  0.00  0.00    -0.390 OA
ATOM    110  O1  BDP d 220      24.318 -11.175  86.600  0.00  0.00    -0.348 OA
ATOM    111  O6A BDP d 220      28.394  -7.674  85.159  0.00  0.00    -0.646 OA
ATOM    112  C4  BDP d 220      27.345 -10.607  83.751  0.00  0.00     0.103 C 
ATOM    113  H   BDP d 220      27.825  -9.968  85.715  0.00  0.00     0.104 H 
ATOM    114  H   BDP d 220      26.337 -11.189  86.843  0.00  0.00     0.133 H 
ATOM    115  H   BDP d 220      27.919 -12.338  84.840  0.00  0.00     0.091 H 
ATOM    116  H   BDP d 220      24.924 -13.502  86.148  0.00  0.00     0.210 HD
ATOM    117  H   BDP d 220      25.012 -12.072  84.295  0.00  0.00     0.094 H 
ATOM    118  H   BDP d 220      26.315 -12.624  82.501  0.00  0.00     0.210 HD
ATOM    119  H   BDP d 220      26.704 -10.401  82.919  0.00  0.00     0.092 H 
ATOM    120  OSC ASG d 219      19.432 -11.033  86.699  0.00  0.00    -0.572 OA
ATOM    121  C5  ASG d 219      22.797  -9.372  89.440  0.00  0.00     0.090 C 
ATOM    122  C3  ASG d 219      24.225 -10.701  87.903  0.00  0.00     0.094 C 
ATOM    123  C6  ASG d 219      21.618  -8.354  89.616  0.00  0.00     0.043 C 
ATOM    124  C7  ASG d 219      25.294 -14.211  88.750  0.00  0.00     0.214 C 
ATOM    125  C4  ASG d 219      22.897  -9.965  88.008  0.00  0.00     0.114 C 
ATOM    126  S   ASG d 219      20.620 -10.183  86.638  0.00  0.00     0.252 S 
ATOM    127  C8  ASG d 219      26.545 -15.114  88.778  0.00  0.00    -0.003 C 
ATOM    128  O7  ASG d 219      24.219 -14.697  88.759  0.00  0.00    -0.274 OA
ATOM    129  O6  ASG d 219      21.308  -7.887  90.921  0.00  0.00    -0.398 OA
ATOM    130  OSB ASG d 219      20.185  -8.830  86.982  0.00  0.00    -0.572 OA
ATOM    131  O1  ASG d 219      23.895 -12.454  91.286  0.00  0.00    -0.348 OA
ATOM    132  O4  ASG d 219      21.754 -10.747  87.708  0.00  0.00    -0.246 OA
ATOM    133  OSA ASG d 219      21.245 -10.227  85.314  0.00  0.00    -0.572 OA
ATOM    134  O5  ASG d 219      22.714 -10.528  90.357  0.00  0.00    -0.349 OA
ATOM    135  N   ASG d 219      25.426 -12.757  88.740  0.00  0.00    -0.349 N 
ATOM    136  C2  ASG d 219      24.245 -11.881  88.863  0.00  0.00     0.087 C 
ATOM    137  C1  ASG d 219      23.932 -11.404  90.329  0.00  0.00     0.154 C 
ATOM    138  H   ASG d 219      23.657  -8.775  89.659  0.00  0.00     0.090 H 
ATOM    139  H   ASG d 219      25.038 -10.051  88.148  0.00  0.00     0.091 H 
ATOM    140  H   ASG d 219      20.737  -8.823  89.231  0.00  0.00     0.078 H 
ATOM    141  H   ASG d 219      21.953  -7.479  89.100  0.00  0.00     0.078 H 
ATOM    142  H   ASG d 219      22.897  -9.201  87.259  0.00  0.00     0.093 H 
ATOM    143  H   ASG d 219      27.425 -14.505  88.765  0.00  0.00     0.040 H 
ATOM    144  H   ASG d 219      26.541 -15.755  87.922  0.00  0.00     0.040 H 
ATOM    145  H   ASG d 219      26.536 -15.708  89.668  0.00  0.00     0.040 H 
ATOM    146  H   ASG d 219      20.992  -8.628  91.463  0.00  0.00     0.209 HD
ATOM    147  H   ASG d 219      26.319 -12.353  88.649  0.00  0.00     0.163 HD
ATOM    148  H   ASG d 219      23.452 -12.535  88.568  0.00  0.00     0.084 H 
ATOM    149  H   ASG d 219      24.763 -10.808  90.640  0.00  0.00     0.132 H 
ENDROOT
TORSDOF 38
ENDMDL
MODEL 50
REMARK VINA RESULT:      -6.2      3.795     16.053
REMARK  0 active torsions:
REMARK  status: ('A' for Active; 'I' for Inactive)
REMARK       I    between atoms: C6_2  and  C5_55 
REMARK       I    between atoms: O4_3  and  C4_83 
REMARK       I    between atoms: O4_3  and  S_75 
REMARK       I    between atoms: C6_4  and  C5_67 
REMARK       I    between atoms: O4_5  and  C4_61 
REMARK       I    between atoms: O4_5  and  S_71 
REMARK       I    between atoms: O3_6  and  C3_32 
REMARK       I    between atoms: C1_8  and  O1_30 
REMARK       I    between atoms: C3_12  and  O3_62 
REMARK       I    between atoms: C5_13  and  C6_25 
REMARK       I    between atoms: O1_14  and  C4_39 
REMARK       I    between atoms: O1_14  and  C1_23 
REMARK       I    between atoms: C5_15  and  C6_27 
REMARK       I    between atoms: C5_18  and  C6_44 
REMARK       I    between atoms: C3_19  and  O1_82 
REMARK       I    between atoms: C2_20  and  N_89 
REMARK       I    between atoms: C2_21  and  O2_80 
REMARK       I    between atoms: C1_24  and  O1_45 
REMARK       I    between atoms: C6_25  and  O6_48 
REMARK       I    between atoms: C6_27  and  O6_77 
REMARK       I    between atoms: C7_28  and  C8_35 
REMARK       I    between atoms: C7_28  and  N_70 
REMARK       I    between atoms: O1_30  and  C3_43 
REMARK       I    between atoms: C4_33  and  O4_53 
REMARK       I    between atoms: S_34  and  O4_53 
REMARK       I    between atoms: O2_40  and  C2_87 
REMARK       I    between atoms: C7_41  and  C8_81 
REMARK       I    between atoms: C7_41  and  N_89 
REMARK       I    between atoms: O6_42  and  C6_88 
REMARK       I    between atoms: O1_45  and  C4_90 
REMARK       I    between atoms: C7_46  and  C8_69 
REMARK       I    between atoms: C7_46  and  N_85 
REMARK       I    between atoms: C2_47  and  N_85 
REMARK       I    between atoms: O1_50  and  C4_73 
REMARK       I    between atoms: O1_50  and  C1_76 
REMARK       I    between atoms: C1_52  and  O1_82 
REMARK       I    between atoms: C3_54  and  O3_72 
REMARK       I    between atoms: C5_57  and  C6_88 
REMARK       I    between atoms: O1_59  and  C1_78 
REMARK       I    between atoms: O2_63  and  C2_68 
REMARK       I    between atoms: N_70  and  C2_74 
ROOT
ATOM      1  O6B BDP d 216      31.881 -14.381  86.394  0.00  0.00    -0.646 OA
ATOM      2  C6  BDP d 216      31.428 -13.637  85.498  0.00  0.00     0.206 C 
ATOM      3  C3  BDP d 216      30.717 -16.181  82.671  0.00  0.00     0.092 C 
ATOM      4  O6A BDP d 216      31.036 -12.468  85.699  0.00  0.00    -0.646 OA
ATOM      5  O5  BDP d 216      32.663 -14.292  83.554  0.00  0.00    -0.340 OA
ATOM      6  C4  BDP d 216      30.646 -15.541  84.056  0.00  0.00     0.103 C 
ATOM      7  O2  BDP d 216      32.146 -16.536  80.767  0.00  0.00    -0.388 OA
ATOM      8  C5  BDP d 216      31.352 -14.183  84.075  0.00  0.00     0.152 C 
ATOM      9  O1  BDP d 216      33.979 -14.638  81.670  0.00  0.00    -0.368 OA
ATOM     10  O3  BDP d 216      30.296 -17.527  82.746  0.00  0.00    -0.390 OA
ATOM     11  C1  BDP d 216      32.670 -14.692  82.200  0.00  0.00     0.156 C 
ATOM     12  C2  BDP d 216      32.137 -16.116  82.112  0.00  0.00     0.110 C 
ATOM     13  H   BDP d 216      30.070 -15.638  82.014  0.00  0.00     0.091 H 
ATOM     14  H   BDP d 216      31.154 -16.156  84.770  0.00  0.00     0.092 H 
ATOM     15  H   BDP d 216      31.807 -17.443  80.710  0.00  0.00     0.210 HD
ATOM     16  H   BDP d 216      30.783 -13.513  83.466  0.00  0.00     0.104 H 
ATOM     17  H   BDP d 216      34.314 -13.729  81.728  0.00  0.00     0.212 HD
ATOM     18  H   BDP d 216      30.883 -18.016  83.343  0.00  0.00     0.210 HD
ATOM     19  H   BDP d 216      32.052 -14.029  81.631  0.00  0.00     0.133 H 
ATOM     20  H   BDP d 216      32.762 -16.763  82.691  0.00  0.00     0.094 H 
ATOM     21  O4  ASG d 217      26.312 -18.227  86.197  0.00  0.00    -0.246 OA
ATOM     22  O7  ASG d 217      26.014 -13.915  84.841  0.00  0.00    -0.274 OA
ATOM     23  O1  ASG d 217      29.312 -15.423  84.402  0.00  0.00    -0.348 OA
ATOM     24  C5  ASG d 217      28.722 -18.403  86.624  0.00  0.00     0.090 C 
ATOM     25  C1  ASG d 217      28.980 -16.160  85.567  0.00  0.00     0.154 C 
ATOM     26  C6  ASG d 217      28.933 -19.952  86.461  0.00  0.00     0.043 C 
ATOM     27  OSA ASG d 217      24.771 -19.068  88.036  0.00  0.00    -0.572 OA
ATOM     28  C3  ASG d 217      27.408 -16.492  87.533  0.00  0.00     0.094 C 
ATOM     29  C7  ASG d 217      26.767 -13.394  85.587  0.00  0.00     0.214 C 
ATOM     30  C2  ASG d 217      27.682 -15.666  86.284  0.00  0.00     0.087 C 
ATOM     31  O5  ASG d 217      28.955 -17.645  85.375  0.00  0.00    -0.349 OA
ATOM     32  OSB ASG d 217      25.317 -20.548  86.223  0.00  0.00    -0.572 OA
ATOM     33  OSC ASG d 217      23.862 -18.668  85.880  0.00  0.00    -0.572 OA
ATOM     34  C8  ASG d 217      26.684 -11.873  85.811  0.00  0.00    -0.003 C 
ATOM     35  S   ASG d 217      25.025 -19.170  86.599  0.00  0.00     0.252 S 
ATOM     36  O6  ASG d 217      30.234 -20.478  86.680  0.00  0.00    -0.398 OA
ATOM     37  C4  ASG d 217      27.322 -17.970  87.158  0.00  0.00     0.114 C 
ATOM     38  N   ASG d 217      27.626 -14.204  86.446  0.00  0.00    -0.349 N 
ATOM     39  H   ASG d 217      29.460 -18.164  87.361  0.00  0.00     0.090 H 
ATOM     40  H   ASG d 217      29.799 -15.952  86.223  0.00  0.00     0.132 H 
ATOM     41  H   ASG d 217      28.651 -20.208  85.460  0.00  0.00     0.078 H 
ATOM     42  H   ASG d 217      28.337 -20.385  87.238  0.00  0.00     0.078 H 
ATOM     43  H   ASG d 217      28.165 -16.258  88.252  0.00  0.00     0.091 H 
ATOM     44  H   ASG d 217      26.846 -15.849  85.640  0.00  0.00     0.084 H 
ATOM     45  H   ASG d 217      26.013 -11.444  85.096  0.00  0.00     0.040 H 
ATOM     46  H   ASG d 217      27.655 -11.441  85.691  0.00  0.00     0.040 H 
ATOM     47  H   ASG d 217      26.324 -11.677  86.800  0.00  0.00     0.040 H 
ATOM     48  H   ASG d 217      30.841 -20.130  86.008  0.00  0.00     0.209 HD
ATOM     49  H   ASG d 217      27.052 -18.539  88.024  0.00  0.00     0.093 H 
ATOM     50  H   ASG d 217      28.172 -13.769  87.139  0.00  0.00     0.163 HD
ATOM     51  C6  BDP d 218      26.876 -16.142  92.626  0.00  0.00     0.206 C 
ATOM     52  O3  BDP d 218      23.116 -13.677  90.648  0.00  0.00    -0.390 OA
ATOM     53  C1  BDP d 218      26.001 -15.441  89.093  0.00  0.00     0.160 C 
ATOM     54  C2  BDP d 218      24.567 -14.944  89.257  0.00  0.00     0.110 C 
ATOM     55  O6A BDP d 218      27.929 -15.743  93.171  0.00  0.00    -0.646 OA
ATOM     56  O1  BDP d 218      26.098 -16.253  87.938  0.00  0.00    -0.348 OA
ATOM     57  C3  BDP d 218      24.459 -14.063  90.488  0.00  0.00     0.092 C 
ATOM     58  O5  BDP d 218      26.339 -16.172  90.255  0.00  0.00    -0.340 OA
ATOM     59  C5  BDP d 218      26.349 -15.365  91.421  0.00  0.00     0.152 C 
ATOM     60  C4  BDP d 218      24.948 -14.834  91.710  0.00  0.00     0.103 C 
ATOM     61  O2  BDP d 218      24.153 -14.214  88.124  0.00  0.00    -0.388 OA
ATOM     62  O6B BDP d 218      26.221 -17.131  93.025  0.00  0.00    -0.646 OA
ATOM     63  H   BDP d 218      22.825 -13.189  89.862  0.00  0.00     0.210 HD
ATOM     64  H   BDP d 218      26.678 -14.621  88.971  0.00  0.00     0.133 H 
ATOM     65  H   BDP d 218      23.932 -15.798  89.368  0.00  0.00     0.094 H 
ATOM     66  H   BDP d 218      25.065 -13.189  90.376  0.00  0.00     0.091 H 
ATOM     67  H   BDP d 218      27.005 -14.538  91.245  0.00  0.00     0.104 H 
ATOM     68  H   BDP d 218      24.201 -15.561  91.953  0.00  0.00     0.092 H 
ATOM     69  H   BDP d 218      24.723 -13.436  88.014  0.00  0.00     0.210 HD
ATOM     70  O4  ASG d 221      30.903 -15.895 104.536  0.00  0.00    -0.249 OA
ATOM     71  OSB ASG d 221      33.271 -16.604 103.917  0.00  0.00    -0.572 OA
ATOM     72  OSC ASG d 221      33.016 -14.808 105.471  0.00  0.00    -0.572 OA
ATOM     73  C2  ASG d 221      28.202 -15.973 103.902  0.00  0.00     0.062 C 
ATOM     74  C1  ASG d 221      28.253 -14.702 102.986  0.00  0.00     0.151 C 
ATOM     75  C3  ASG d 221      28.625 -15.645 105.319  0.00  0.00    -0.014 C 
ATOM     76  O7  ASG d 221      27.362 -18.120 105.625  0.00  0.00    -0.274 OA
ATOM     77  C7  ASG d 221      26.553 -17.668 104.890  0.00  0.00     0.214 C 
ATOM     78  O6  ASG d 221      30.844 -11.352 104.314  0.00  0.00    -0.398 OA
ATOM     79  O1  ASG d 221      28.069 -14.978 101.600  0.00  0.00    -0.348 OA
ATOM     80  C5  ASG d 221      29.780 -13.660 104.703  0.00  0.00     0.088 C 
ATOM     81  C4  ASG d 221      30.022 -15.077 105.289  0.00  0.00     0.089 C 
ATOM     82  OSA ASG d 221      32.518 -14.488 103.155  0.00  0.00    -0.572 OA
ATOM     83  S   ASG d 221      32.469 -15.435 104.268  0.00  0.00     0.252 S 
ATOM     84  O5  ASG d 221      29.448 -13.839 103.272  0.00  0.00    -0.349 OA
ATOM     85  C8  ASG d 221      25.128 -18.246 104.890  0.00  0.00    -0.003 C 
ATOM     86  C6  ASG d 221      30.860 -12.569 105.046  0.00  0.00     0.043 C 
ATOM     87  N   ASG d 221      26.940 -16.731 103.836  0.00  0.00    -0.352 N 
ATOM     88  H   ASG d 221      28.923 -16.652 103.498  0.00  0.00     0.080 H 
ATOM     89  H   ASG d 221      27.395 -14.121 103.253  0.00  0.00     0.132 H 
ATOM     90  H   ASG d 221      28.612 -16.535 105.913  0.00  0.00     0.040 H 
ATOM     91  H   ASG d 221      27.951 -14.931 105.744  0.00  0.00     0.040 H 
ATOM     92  H   ASG d 221      31.560 -10.777 104.627  0.00  0.00     0.209 HD
ATOM     93  H   ASG d 221      28.950 -13.203 105.201  0.00  0.00     0.090 H 
ATOM     94  H   ASG d 221      30.514 -15.032 106.237  0.00  0.00     0.089 H 
ATOM     95  H   ASG d 221      25.012 -18.909 105.721  0.00  0.00     0.040 H 
ATOM     96  H   ASG d 221      24.960 -18.783 103.980  0.00  0.00     0.040 H 
ATOM     97  H   ASG d 221      24.419 -17.448 104.968  0.00  0.00     0.040 H 
ATOM     98  H   ASG d 221      30.741 -12.319 106.079  0.00  0.00     0.078 H 
ATOM     99  H   ASG d 221      31.790 -13.026 104.779  0.00  0.00     0.078 H 
ATOM    100  H   ASG d 221      26.343 -16.604 103.063  0.00  0.00     0.163 HD
ATOM    101  O5  BDP d 220      25.389 -14.328  99.392  0.00  0.00    -0.340 OA
ATOM    102  C5  BDP d 220      26.291 -15.071 100.186  0.00  0.00     0.152 C 
ATOM    103  C6  BDP d 220      25.531 -16.025 101.104  0.00  0.00     0.206 C 
ATOM    104  C1  BDP d 220      26.053 -13.684  98.327  0.00  0.00     0.160 C 
ATOM    105  C3  BDP d 220      27.954 -13.246  99.984  0.00  0.00     0.092 C 
ATOM    106  O2  BDP d 220      27.788 -12.106  97.861  0.00  0.00    -0.388 OA
ATOM    107  O6B BDP d 220      24.674 -15.543 101.883  0.00  0.00    -0.646 OA
ATOM    108  C2  BDP d 220      27.027 -12.663  98.910  0.00  0.00     0.110 C 
ATOM    109  O3  BDP d 220      28.593 -12.192 100.683  0.00  0.00    -0.390 OA
ATOM    110  O1  BDP d 220      25.123 -13.011  97.491  0.00  0.00    -0.348 OA
ATOM    111  O6A BDP d 220      25.809 -17.247 101.031  0.00  0.00    -0.646 OA
ATOM    112  C4  BDP d 220      27.180 -14.115 100.976  0.00  0.00     0.103 C 
ATOM    113  H   BDP d 220      26.917 -15.667  99.556  0.00  0.00     0.104 H 
ATOM    114  H   BDP d 220      26.574 -14.414  97.742  0.00  0.00     0.133 H 
ATOM    115  H   BDP d 220      28.683 -13.859  99.497  0.00  0.00     0.091 H 
ATOM    116  H   BDP d 220      27.193 -11.741  97.189  0.00  0.00     0.210 HD
ATOM    117  H   BDP d 220      26.443 -11.911  99.400  0.00  0.00     0.094 H 
ATOM    118  H   BDP d 220      27.924 -11.642 101.121  0.00  0.00     0.210 HD
ATOM    119  H   BDP d 220      26.649 -13.476 101.650  0.00  0.00     0.092 H 
ATOM    120  OSC ASG d 219      21.478  -9.977  96.303  0.00  0.00    -0.572 OA
ATOM    121  C5  ASG d 219      22.536 -14.374  95.236  0.00  0.00     0.090 C 
ATOM    122  C3  ASG d 219      24.616 -13.805  96.469  0.00  0.00     0.094 C 
ATOM    123  C6  ASG d 219      20.971 -14.328  95.173  0.00  0.00     0.043 C 
ATOM    124  C7  ASG d 219      27.716 -12.643  94.674  0.00  0.00     0.214 C 
ATOM    125  C4  ASG d 219      23.142 -13.454  96.332  0.00  0.00     0.114 C 
ATOM    126  S   ASG d 219      21.762 -11.257  96.949  0.00  0.00     0.252 S 
ATOM    127  C8  ASG d 219      29.236 -12.896  94.612  0.00  0.00    -0.003 C 
ATOM    128  O7  ASG d 219      27.267 -11.644  94.234  0.00  0.00    -0.274 OA
ATOM    129  O6  ASG d 219      20.311 -14.978  94.096  0.00  0.00    -0.398 OA
ATOM    130  OSB ASG d 219      20.492 -11.975  97.032  0.00  0.00    -0.572 OA
ATOM    131  O1  ASG d 219      25.276 -13.927  92.704  0.00  0.00    -0.348 OA
ATOM    132  O4  ASG d 219      22.875 -12.091  96.046  0.00  0.00    -0.246 OA
ATOM    133  OSA ASG d 219      22.363 -11.069  98.272  0.00  0.00    -0.572 OA
ATOM    134  O5  ASG d 219      23.186 -13.981  93.968  0.00  0.00    -0.349 OA
ATOM    135  N   ASG d 219      26.817 -13.642  95.246  0.00  0.00    -0.349 N 
ATOM    136  C2  ASG d 219      25.352 -13.483  95.178  0.00  0.00     0.087 C 
ATOM    137  C1  ASG d 219      24.669 -14.205  93.959  0.00  0.00     0.154 C 
ATOM    138  H   ASG d 219      22.732 -15.401  95.460  0.00  0.00     0.090 H 
ATOM    139  H   ASG d 219      24.739 -14.847  96.678  0.00  0.00     0.091 H 
ATOM    140  H   ASG d 219      20.688 -13.297  95.140  0.00  0.00     0.078 H 
ATOM    141  H   ASG d 219      20.661 -14.877  96.037  0.00  0.00     0.078 H 
ATOM    142  H   ASG d 219      22.685 -13.617  97.286  0.00  0.00     0.093 H 
ATOM    143  H   ASG d 219      29.458 -13.845  95.054  0.00  0.00     0.040 H 
ATOM    144  H   ASG d 219      29.747 -12.124  95.147  0.00  0.00     0.040 H 
ATOM    145  H   ASG d 219      29.556 -12.894  93.591  0.00  0.00     0.040 H 
ATOM    146  H   ASG d 219      20.541 -14.536  93.263  0.00  0.00     0.209 HD
ATOM    147  H   ASG d 219      27.196 -14.437  95.686  0.00  0.00     0.163 HD
ATOM    148  H   ASG d 219      25.251 -12.430  95.017  0.00  0.00     0.084 H 
ATOM    149  H   ASG d 219      24.837 -15.253  94.093  0.00  0.00     0.132 H 
ENDROOT
TORSDOF 38
ENDMDL
MODEL 51
REMARK VINA RESULT:      -6.2      5.284      8.086
REMARK  0 active torsions:
REMARK  status: ('A' for Active; 'I' for Inactive)
REMARK       I    between atoms: C6_2  and  C5_55 
REMARK       I    between atoms: O4_3  and  C4_83 
REMARK       I    between atoms: O4_3  and  S_75 
REMARK       I    between atoms: C6_4  and  C5_67 
REMARK       I    between atoms: O4_5  and  C4_61 
REMARK       I    between atoms: O4_5  and  S_71 
REMARK       I    between atoms: O3_6  and  C3_32 
REMARK       I    between atoms: C1_8  and  O1_30 
REMARK       I    between atoms: C3_12  and  O3_62 
REMARK       I    between atoms: C5_13  and  C6_25 
REMARK       I    between atoms: O1_14  and  C4_39 
REMARK       I    between atoms: O1_14  and  C1_23 
REMARK       I    between atoms: C5_15  and  C6_27 
REMARK       I    between atoms: C5_18  and  C6_44 
REMARK       I    between atoms: C3_19  and  O1_82 
REMARK       I    between atoms: C2_20  and  N_89 
REMARK       I    between atoms: C2_21  and  O2_80 
REMARK       I    between atoms: C1_24  and  O1_45 
REMARK       I    between atoms: C6_25  and  O6_48 
REMARK       I    between atoms: C6_27  and  O6_77 
REMARK       I    between atoms: C7_28  and  C8_35 
REMARK       I    between atoms: C7_28  and  N_70 
REMARK       I    between atoms: O1_30  and  C3_43 
REMARK       I    between atoms: C4_33  and  O4_53 
REMARK       I    between atoms: S_34  and  O4_53 
REMARK       I    between atoms: O2_40  and  C2_87 
REMARK       I    between atoms: C7_41  and  C8_81 
REMARK       I    between atoms: C7_41  and  N_89 
REMARK       I    between atoms: O6_42  and  C6_88 
REMARK       I    between atoms: O1_45  and  C4_90 
REMARK       I    between atoms: C7_46  and  C8_69 
REMARK       I    between atoms: C7_46  and  N_85 
REMARK       I    between atoms: C2_47  and  N_85 
REMARK       I    between atoms: O1_50  and  C4_73 
REMARK       I    between atoms: O1_50  and  C1_76 
REMARK       I    between atoms: C1_52  and  O1_82 
REMARK       I    between atoms: C3_54  and  O3_72 
REMARK       I    between atoms: C5_57  and  C6_88 
REMARK       I    between atoms: O1_59  and  C1_78 
REMARK       I    between atoms: O2_63  and  C2_68 
REMARK       I    between atoms: N_70  and  C2_74 
ROOT
ATOM      1  O6B BDP d 216      26.787  -9.209  94.837  0.00  0.00    -0.646 OA
ATOM      2  C6  BDP d 216      27.918  -9.142  95.365  0.00  0.00     0.206 C 
ATOM      3  C3  BDP d 216      27.559 -11.666  98.276  0.00  0.00     0.092 C 
ATOM      4  O6A BDP d 216      28.913  -8.629  94.811  0.00  0.00    -0.646 OA
ATOM      5  O5  BDP d 216      27.428  -8.876  97.694  0.00  0.00    -0.340 OA
ATOM      6  C4  BDP d 216      27.550 -11.143  96.840  0.00  0.00     0.103 C 
ATOM      7  O2  BDP d 216      27.154 -11.053 100.567  0.00  0.00    -0.388 OA
ATOM      8  C5  BDP d 216      28.094  -9.714  96.768  0.00  0.00     0.152 C 
ATOM      9  O1  BDP d 216      27.089  -8.339  99.929  0.00  0.00    -0.368 OA
ATOM     10  O3  BDP d 216      26.820 -12.867  98.349  0.00  0.00    -0.390 OA
ATOM     11  C1  BDP d 216      27.635  -9.283  99.030  0.00  0.00     0.156 C 
ATOM     12  C2  BDP d 216      26.966 -10.636  99.234  0.00  0.00     0.110 C 
ATOM     13  H   BDP d 216      28.573 -11.850  98.563  0.00  0.00     0.091 H 
ATOM     14  H   BDP d 216      26.547 -11.103  96.470  0.00  0.00     0.092 H 
ATOM     15  H   BDP d 216      26.728 -11.915 100.699  0.00  0.00     0.210 HD
ATOM     16  H   BDP d 216      29.136  -9.752  97.010  0.00  0.00     0.104 H 
ATOM     17  H   BDP d 216      27.519  -7.479  99.795  0.00  0.00     0.212 HD
ATOM     18  H   BDP d 216      25.901 -12.697  98.088  0.00  0.00     0.210 HD
ATOM     19  H   BDP d 216      28.686  -9.357  99.220  0.00  0.00     0.133 H 
ATOM     20  H   BDP d 216      25.919 -10.546  99.034  0.00  0.00     0.094 H 
ATOM     21  O4  ASG d 217      27.422 -15.902  94.025  0.00  0.00    -0.246 OA
ATOM     22  O7  ASG d 217      31.180 -13.387  94.290  0.00  0.00    -0.274 OA
ATOM     23  O1  ASG d 217      28.302 -12.010  96.068  0.00  0.00    -0.348 OA
ATOM     24  C5  ASG d 217      25.706 -14.198  94.442  0.00  0.00     0.090 C 
ATOM     25  C1  ASG d 217      27.545 -12.623  95.037  0.00  0.00     0.154 C 
ATOM     26  C6  ASG d 217      24.533 -15.094  94.981  0.00  0.00     0.043 C 
ATOM     27  OSA ASG d 217      27.062 -17.402  92.005  0.00  0.00    -0.572 OA
ATOM     28  C3  ASG d 217      27.520 -13.793  92.783  0.00  0.00     0.094 C 
ATOM     29  C7  ASG d 217      30.831 -12.404  93.734  0.00  0.00     0.214 C 
ATOM     30  C2  ASG d 217      28.407 -13.173  93.855  0.00  0.00     0.087 C 
ATOM     31  O5  ASG d 217      26.568 -13.654  95.514  0.00  0.00    -0.349 OA
ATOM     32  OSB ASG d 217      26.344 -18.181  94.161  0.00  0.00    -0.572 OA
ATOM     33  OSC ASG d 217      28.681 -18.035  93.622  0.00  0.00    -0.572 OA
ATOM     34  C8  ASG d 217      31.886 -11.426  93.186  0.00  0.00    -0.003 C 
ATOM     35  S   ASG d 217      27.365 -17.436  93.435  0.00  0.00     0.252 S 
ATOM     36  O6  ASG d 217      23.302 -14.464  95.305  0.00  0.00    -0.398 OA
ATOM     37  C4  ASG d 217      26.652 -14.883  93.408  0.00  0.00     0.114 C 
ATOM     38  N   ASG d 217      29.426 -12.221  93.384  0.00  0.00    -0.349 N 
ATOM     39  H   ASG d 217      25.167 -13.416  93.948  0.00  0.00     0.090 H 
ATOM     40  H   ASG d 217      26.965 -11.811  94.650  0.00  0.00     0.132 H 
ATOM     41  H   ASG d 217      24.885 -15.579  95.868  0.00  0.00     0.078 H 
ATOM     42  H   ASG d 217      24.292 -15.739  94.161  0.00  0.00     0.078 H 
ATOM     43  H   ASG d 217      26.973 -13.003  92.314  0.00  0.00     0.091 H 
ATOM     44  H   ASG d 217      29.009 -13.979  94.219  0.00  0.00     0.084 H 
ATOM     45  H   ASG d 217      32.854 -11.710  93.542  0.00  0.00     0.040 H 
ATOM     46  H   ASG d 217      31.661 -10.435  93.519  0.00  0.00     0.040 H 
ATOM     47  H   ASG d 217      31.877 -11.455  92.116  0.00  0.00     0.040 H 
ATOM     48  H   ASG d 217      23.436 -13.855  96.049  0.00  0.00     0.209 HD
ATOM     49  H   ASG d 217      26.088 -15.370  92.639  0.00  0.00     0.093 H 
ATOM     50  H   ASG d 217      29.158 -11.454  92.829  0.00  0.00     0.163 HD
ATOM     51  C6  BDP d 218      26.217 -13.408  87.835  0.00  0.00     0.206 C 
ATOM     52  O3  BDP d 218      30.943 -14.743  87.943  0.00  0.00    -0.390 OA
ATOM     53  C1  BDP d 218      28.537 -13.961  90.673  0.00  0.00     0.160 C 
ATOM     54  C2  BDP d 218      29.684 -14.669  89.957  0.00  0.00     0.110 C 
ATOM     55  O6A BDP d 218      25.676 -12.308  87.586  0.00  0.00    -0.646 OA
ATOM     56  O1  BDP d 218      28.322 -14.556  91.939  0.00  0.00    -0.348 OA
ATOM     57  C3  BDP d 218      29.927 -14.029  88.602  0.00  0.00     0.092 C 
ATOM     58  O5  BDP d 218      27.386 -14.077  89.859  0.00  0.00    -0.340 OA
ATOM     59  C5  BDP d 218      27.529 -13.406  88.617  0.00  0.00     0.152 C 
ATOM     60  C4  BDP d 218      28.636 -14.054  87.790  0.00  0.00     0.103 C 
ATOM     61  O2  BDP d 218      30.869 -14.607  90.720  0.00  0.00    -0.388 OA
ATOM     62  O6B BDP d 218      25.754 -14.508  87.460  0.00  0.00    -0.646 OA
ATOM     63  H   BDP d 218      31.754 -14.716  88.475  0.00  0.00     0.210 HD
ATOM     64  H   BDP d 218      28.765 -12.928  90.832  0.00  0.00     0.133 H 
ATOM     65  H   BDP d 218      29.411 -15.695  89.827  0.00  0.00     0.094 H 
ATOM     66  H   BDP d 218      30.233 -13.010  88.720  0.00  0.00     0.091 H 
ATOM     67  H   BDP d 218      27.794 -12.390  88.820  0.00  0.00     0.104 H 
ATOM     68  H   BDP d 218      28.471 -15.063  87.476  0.00  0.00     0.092 H 
ATOM     69  H   BDP d 218      31.126 -13.679  90.844  0.00  0.00     0.210 HD
ATOM     70  O4  ASG d 221      19.626  -9.007  78.071  0.00  0.00    -0.249 OA
ATOM     71  OSB ASG d 221      17.938  -7.801  79.551  0.00  0.00    -0.572 OA
ATOM     72  OSC ASG d 221      18.804  -6.624  77.661  0.00  0.00    -0.572 OA
ATOM     73  C2  ASG d 221      21.410 -11.116  77.805  0.00  0.00     0.062 C 
ATOM     74  C1  ASG d 221      22.625 -10.328  78.405  0.00  0.00     0.151 C 
ATOM     75  C3  ASG d 221      20.873 -10.434  76.565  0.00  0.00    -0.014 C 
ATOM     76  O7  ASG d 221      19.742 -12.985  76.388  0.00  0.00    -0.274 OA
ATOM     77  C7  ASG d 221      20.816 -13.357  76.714  0.00  0.00     0.214 C 
ATOM     78  O6  ASG d 221      22.991  -6.040  77.317  0.00  0.00    -0.398 OA
ATOM     79  O1  ASG d 221      23.046 -10.795  79.683  0.00  0.00    -0.348 OA
ATOM     80  C5  ASG d 221      21.832  -8.323  77.094  0.00  0.00     0.088 C 
ATOM     81  C4  ASG d 221      20.459  -9.029  76.923  0.00  0.00     0.089 C 
ATOM     82  OSA ASG d 221      20.178  -7.024  79.575  0.00  0.00    -0.572 OA
ATOM     83  S   ASG d 221      19.122  -7.574  78.727  0.00  0.00     0.252 S 
ATOM     84  O5  ASG d 221      22.426  -8.840  78.346  0.00  0.00    -0.349 OA
ATOM     85  C8  ASG d 221      21.251 -14.794  76.375  0.00  0.00    -0.003 C 
ATOM     86  C6  ASG d 221      21.843  -6.763  76.898  0.00  0.00     0.043 C 
ATOM     87  N   ASG d 221      21.643 -12.559  77.618  0.00  0.00    -0.352 N 
ATOM     88  H   ASG d 221      20.644 -11.081  78.551  0.00  0.00     0.080 H 
ATOM     89  H   ASG d 221      23.453 -10.544  77.763  0.00  0.00     0.132 H 
ATOM     90  H   ASG d 221      20.026 -10.975  76.196  0.00  0.00     0.040 H 
ATOM     91  H   ASG d 221      21.628 -10.409  75.807  0.00  0.00     0.040 H 
ATOM     92  H   ASG d 221      22.862  -5.096  77.139  0.00  0.00     0.209 HD
ATOM     93  H   ASG d 221      22.469  -8.576  76.272  0.00  0.00     0.090 H 
ATOM     94  H   ASG d 221      19.850  -8.535  76.196  0.00  0.00     0.089 H 
ATOM     95  H   ASG d 221      20.540 -15.233  75.707  0.00  0.00     0.040 H 
ATOM     96  H   ASG d 221      21.301 -15.372  77.274  0.00  0.00     0.040 H 
ATOM     97  H   ASG d 221      22.214 -14.774  75.910  0.00  0.00     0.040 H 
ATOM     98  H   ASG d 221      21.714  -6.573  75.853  0.00  0.00     0.078 H 
ATOM     99  H   ASG d 221      21.061  -6.411  77.538  0.00  0.00     0.078 H 
ATOM    100  H   ASG d 221      22.373 -12.996  78.114  0.00  0.00     0.163 HD
ATOM    101  O5  BDP d 220      25.916 -12.571  80.729  0.00  0.00    -0.340 OA
ATOM    102  C5  BDP d 220      24.556 -12.318  80.438  0.00  0.00     0.152 C 
ATOM    103  C6  BDP d 220      23.989 -13.417  79.543  0.00  0.00     0.206 C 
ATOM    104  C1  BDP d 220      26.372 -11.765  81.793  0.00  0.00     0.160 C 
ATOM    105  C3  BDP d 220      24.946  -9.895  80.781  0.00  0.00     0.092 C 
ATOM    106  O2  BDP d 220      26.639  -9.483  82.454  0.00  0.00    -0.388 OA
ATOM    107  O6B BDP d 220      24.558 -13.643  78.448  0.00  0.00    -0.646 OA
ATOM    108  C2  BDP d 220      26.308 -10.304  81.355  0.00  0.00     0.110 C 
ATOM    109  O3  BDP d 220      25.063  -8.646  80.123  0.00  0.00    -0.390 OA
ATOM    110  O1  BDP d 220      27.714 -12.091  82.127  0.00  0.00    -0.348 OA
ATOM    111  O6A BDP d 220      22.977 -14.036  79.954  0.00  0.00    -0.646 OA
ATOM    112  C4  BDP d 220      24.421 -10.941  79.796  0.00  0.00     0.103 C 
ATOM    113  H   BDP d 220      23.988 -12.322  81.345  0.00  0.00     0.104 H 
ATOM    114  H   BDP d 220      25.755 -11.931  82.651  0.00  0.00     0.133 H 
ATOM    115  H   BDP d 220      24.252  -9.820  81.593  0.00  0.00     0.091 H 
ATOM    116  H   BDP d 220      27.501  -9.750  82.809  0.00  0.00     0.210 HD
ATOM    117  H   BDP d 220      27.013 -10.180  80.559  0.00  0.00     0.094 H 
ATOM    118  H   BDP d 220      25.694  -8.726  79.390  0.00  0.00     0.210 HD
ATOM    119  H   BDP d 220      24.946 -10.833  78.870  0.00  0.00     0.092 H 
ATOM    120  OSC ASG d 219      32.487 -12.877  81.425  0.00  0.00    -0.572 OA
ATOM    121  C5  ASG d 219      29.105 -15.147  83.661  0.00  0.00     0.090 C 
ATOM    122  C3  ASG d 219      27.823 -13.103  83.073  0.00  0.00     0.094 C 
ATOM    123  C6  ASG d 219      30.092 -16.275  83.207  0.00  0.00     0.043 C 
ATOM    124  C7  ASG d 219      27.469 -10.235  85.487  0.00  0.00     0.214 C 
ATOM    125  C4  ASG d 219      29.001 -13.970  82.653  0.00  0.00     0.114 C 
ATOM    126  S   ASG d 219      31.166 -13.453  81.185  0.00  0.00     0.252 S 
ATOM    127  C8  ASG d 219      26.406  -9.290  86.085  0.00  0.00    -0.003 C 
ATOM    128  O7  ASG d 219      28.611  -9.945  85.542  0.00  0.00    -0.274 OA
ATOM    129  O6  ASG d 219      30.415 -17.311  84.125  0.00  0.00    -0.398 OA
ATOM    130  OSB ASG d 219      31.377 -14.860  80.848  0.00  0.00    -0.572 OA
ATOM    131  O1  ASG d 219      28.725 -13.100  86.789  0.00  0.00    -0.348 OA
ATOM    132  O4  ASG d 219      30.239 -13.287  82.549  0.00  0.00    -0.246 OA
ATOM    133  OSA ASG d 219      30.457 -12.744  80.117  0.00  0.00    -0.572 OA
ATOM    134  O5  ASG d 219      29.466 -14.541  84.961  0.00  0.00    -0.349 OA
ATOM    135  N   ASG d 219      27.078 -11.503  84.876  0.00  0.00    -0.349 N 
ATOM    136  C2  ASG d 219      28.089 -12.483  84.435  0.00  0.00     0.087 C 
ATOM    137  C1  ASG d 219      28.426 -13.598  85.492  0.00  0.00     0.154 C 
ATOM    138  H   ASG d 219      28.172 -15.664  83.730  0.00  0.00     0.090 H 
ATOM    139  H   ASG d 219      26.928 -13.686  83.134  0.00  0.00     0.091 H 
ATOM    140  H   ASG d 219      31.011 -15.800  82.933  0.00  0.00     0.078 H 
ATOM    141  H   ASG d 219      29.567 -16.779  82.423  0.00  0.00     0.078 H 
ATOM    142  H   ASG d 219      28.806 -14.313  81.659  0.00  0.00     0.093 H 
ATOM    143  H   ASG d 219      25.433  -9.713  85.945  0.00  0.00     0.040 H 
ATOM    144  H   ASG d 219      26.457  -8.341  85.595  0.00  0.00     0.040 H 
ATOM    145  H   ASG d 219      26.591  -9.162  87.131  0.00  0.00     0.040 H 
ATOM    146  H   ASG d 219      30.900 -16.936  84.877  0.00  0.00     0.209 HD
ATOM    147  H   ASG d 219      26.123 -11.708  84.756  0.00  0.00     0.163 HD
ATOM    148  H   ASG d 219      28.961 -11.872  84.334  0.00  0.00     0.084 H 
ATOM    149  H   ASG d 219      27.528 -14.161  85.639  0.00  0.00     0.132 H 
ENDROOT
TORSDOF 38
ENDMDL
MODEL 52
REMARK VINA RESULT:      -6.2      6.507     15.128
REMARK  0 active torsions:
REMARK  status: ('A' for Active; 'I' for Inactive)
REMARK       I    between atoms: C6_2  and  C5_55 
REMARK       I    between atoms: O4_3  and  C4_83 
REMARK       I    between atoms: O4_3  and  S_75 
REMARK       I    between atoms: C6_4  and  C5_67 
REMARK       I    between atoms: O4_5  and  C4_61 
REMARK       I    between atoms: O4_5  and  S_71 
REMARK       I    between atoms: O3_6  and  C3_32 
REMARK       I    between atoms: C1_8  and  O1_30 
REMARK       I    between atoms: C3_12  and  O3_62 
REMARK       I    between atoms: C5_13  and  C6_25 
REMARK       I    between atoms: O1_14  and  C4_39 
REMARK       I    between atoms: O1_14  and  C1_23 
REMARK       I    between atoms: C5_15  and  C6_27 
REMARK       I    between atoms: C5_18  and  C6_44 
REMARK       I    between atoms: C3_19  and  O1_82 
REMARK       I    between atoms: C2_20  and  N_89 
REMARK       I    between atoms: C2_21  and  O2_80 
REMARK       I    between atoms: C1_24  and  O1_45 
REMARK       I    between atoms: C6_25  and  O6_48 
REMARK       I    between atoms: C6_27  and  O6_77 
REMARK       I    between atoms: C7_28  and  C8_35 
REMARK       I    between atoms: C7_28  and  N_70 
REMARK       I    between atoms: O1_30  and  C3_43 
REMARK       I    between atoms: C4_33  and  O4_53 
REMARK       I    between atoms: S_34  and  O4_53 
REMARK       I    between atoms: O2_40  and  C2_87 
REMARK       I    between atoms: C7_41  and  C8_81 
REMARK       I    between atoms: C7_41  and  N_89 
REMARK       I    between atoms: O6_42  and  C6_88 
REMARK       I    between atoms: O1_45  and  C4_90 
REMARK       I    between atoms: C7_46  and  C8_69 
REMARK       I    between atoms: C7_46  and  N_85 
REMARK       I    between atoms: C2_47  and  N_85 
REMARK       I    between atoms: O1_50  and  C4_73 
REMARK       I    between atoms: O1_50  and  C1_76 
REMARK       I    between atoms: C1_52  and  O1_82 
REMARK       I    between atoms: C3_54  and  O3_72 
REMARK       I    between atoms: C5_57  and  C6_88 
REMARK       I    between atoms: O1_59  and  C1_78 
REMARK       I    between atoms: O2_63  and  C2_68 
REMARK       I    between atoms: N_70  and  C2_74 
ROOT
ATOM      1  O6B BDP d 216      20.491 -12.938  81.744  0.00  0.00    -0.646 OA
ATOM      2  C6  BDP d 216      21.151 -12.669  80.717  0.00  0.00     0.206 C 
ATOM      3  C3  BDP d 216      19.627  -9.263  79.695  0.00  0.00     0.092 C 
ATOM      4  O6A BDP d 216      22.214 -13.245  80.405  0.00  0.00    -0.646 OA
ATOM      5  O5  BDP d 216      19.473 -12.053  79.123  0.00  0.00    -0.340 OA
ATOM      6  C4  BDP d 216      20.314 -10.303  80.577  0.00  0.00     0.103 C 
ATOM      7  O2  BDP d 216      17.996  -8.970  77.950  0.00  0.00    -0.388 OA
ATOM      8  C5  BDP d 216      20.628 -11.577  79.789  0.00  0.00     0.152 C 
ATOM      9  O1  BDP d 216      17.938 -11.707  77.414  0.00  0.00    -0.368 OA
ATOM     10  O3  BDP d 216      19.119  -8.218  80.498  0.00  0.00    -0.390 OA
ATOM     11  C1  BDP d 216      18.991 -11.136  78.165  0.00  0.00     0.156 C 
ATOM     12  C2  BDP d 216      18.492  -9.894  78.891  0.00  0.00     0.110 C 
ATOM     13  H   BDP d 216      20.348  -8.870  79.009  0.00  0.00     0.091 H 
ATOM     14  H   BDP d 216      19.663 -10.595  81.375  0.00  0.00     0.092 H 
ATOM     15  H   BDP d 216      17.677  -8.178  78.411  0.00  0.00     0.210 HD
ATOM     16  H   BDP d 216      21.378 -11.334  79.066  0.00  0.00     0.104 H 
ATOM     17  H   BDP d 216      18.260 -12.497  76.954  0.00  0.00     0.212 HD
ATOM     18  H   BDP d 216      18.465  -8.577  81.119  0.00  0.00     0.210 HD
ATOM     19  H   BDP d 216      19.781 -10.879  77.490  0.00  0.00     0.133 H 
ATOM     20  H   BDP d 216      17.708 -10.169  79.565  0.00  0.00     0.094 H 
ATOM     21  O4  ASG d 217      22.297  -7.073  84.604  0.00  0.00    -0.246 OA
ATOM     22  O7  ASG d 217      24.992  -8.853  81.428  0.00  0.00    -0.274 OA
ATOM     23  O1  ASG d 217      21.462  -9.731  81.093  0.00  0.00    -0.348 OA
ATOM     24  C5  ASG d 217      20.423  -8.655  84.547  0.00  0.00     0.090 C 
ATOM     25  C1  ASG d 217      21.451  -9.658  82.509  0.00  0.00     0.154 C 
ATOM     26  C6  ASG d 217      19.266  -7.754  85.113  0.00  0.00     0.043 C 
ATOM     27  OSA ASG d 217      23.255  -6.533  86.896  0.00  0.00    -0.572 OA
ATOM     28  C3  ASG d 217      22.771  -9.474  84.671  0.00  0.00     0.094 C 
ATOM     29  C7  ASG d 217      24.870 -10.007  81.652  0.00  0.00     0.214 C 
ATOM     30  C2  ASG d 217      22.869  -9.524  83.151  0.00  0.00     0.087 C 
ATOM     31  O5  ASG d 217      20.509  -8.637  83.070  0.00  0.00    -0.349 OA
ATOM     32  OSB ASG d 217      21.608  -5.055  85.958  0.00  0.00    -0.572 OA
ATOM     33  OSC ASG d 217      23.836  -5.143  85.061  0.00  0.00    -0.572 OA
ATOM     34  C8  ASG d 217      25.922 -10.999  81.123  0.00  0.00    -0.003 C 
ATOM     35  S   ASG d 217      22.756  -5.908  85.671  0.00  0.00     0.252 S 
ATOM     36  O6  ASG d 217      17.982  -8.338  85.282  0.00  0.00    -0.398 OA
ATOM     37  C4  ASG d 217      21.850  -8.329  85.085  0.00  0.00     0.114 C 
ATOM     38  N   ASG d 217      23.854 -10.466  82.594  0.00  0.00    -0.349 N 
ATOM     39  H   ASG d 217      20.133  -9.622  84.903  0.00  0.00     0.090 H 
ATOM     40  H   ASG d 217      21.067 -10.615  82.795  0.00  0.00     0.132 H 
ATOM     41  H   ASG d 217      19.152  -6.925  84.446  0.00  0.00     0.078 H 
ATOM     42  H   ASG d 217      19.580  -7.513  86.108  0.00  0.00     0.078 H 
ATOM     43  H   ASG d 217      22.461 -10.441  85.009  0.00  0.00     0.091 H 
ATOM     44  H   ASG d 217      23.284  -8.578  82.868  0.00  0.00     0.084 H 
ATOM     45  H   ASG d 217      26.581 -10.493  80.449  0.00  0.00     0.040 H 
ATOM     46  H   ASG d 217      25.431 -11.798  80.610  0.00  0.00     0.040 H 
ATOM     47  H   ASG d 217      26.485 -11.393  81.944  0.00  0.00     0.040 H 
ATOM     48  H   ASG d 217      17.624  -8.588  84.415  0.00  0.00     0.209 HD
ATOM     49  H   ASG d 217      21.845  -8.248  86.152  0.00  0.00     0.093 H 
ATOM     50  H   ASG d 217      23.826 -11.414  82.858  0.00  0.00     0.163 HD
ATOM     51  C6  BDP d 218      24.252 -11.907  88.940  0.00  0.00     0.206 C 
ATOM     52  O3  BDP d 218      28.326 -10.125  86.854  0.00  0.00    -0.390 OA
ATOM     53  C1  BDP d 218      24.763 -10.035  85.781  0.00  0.00     0.160 C 
ATOM     54  C2  BDP d 218      26.194  -9.543  85.981  0.00  0.00     0.110 C 
ATOM     55  O6A BDP d 218      23.790 -13.069  88.990  0.00  0.00    -0.646 OA
ATOM     56  O1  BDP d 218      23.988  -9.020  85.173  0.00  0.00    -0.348 OA
ATOM     57  C3  BDP d 218      27.034 -10.632  86.624  0.00  0.00     0.092 C 
ATOM     58  O5  BDP d 218      24.244 -10.375  87.052  0.00  0.00    -0.340 OA
ATOM     59  C5  BDP d 218      24.937 -11.459  87.650  0.00  0.00     0.152 C 
ATOM     60  C4  BDP d 218      26.385 -11.069  87.932  0.00  0.00     0.103 C 
ATOM     61  O2  BDP d 218      26.775  -9.170  84.751  0.00  0.00    -0.388 OA
ATOM     62  O6B BDP d 218      24.200 -11.100  89.894  0.00  0.00    -0.646 OA
ATOM     63  H   BDP d 218      28.721  -9.853  86.011  0.00  0.00     0.210 HD
ATOM     64  H   BDP d 218      24.740 -10.892  85.140  0.00  0.00     0.133 H 
ATOM     65  H   BDP d 218      26.163  -8.687  86.622  0.00  0.00     0.094 H 
ATOM     66  H   BDP d 218      27.100 -11.482  85.978  0.00  0.00     0.091 H 
ATOM     67  H   BDP d 218      24.924 -12.278  86.963  0.00  0.00     0.104 H 
ATOM     68  H   BDP d 218      26.540 -10.288  88.647  0.00  0.00     0.092 H 
ATOM     69  H   BDP d 218      26.809  -9.941  84.163  0.00  0.00     0.210 HD
ATOM     70  O4  ASG d 221      23.340 -20.477  98.098  0.00  0.00    -0.249 OA
ATOM     71  OSB ASG d 221      20.988 -21.184  97.419  0.00  0.00    -0.572 OA
ATOM     72  OSC ASG d 221      22.567 -22.905  97.923  0.00  0.00    -0.572 OA
ATOM     73  C2  ASG d 221      25.243 -18.458  98.162  0.00  0.00     0.062 C 
ATOM     74  C1  ASG d 221      25.845 -18.809  96.758  0.00  0.00     0.151 C 
ATOM     75  C3  ASG d 221      25.364 -19.625  99.119  0.00  0.00    -0.014 C 
ATOM     76  O7  ASG d 221      24.830 -17.489 100.841  0.00  0.00    -0.274 OA
ATOM     77  C7  ASG d 221      25.606 -16.903 100.167  0.00  0.00     0.214 C 
ATOM     78  O6  ASG d 221      26.188 -23.112  95.723  0.00  0.00    -0.398 OA
ATOM     79  O1  ASG d 221      25.580 -17.835  95.753  0.00  0.00    -0.348 OA
ATOM     80  C5  ASG d 221      25.622 -21.241  97.393  0.00  0.00     0.088 C 
ATOM     81  C4  ASG d 221      24.650 -20.815  98.526  0.00  0.00     0.089 C 
ATOM     82  OSA ASG d 221      22.757 -21.638  95.905  0.00  0.00    -0.572 OA
ATOM     83  S   ASG d 221      22.389 -21.584  97.319  0.00  0.00     0.252 S 
ATOM     84  O5  ASG d 221      25.522 -20.213  96.333  0.00  0.00    -0.349 OA
ATOM     85  C8  ASG d 221      26.331 -15.676 100.745  0.00  0.00    -0.003 C 
ATOM     86  C6  ASG d 221      25.538 -22.742  96.930  0.00  0.00     0.043 C 
ATOM     87  N   ASG d 221      25.720 -17.187  98.737  0.00  0.00    -0.352 N 
ATOM     88  H   ASG d 221      24.201 -18.282  97.997  0.00  0.00     0.080 H 
ATOM     89  H   ASG d 221      26.907 -18.772  96.883  0.00  0.00     0.132 H 
ATOM     90  H   ASG d 221      24.917 -19.369 100.057  0.00  0.00     0.040 H 
ATOM     91  H   ASG d 221      26.395 -19.862  99.276  0.00  0.00     0.040 H 
ATOM     92  H   ASG d 221      26.055 -24.059  95.561  0.00  0.00     0.209 HD
ATOM     93  H   ASG d 221      26.624 -21.262  97.769  0.00  0.00     0.090 H 
ATOM     94  H   ASG d 221      24.462 -21.617  99.207  0.00  0.00     0.089 H 
ATOM     95  H   ASG d 221      26.144 -15.614 101.797  0.00  0.00     0.040 H 
ATOM     96  H   ASG d 221      25.970 -14.789 100.266  0.00  0.00     0.040 H 
ATOM     97  H   ASG d 221      27.382 -15.769 100.574  0.00  0.00     0.040 H 
ATOM     98  H   ASG d 221      25.959 -23.339  97.712  0.00  0.00     0.078 H 
ATOM     99  H   ASG d 221      24.499 -22.899  96.730  0.00  0.00     0.078 H 
ATOM    100  H   ASG d 221      26.125 -16.513  98.144  0.00  0.00     0.163 HD
ATOM    101  O5  BDP d 220      27.657 -15.488  94.123  0.00  0.00    -0.340 OA
ATOM    102  C5  BDP d 220      26.639 -15.983  94.969  0.00  0.00     0.152 C 
ATOM    103  C6  BDP d 220      26.775 -15.391  96.369  0.00  0.00     0.206 C 
ATOM    104  C1  BDP d 220      27.375 -15.757  92.767  0.00  0.00     0.160 C 
ATOM    105  C3  BDP d 220      26.479 -18.018  93.566  0.00  0.00     0.092 C 
ATOM    106  O2  BDP d 220      26.961 -17.554  91.245  0.00  0.00    -0.388 OA
ATOM    107  O6B BDP d 220      27.861 -15.551  96.977  0.00  0.00    -0.646 OA
ATOM    108  C2  BDP d 220      27.369 -17.270  92.565  0.00  0.00     0.110 C 
ATOM    109  O3  BDP d 220      26.768 -19.404  93.515  0.00  0.00    -0.390 OA
ATOM    110  O1  BDP d 220      28.364 -15.182  91.926  0.00  0.00    -0.348 OA
ATOM    111  O6A BDP d 220      25.787 -14.777  96.840  0.00  0.00    -0.646 OA
ATOM    112  C4  BDP d 220      26.692 -17.507  94.991  0.00  0.00     0.103 C 
ATOM    113  H   BDP d 220      25.683 -15.686  94.591  0.00  0.00     0.104 H 
ATOM    114  H   BDP d 220      26.423 -15.337  92.514  0.00  0.00     0.133 H 
ATOM    115  H   BDP d 220      25.458 -17.846  93.296  0.00  0.00     0.091 H 
ATOM    116  H   BDP d 220      27.530 -17.076  90.622  0.00  0.00     0.210 HD
ATOM    117  H   BDP d 220      28.366 -17.618  92.740  0.00  0.00     0.094 H 
ATOM    118  H   BDP d 220      27.696 -19.550  93.761  0.00  0.00     0.210 HD
ATOM    119  H   BDP d 220      27.610 -17.910  95.366  0.00  0.00     0.092 H 
ATOM    120  OSC ASG d 219      32.839 -14.213  90.213  0.00  0.00    -0.572 OA
ATOM    121  C5  ASG d 219      29.104 -11.636  91.211  0.00  0.00     0.090 C 
ATOM    122  C3  ASG d 219      28.082 -13.874  91.548  0.00  0.00     0.094 C 
ATOM    123  C6  ASG d 219      30.315 -10.674  91.463  0.00  0.00     0.043 C 
ATOM    124  C7  ASG d 219      26.144 -15.588  88.811  0.00  0.00     0.214 C 
ATOM    125  C4  ASG d 219      29.402 -13.117  91.571  0.00  0.00     0.114 C 
ATOM    126  S   ASG d 219      31.930 -13.926  91.321  0.00  0.00     0.252 S 
ATOM    127  C8  ASG d 219      24.817 -16.333  88.562  0.00  0.00    -0.003 C 
ATOM    128  O7  ASG d 219      27.037 -15.706  88.048  0.00  0.00    -0.274 OA
ATOM    129  O6  ASG d 219      30.230  -9.333  91.001  0.00  0.00    -0.398 OA
ATOM    130  OSB ASG d 219      32.463 -12.750  92.006  0.00  0.00    -0.572 OA
ATOM    131  O1  ASG d 219      26.870 -12.323  88.270  0.00  0.00    -0.348 OA
ATOM    132  O4  ASG d 219      30.409 -13.645  90.725  0.00  0.00    -0.246 OA
ATOM    133  OSA ASG d 219      31.812 -15.070  92.228  0.00  0.00    -0.572 OA
ATOM    134  O5  ASG d 219      28.641 -11.640  89.807  0.00  0.00    -0.349 OA
ATOM    135  N   ASG d 219      26.301 -14.712  89.969  0.00  0.00    -0.349 N 
ATOM    136  C2  ASG d 219      27.505 -13.878  90.141  0.00  0.00     0.087 C 
ATOM    137  C1  ASG d 219      27.369 -12.408  89.598  0.00  0.00     0.154 C 
ATOM    138  H   ASG d 219      28.349 -11.238  91.858  0.00  0.00     0.090 H 
ATOM    139  H   ASG d 219      27.372 -13.416  92.204  0.00  0.00     0.091 H 
ATOM    140  H   ASG d 219      31.170 -11.115  90.996  0.00  0.00     0.078 H 
ATOM    141  H   ASG d 219      30.352 -10.578  92.528  0.00  0.00     0.078 H 
ATOM    142  H   ASG d 219      29.808 -13.215  92.556  0.00  0.00     0.093 H 
ATOM    143  H   ASG d 219      24.129 -16.109  89.351  0.00  0.00     0.040 H 
ATOM    144  H   ASG d 219      25.000 -17.387  88.537  0.00  0.00     0.040 H 
ATOM    145  H   ASG d 219      24.402 -16.021  87.627  0.00  0.00     0.040 H 
ATOM    146  H   ASG d 219      30.191  -9.328  90.031  0.00  0.00     0.209 HD
ATOM    147  H   ASG d 219      25.589 -14.677  90.648  0.00  0.00     0.163 HD
ATOM    148  H   ASG d 219      28.213 -14.380  89.516  0.00  0.00     0.084 H 
ATOM    149  H   ASG d 219      26.609 -11.936  90.183  0.00  0.00     0.132 H 
ENDROOT
TORSDOF 38
ENDMDL
MODEL 53
REMARK VINA RESULT:      -6.2      6.154     15.139
REMARK  0 active torsions:
REMARK  status: ('A' for Active; 'I' for Inactive)
REMARK       I    between atoms: C6_2  and  C5_55 
REMARK       I    between atoms: O4_3  and  C4_83 
REMARK       I    between atoms: O4_3  and  S_75 
REMARK       I    between atoms: C6_4  and  C5_67 
REMARK       I    between atoms: O4_5  and  C4_61 
REMARK       I    between atoms: O4_5  and  S_71 
REMARK       I    between atoms: O3_6  and  C3_32 
REMARK       I    between atoms: C1_8  and  O1_30 
REMARK       I    between atoms: C3_12  and  O3_62 
REMARK       I    between atoms: C5_13  and  C6_25 
REMARK       I    between atoms: O1_14  and  C4_39 
REMARK       I    between atoms: O1_14  and  C1_23 
REMARK       I    between atoms: C5_15  and  C6_27 
REMARK       I    between atoms: C5_18  and  C6_44 
REMARK       I    between atoms: C3_19  and  O1_82 
REMARK       I    between atoms: C2_20  and  N_89 
REMARK       I    between atoms: C2_21  and  O2_80 
REMARK       I    between atoms: C1_24  and  O1_45 
REMARK       I    between atoms: C6_25  and  O6_48 
REMARK       I    between atoms: C6_27  and  O6_77 
REMARK       I    between atoms: C7_28  and  C8_35 
REMARK       I    between atoms: C7_28  and  N_70 
REMARK       I    between atoms: O1_30  and  C3_43 
REMARK       I    between atoms: C4_33  and  O4_53 
REMARK       I    between atoms: S_34  and  O4_53 
REMARK       I    between atoms: O2_40  and  C2_87 
REMARK       I    between atoms: C7_41  and  C8_81 
REMARK       I    between atoms: C7_41  and  N_89 
REMARK       I    between atoms: O6_42  and  C6_88 
REMARK       I    between atoms: O1_45  and  C4_90 
REMARK       I    between atoms: C7_46  and  C8_69 
REMARK       I    between atoms: C7_46  and  N_85 
REMARK       I    between atoms: C2_47  and  N_85 
REMARK       I    between atoms: O1_50  and  C4_73 
REMARK       I    between atoms: O1_50  and  C1_76 
REMARK       I    between atoms: C1_52  and  O1_82 
REMARK       I    between atoms: C3_54  and  O3_72 
REMARK       I    between atoms: C5_57  and  C6_88 
REMARK       I    between atoms: O1_59  and  C1_78 
REMARK       I    between atoms: O2_63  and  C2_68 
REMARK       I    between atoms: N_70  and  C2_74 
ROOT
ATOM      1  O6B BDP d 216      23.116 -11.854  81.994  0.00  0.00    -0.646 OA
ATOM      2  C6  BDP d 216      23.336 -12.218  80.819  0.00  0.00     0.206 C 
ATOM      3  C3  BDP d 216      25.716  -9.429  79.584  0.00  0.00     0.092 C 
ATOM      4  O6A BDP d 216      23.081 -13.362  80.386  0.00  0.00    -0.646 OA
ATOM      5  O5  BDP d 216      22.977 -10.222  79.545  0.00  0.00    -0.340 OA
ATOM      6  C4  BDP d 216      25.196 -10.566  80.461  0.00  0.00     0.103 C 
ATOM      7  O2  BDP d 216      25.041  -7.572  78.210  0.00  0.00    -0.388 OA
ATOM      8  C5  BDP d 216      23.946 -11.206  79.853  0.00  0.00     0.152 C 
ATOM      9  O1  BDP d 216      22.391  -8.439  78.175  0.00  0.00    -0.368 OA
ATOM     10  O3  BDP d 216      26.697  -8.695  80.288  0.00  0.00    -0.390 OA
ATOM     11  C1  BDP d 216      23.433  -9.307  78.571  0.00  0.00     0.156 C 
ATOM     12  C2  BDP d 216      24.579  -8.499  79.165  0.00  0.00     0.110 C 
ATOM     13  H   BDP d 216      26.149  -9.852  78.702  0.00  0.00     0.091 H 
ATOM     14  H   BDP d 216      24.905 -10.187  81.419  0.00  0.00     0.092 H 
ATOM     15  H   BDP d 216      25.772  -7.056  78.587  0.00  0.00     0.210 HD
ATOM     16  H   BDP d 216      24.242 -11.705  78.954  0.00  0.00     0.104 H 
ATOM     17  H   BDP d 216      21.663  -8.958  77.798  0.00  0.00     0.212 HD
ATOM     18  H   BDP d 216      26.302  -8.313  81.087  0.00  0.00     0.210 HD
ATOM     19  H   BDP d 216      23.767  -9.844  77.707  0.00  0.00     0.133 H 
ATOM     20  H   BDP d 216      24.231  -7.974  80.030  0.00  0.00     0.094 H 
ATOM     21  O4  ASG d 217      29.750 -11.789  83.351  0.00  0.00    -0.246 OA
ATOM     22  O7  ASG d 217      28.248 -14.465  80.018  0.00  0.00    -0.274 OA
ATOM     23  O1  ASG d 217      26.216 -11.488  80.611  0.00  0.00    -0.348 OA
ATOM     24  C5  ASG d 217      27.677 -10.632  83.972  0.00  0.00     0.090 C 
ATOM     25  C1  ASG d 217      26.613 -11.652  81.962  0.00  0.00     0.154 C 
ATOM     26  C6  ASG d 217      28.259  -9.319  84.613  0.00  0.00     0.043 C 
ATOM     27  OSA ASG d 217      31.097 -12.800  85.255  0.00  0.00    -0.572 OA
ATOM     28  C3  ASG d 217      27.721 -13.109  83.722  0.00  0.00     0.094 C 
ATOM     29  C7  ASG d 217      27.205 -14.804  80.457  0.00  0.00     0.214 C 
ATOM     30  C2  ASG d 217      27.350 -13.001  82.249  0.00  0.00     0.087 C 
ATOM     31  O5  ASG d 217      27.373 -10.494  82.531  0.00  0.00    -0.349 OA
ATOM     32  OSB ASG d 217      31.692 -10.613  84.457  0.00  0.00    -0.572 OA
ATOM     33  OSC ASG d 217      32.125 -12.567  83.127  0.00  0.00    -0.572 OA
ATOM     34  C8  ASG d 217      26.515 -16.058  79.891  0.00  0.00    -0.003 C 
ATOM     35  S   ASG d 217      31.218 -11.939  84.079  0.00  0.00     0.252 S 
ATOM     36  O6  ASG d 217      27.345  -8.375  85.153  0.00  0.00    -0.398 OA
ATOM     37  C4  ASG d 217      28.567 -11.903  84.124  0.00  0.00     0.114 C 
ATOM     38  N   ASG d 217      26.676 -14.170  81.661  0.00  0.00    -0.349 N 
ATOM     39  H   ASG d 217      26.782 -10.768  84.542  0.00  0.00     0.090 H 
ATOM     40  H   ASG d 217      25.679 -11.689  82.483  0.00  0.00     0.132 H 
ATOM     41  H   ASG d 217      28.824  -8.818  83.855  0.00  0.00     0.078 H 
ATOM     42  H   ASG d 217      28.817  -9.662  85.460  0.00  0.00     0.078 H 
ATOM     43  H   ASG d 217      26.816 -13.224  84.280  0.00  0.00     0.091 H 
ATOM     44  H   ASG d 217      28.283 -12.997  81.726  0.00  0.00     0.084 H 
ATOM     45  H   ASG d 217      27.033 -16.385  79.014  0.00  0.00     0.040 H 
ATOM     46  H   ASG d 217      25.502 -15.825  79.640  0.00  0.00     0.040 H 
ATOM     47  H   ASG d 217      26.531 -16.837  80.625  0.00  0.00     0.040 H 
ATOM     48  H   ASG d 217      26.796  -8.013  84.440  0.00  0.00     0.209 HD
ATOM     49  H   ASG d 217      28.892 -12.022  85.138  0.00  0.00     0.093 H 
ATOM     50  H   ASG d 217      25.862 -14.528  82.083  0.00  0.00     0.163 HD
ATOM     51  C6  BDP d 218      26.984 -15.966  87.921  0.00  0.00     0.206 C 
ATOM     52  O3  BDP d 218      29.450 -18.770  84.730  0.00  0.00    -0.390 OA
ATOM     53  C1  BDP d 218      28.118 -15.305  84.454  0.00  0.00     0.160 C 
ATOM     54  C2  BDP d 218      29.082 -16.471  84.253  0.00  0.00     0.110 C 
ATOM     55  O6A BDP d 218      25.781 -15.972  88.267  0.00  0.00    -0.646 OA
ATOM     56  O1  BDP d 218      28.652 -14.135  83.864  0.00  0.00    -0.348 OA
ATOM     57  C3  BDP d 218      28.511 -17.733  84.874  0.00  0.00     0.092 C 
ATOM     58  O5  BDP d 218      27.939 -15.132  85.847  0.00  0.00    -0.340 OA
ATOM     59  C5  BDP d 218      27.313 -16.250  86.456  0.00  0.00     0.152 C 
ATOM     60  C4  BDP d 218      28.208 -17.481  86.348  0.00  0.00     0.103 C 
ATOM     61  O2  BDP d 218      29.323 -16.695  82.881  0.00  0.00    -0.388 OA
ATOM     62  O6B BDP d 218      27.931 -15.761  88.712  0.00  0.00    -0.646 OA
ATOM     63  H   BDP d 218      29.629 -18.914  83.787  0.00  0.00     0.210 HD
ATOM     64  H   BDP d 218      27.176 -15.504  83.989  0.00  0.00     0.133 H 
ATOM     65  H   BDP d 218      30.008 -16.222  84.729  0.00  0.00     0.094 H 
ATOM     66  H   BDP d 218      27.601 -18.011  84.385  0.00  0.00     0.091 H 
ATOM     67  H   BDP d 218      26.397 -16.439  85.939  0.00  0.00     0.104 H 
ATOM     68  H   BDP d 218      29.142 -17.442  86.868  0.00  0.00     0.092 H 
ATOM     69  H   BDP d 218      28.489 -16.923  82.440  0.00  0.00     0.210 HD
ATOM     70  O4  ASG d 221      21.003 -19.554  98.385  0.00  0.00    -0.249 OA
ATOM     71  OSB ASG d 221      19.428 -17.550  98.362  0.00  0.00    -0.572 OA
ATOM     72  OSC ASG d 221      18.487 -19.702  98.799  0.00  0.00    -0.572 OA
ATOM     73  C2  ASG d 221      23.486 -20.580  97.690  0.00  0.00     0.062 C 
ATOM     74  C1  ASG d 221      23.029 -21.061  96.270  0.00  0.00     0.151 C 
ATOM     75  C3  ASG d 221      22.682 -21.252  98.782  0.00  0.00    -0.014 C 
ATOM     76  O7  ASG d 221      24.871 -20.229 100.189  0.00  0.00    -0.274 OA
ATOM     77  C7  ASG d 221      25.501 -20.633  99.273  0.00  0.00     0.214 C 
ATOM     78  O6  ASG d 221      18.957 -22.797  95.936  0.00  0.00    -0.398 OA
ATOM     79  O1  ASG d 221      23.597 -20.320  95.195  0.00  0.00    -0.348 OA
ATOM     80  C5  ASG d 221      20.879 -21.832  97.344  0.00  0.00     0.088 C 
ATOM     81  C4  ASG d 221      21.221 -20.944  98.570  0.00  0.00     0.089 C 
ATOM     82  OSA ASG d 221      19.232 -19.128  96.602  0.00  0.00    -0.572 OA
ATOM     83  S   ASG d 221      19.495 -18.971  98.031  0.00  0.00     0.252 S 
ATOM     84  O5  ASG d 221      21.538 -21.215  96.171  0.00  0.00    -0.349 OA
ATOM     85  C8  ASG d 221      26.997 -20.936  99.462  0.00  0.00    -0.003 C 
ATOM     86  C6  ASG d 221      19.369 -22.236  97.174  0.00  0.00     0.043 C 
ATOM     87  N   ASG d 221      24.940 -20.638  97.922  0.00  0.00    -0.352 N 
ATOM     88  H   ASG d 221      23.269 -19.533  97.726  0.00  0.00     0.080 H 
ATOM     89  H   ASG d 221      23.438 -22.043  96.154  0.00  0.00     0.132 H 
ATOM     90  H   ASG d 221      22.993 -20.882  99.737  0.00  0.00     0.040 H 
ATOM     91  H   ASG d 221      22.839 -22.310  98.750  0.00  0.00     0.040 H 
ATOM     92  H   ASG d 221      18.009 -22.996  95.970  0.00  0.00     0.209 HD
ATOM     93  H   ASG d 221      21.276 -22.815  97.492  0.00  0.00     0.090 H 
ATOM     94  H   ASG d 221      20.586 -21.160  99.403  0.00  0.00     0.089 H 
ATOM     95  H   ASG d 221      27.241 -20.891 100.503  0.00  0.00     0.040 H 
ATOM     96  H   ASG d 221      27.578 -20.213  98.929  0.00  0.00     0.040 H 
ATOM     97  H   ASG d 221      27.214 -21.913  99.086  0.00  0.00     0.040 H 
ATOM     98  H   ASG d 221      19.145 -22.952  97.936  0.00  0.00     0.078 H 
ATOM     99  H   ASG d 221      18.840 -21.308  97.233  0.00  0.00     0.078 H 
ATOM    100  H   ASG d 221      25.549 -20.680  97.149  0.00  0.00     0.163 HD
ATOM    101  O5  BDP d 220      26.038 -21.144  92.777  0.00  0.00    -0.340 OA
ATOM    102  C5  BDP d 220      25.453 -20.507  93.895  0.00  0.00     0.152 C 
ATOM    103  C6  BDP d 220      26.369 -20.618  95.111  0.00  0.00     0.206 C 
ATOM    104  C1  BDP d 220      25.379 -20.789  91.581  0.00  0.00     0.160 C 
ATOM    105  C3  BDP d 220      23.206 -20.901  92.929  0.00  0.00     0.092 C 
ATOM    106  O2  BDP d 220      23.241 -20.845  90.515  0.00  0.00    -0.388 OA
ATOM    107  O6B BDP d 220      26.721 -21.762  95.488  0.00  0.00    -0.646 OA
ATOM    108  C2  BDP d 220      23.945 -21.306  91.647  0.00  0.00     0.110 C 
ATOM    109  O3  BDP d 220      22.020 -21.666  93.055  0.00  0.00    -0.390 OA
ATOM    110  O1  BDP d 220      26.030 -21.370  90.460  0.00  0.00    -0.348 OA
ATOM    111  O6A BDP d 220      26.721 -19.551  95.672  0.00  0.00    -0.646 OA
ATOM    112  C4  BDP d 220      24.080 -21.115  94.166  0.00  0.00     0.103 C 
ATOM    113  H   BDP d 220      25.324 -19.466  93.688  0.00  0.00     0.104 H 
ATOM    114  H   BDP d 220      25.394 -19.724  91.473  0.00  0.00     0.133 H 
ATOM    115  H   BDP d 220      22.968 -19.860  92.861  0.00  0.00     0.091 H 
ATOM    116  H   BDP d 220      23.716 -21.105  89.711  0.00  0.00     0.210 HD
ATOM    117  H   BDP d 220      23.992 -22.375  91.658  0.00  0.00     0.094 H 
ATOM    118  H   BDP d 220      22.247 -22.607  93.115  0.00  0.00     0.210 HD
ATOM    119  H   BDP d 220      24.099 -22.159  94.396  0.00  0.00     0.092 H 
ATOM    120  OSC ASG d 219      27.970 -24.891  87.679  0.00  0.00    -0.572 OA
ATOM    121  C5  ASG d 219      29.349 -20.657  89.008  0.00  0.00     0.090 C 
ATOM    122  C3  ASG d 219      27.046 -20.580  89.935  0.00  0.00     0.094 C 
ATOM    123  C6  ASG d 219      30.683 -21.457  88.823  0.00  0.00     0.043 C 
ATOM    124  C7  ASG d 219      24.200 -19.031  88.016  0.00  0.00     0.214 C 
ATOM    125  C4  ASG d 219      28.174 -21.522  89.541  0.00  0.00     0.114 C 
ATOM    126  S   ASG d 219      28.198 -24.108  88.892  0.00  0.00     0.252 S 
ATOM    127  C8  ASG d 219      23.027 -18.045  88.192  0.00  0.00    -0.003 C 
ATOM    128  O7  ASG d 219      24.203 -19.786  87.110  0.00  0.00    -0.274 OA
ATOM    129  O6  ASG d 219      31.774 -20.825  88.168  0.00  0.00    -0.398 OA
ATOM    130  OSB ASG d 219      29.611 -24.268  89.234  0.00  0.00    -0.572 OA
ATOM    131  O1  ASG d 219      27.298 -18.432  86.781  0.00  0.00    -0.348 OA
ATOM    132  O4  ASG d 219      27.819 -22.521  88.600  0.00  0.00    -0.246 OA
ATOM    133  OSA ASG d 219      27.327 -24.546  89.985  0.00  0.00    -0.572 OA
ATOM    134  O5  ASG d 219      28.863 -20.033  87.759  0.00  0.00    -0.349 OA
ATOM    135  N   ASG d 219      25.327 -19.021  88.946  0.00  0.00    -0.349 N 
ATOM    136  C2  ASG d 219      26.523 -19.850  88.708  0.00  0.00     0.087 C 
ATOM    137  C1  ASG d 219      27.696 -19.112  87.964  0.00  0.00     0.154 C 
ATOM    138  H   ASG d 219      29.619 -19.910  89.724  0.00  0.00     0.090 H 
ATOM    139  H   ASG d 219      27.389 -19.854  90.641  0.00  0.00     0.091 H 
ATOM    140  H   ASG d 219      30.448 -22.338  88.264  0.00  0.00     0.078 H 
ATOM    141  H   ASG d 219      31.034 -21.609  89.822  0.00  0.00     0.078 H 
ATOM    142  H   ASG d 219      28.450 -22.072  90.417  0.00  0.00     0.093 H 
ATOM    143  H   ASG d 219      23.194 -17.442  89.060  0.00  0.00     0.040 H 
ATOM    144  H   ASG d 219      22.115 -18.594  88.307  0.00  0.00     0.040 H 
ATOM    145  H   ASG d 219      22.957 -17.416  87.329  0.00  0.00     0.040 H 
ATOM    146  H   ASG d 219      31.537 -20.649  87.244  0.00  0.00     0.209 HD
ATOM    147  H   ASG d 219      25.287 -18.449  89.747  0.00  0.00     0.163 HD
ATOM    148  H   ASG d 219      26.146 -20.595  88.039  0.00  0.00     0.084 H 
ATOM    149  H   ASG d 219      28.019 -18.323  88.611  0.00  0.00     0.132 H 
ENDROOT
TORSDOF 38
ENDMDL
MODEL 54
REMARK VINA RESULT:      -6.2      5.220     15.469
REMARK  0 active torsions:
REMARK  status: ('A' for Active; 'I' for Inactive)
REMARK       I    between atoms: C6_2  and  C5_55 
REMARK       I    between atoms: O4_3  and  C4_83 
REMARK       I    between atoms: O4_3  and  S_75 
REMARK       I    between atoms: C6_4  and  C5_67 
REMARK       I    between atoms: O4_5  and  C4_61 
REMARK       I    between atoms: O4_5  and  S_71 
REMARK       I    between atoms: O3_6  and  C3_32 
REMARK       I    between atoms: C1_8  and  O1_30 
REMARK       I    between atoms: C3_12  and  O3_62 
REMARK       I    between atoms: C5_13  and  C6_25 
REMARK       I    between atoms: O1_14  and  C4_39 
REMARK       I    between atoms: O1_14  and  C1_23 
REMARK       I    between atoms: C5_15  and  C6_27 
REMARK       I    between atoms: C5_18  and  C6_44 
REMARK       I    between atoms: C3_19  and  O1_82 
REMARK       I    between atoms: C2_20  and  N_89 
REMARK       I    between atoms: C2_21  and  O2_80 
REMARK       I    between atoms: C1_24  and  O1_45 
REMARK       I    between atoms: C6_25  and  O6_48 
REMARK       I    between atoms: C6_27  and  O6_77 
REMARK       I    between atoms: C7_28  and  C8_35 
REMARK       I    between atoms: C7_28  and  N_70 
REMARK       I    between atoms: O1_30  and  C3_43 
REMARK       I    between atoms: C4_33  and  O4_53 
REMARK       I    between atoms: S_34  and  O4_53 
REMARK       I    between atoms: O2_40  and  C2_87 
REMARK       I    between atoms: C7_41  and  C8_81 
REMARK       I    between atoms: C7_41  and  N_89 
REMARK       I    between atoms: O6_42  and  C6_88 
REMARK       I    between atoms: O1_45  and  C4_90 
REMARK       I    between atoms: C7_46  and  C8_69 
REMARK       I    between atoms: C7_46  and  N_85 
REMARK       I    between atoms: C2_47  and  N_85 
REMARK       I    between atoms: O1_50  and  C4_73 
REMARK       I    between atoms: O1_50  and  C1_76 
REMARK       I    between atoms: C1_52  and  O1_82 
REMARK       I    between atoms: C3_54  and  O3_72 
REMARK       I    between atoms: C5_57  and  C6_88 
REMARK       I    between atoms: O1_59  and  C1_78 
REMARK       I    between atoms: O2_63  and  C2_68 
REMARK       I    between atoms: N_70  and  C2_74 
ROOT
ATOM      1  O6B BDP d 216      23.881 -12.158  80.818  0.00  0.00    -0.646 OA
ATOM      2  C6  BDP d 216      24.060 -12.675  79.694  0.00  0.00     0.206 C 
ATOM      3  C3  BDP d 216      26.618 -10.232  78.124  0.00  0.00     0.092 C 
ATOM      4  O6A BDP d 216      23.720 -13.841  79.403  0.00  0.00    -0.646 OA
ATOM      5  O5  BDP d 216      23.829 -10.825  78.190  0.00  0.00    -0.340 OA
ATOM      6  C4  BDP d 216      26.028 -11.215  79.134  0.00  0.00     0.103 C 
ATOM      7  O2  BDP d 216      26.060  -8.510  76.539  0.00  0.00    -0.388 OA
ATOM      8  C5  BDP d 216      24.729 -11.832  78.611  0.00  0.00     0.152 C 
ATOM      9  O1  BDP d 216      23.355  -9.182  76.617  0.00  0.00    -0.368 OA
ATOM     10  O3  BDP d 216      27.656  -9.492  78.732  0.00  0.00    -0.390 OA
ATOM     11  C1  BDP d 216      24.338 -10.069  77.112  0.00  0.00     0.156 C 
ATOM     12  C2  BDP d 216      25.545  -9.280  77.600  0.00  0.00     0.110 C 
ATOM     13  H   BDP d 216      27.009 -10.788  77.299  0.00  0.00     0.091 H 
ATOM     14  H   BDP d 216      25.777 -10.704  80.040  0.00  0.00     0.092 H 
ATOM     15  H   BDP d 216      26.830  -8.006  76.848  0.00  0.00     0.210 HD
ATOM     16  H   BDP d 216      24.979 -12.456  77.778  0.00  0.00     0.104 H 
ATOM     17  H   BDP d 216      22.588  -9.689  76.307  0.00  0.00     0.212 HD
ATOM     18  H   BDP d 216      27.299  -8.989  79.481  0.00  0.00     0.210 HD
ATOM     19  H   BDP d 216      24.622 -10.728  76.318  0.00  0.00     0.133 H 
ATOM     20  H   BDP d 216      25.245  -8.632  78.397  0.00  0.00     0.094 H 
ATOM     21  O4  ASG d 217      30.518 -12.407  82.136  0.00  0.00    -0.246 OA
ATOM     22  O7  ASG d 217      28.791 -15.348  79.154  0.00  0.00    -0.274 OA
ATOM     23  O1  ASG d 217      26.982 -12.184  79.390  0.00  0.00    -0.348 OA
ATOM     24  C5  ASG d 217      28.540 -11.038  82.619  0.00  0.00     0.090 C 
ATOM     25  C1  ASG d 217      27.382 -12.213  80.750  0.00  0.00     0.154 C 
ATOM     26  C6  ASG d 217      29.221  -9.703  83.096  0.00  0.00     0.043 C 
ATOM     27  OSA ASG d 217      31.813 -13.277  84.143  0.00  0.00    -0.572 OA
ATOM     28  C3  ASG d 217      28.405 -13.524  82.670  0.00  0.00     0.094 C 
ATOM     29  C7  ASG d 217      27.731 -15.557  79.634  0.00  0.00     0.214 C 
ATOM     30  C2  ASG d 217      28.025 -13.567  81.195  0.00  0.00     0.087 C 
ATOM     31  O5  ASG d 217      28.229 -11.053  81.173  0.00  0.00    -0.349 OA
ATOM     32  OSB ASG d 217      32.552 -11.250  83.086  0.00  0.00    -0.572 OA
ATOM     33  OSC ASG d 217      32.829 -13.375  82.000  0.00  0.00    -0.572 OA
ATOM     34  C8  ASG d 217      26.947 -16.817  79.225  0.00  0.00    -0.003 C 
ATOM     35  S   ASG d 217      31.980 -12.574  82.871  0.00  0.00     0.252 S 
ATOM     36  O6  ASG d 217      28.383  -8.637  83.521  0.00  0.00    -0.398 OA
ATOM     37  C4  ASG d 217      29.339 -12.342  82.921  0.00  0.00     0.114 C 
ATOM     38  N   ASG d 217      27.263 -14.747  80.754  0.00  0.00    -0.349 N 
ATOM     39  H   ASG d 217      27.644 -11.040  83.205  0.00  0.00     0.090 H 
ATOM     40  H   ASG d 217      26.454 -12.119  81.275  0.00  0.00     0.132 H 
ATOM     41  H   ASG d 217      29.811  -9.338  82.281  0.00  0.00     0.078 H 
ATOM     42  H   ASG d 217      29.763  -9.982  83.976  0.00  0.00     0.078 H 
ATOM     43  H   ASG d 217      27.500 -13.506  83.240  0.00  0.00     0.091 H 
ATOM     44  H   ASG d 217      28.950 -13.693  80.672  0.00  0.00     0.084 H 
ATOM     45  H   ASG d 217      27.431 -17.282  78.392  0.00  0.00     0.040 H 
ATOM     46  H   ASG d 217      25.951 -16.543  78.951  0.00  0.00     0.040 H 
ATOM     47  H   ASG d 217      26.917 -17.501  80.048  0.00  0.00     0.040 H 
ATOM     48  H   ASG d 217      27.852  -8.325  82.771  0.00  0.00     0.209 HD
ATOM     49  H   ASG d 217      29.667 -12.362  83.940  0.00  0.00     0.093 H 
ATOM     50  H   ASG d 217      26.430 -14.991  81.219  0.00  0.00     0.163 HD
ATOM     51  C6  BDP d 218      27.516 -15.797  87.184  0.00  0.00     0.206 C 
ATOM     52  O3  BDP d 218      29.740 -19.133  84.346  0.00  0.00    -0.390 OA
ATOM     53  C1  BDP d 218      28.654 -15.639  83.660  0.00  0.00     0.160 C 
ATOM     54  C2  BDP d 218      29.530 -16.887  83.597  0.00  0.00     0.110 C 
ATOM     55  O6A BDP d 218      26.320 -15.675  87.533  0.00  0.00    -0.646 OA
ATOM     56  O1  BDP d 218      29.262 -14.590  82.931  0.00  0.00    -0.348 OA
ATOM     57  C3  BDP d 218      28.878 -18.021  84.368  0.00  0.00     0.092 C 
ATOM     58  O5  BDP d 218      28.503 -15.288  85.022  0.00  0.00    -0.340 OA
ATOM     59  C5  BDP d 218      27.807 -16.277  85.763  0.00  0.00     0.152 C 
ATOM     60  C4  BDP d 218      28.612 -17.573  85.801  0.00  0.00     0.103 C 
ATOM     61  O2  BDP d 218      29.738 -17.291  82.262  0.00  0.00    -0.388 OA
ATOM     62  O6B BDP d 218      28.485 -15.567  87.941  0.00  0.00    -0.646 OA
ATOM     63  H   BDP d 218      29.897 -19.402  83.427  0.00  0.00     0.210 HD
ATOM     64  H   BDP d 218      27.694 -15.824  83.225  0.00  0.00     0.133 H 
ATOM     65  H   BDP d 218      30.476 -16.650  84.037  0.00  0.00     0.094 H 
ATOM     66  H   BDP d 218      27.946 -18.290  83.918  0.00  0.00     0.091 H 
ATOM     67  H   BDP d 218      26.874 -16.460  85.275  0.00  0.00     0.104 H 
ATOM     68  H   BDP d 218      29.552 -17.539  86.310  0.00  0.00     0.092 H 
ATOM     69  H   BDP d 218      28.885 -17.509  81.853  0.00  0.00     0.210 HD
ATOM     70  O4  ASG d 221      21.419 -17.665  98.023  0.00  0.00    -0.249 OA
ATOM     71  OSB ASG d 221      19.991 -15.570  97.764  0.00  0.00    -0.572 OA
ATOM     72  OSC ASG d 221      18.904 -17.581  98.460  0.00  0.00    -0.572 OA
ATOM     73  C2  ASG d 221      23.815 -18.942  97.449  0.00  0.00     0.062 C 
ATOM     74  C1  ASG d 221      23.308 -19.556  96.099  0.00  0.00     0.151 C 
ATOM     75  C3  ASG d 221      22.978 -19.419  98.617  0.00  0.00    -0.014 C 
ATOM     76  O7  ASG d 221      25.250 -18.395  99.883  0.00  0.00    -0.274 OA
ATOM     77  C7  ASG d 221      25.839 -18.950  99.020  0.00  0.00     0.214 C 
ATOM     78  O6  ASG d 221      19.120 -21.022  95.988  0.00  0.00    -0.398 OA
ATOM     79  O1  ASG d 221      23.915 -18.992  94.940  0.00  0.00    -0.348 OA
ATOM     80  C5  ASG d 221      21.122 -20.036  97.264  0.00  0.00     0.088 C 
ATOM     81  C4  ASG d 221      21.540 -19.034  98.373  0.00  0.00     0.089 C 
ATOM     82  OSA ASG d 221      19.662 -17.329  96.207  0.00  0.00    -0.572 OA
ATOM     83  S   ASG d 221      19.952 -17.022  97.606  0.00  0.00     0.252 S 
ATOM     84  O5  ASG d 221      21.809 -19.613  96.024  0.00  0.00    -0.349 OA
ATOM     85  C8  ASG d 221      27.313 -19.334  99.240  0.00  0.00    -0.003 C 
ATOM     86  C6  ASG d 221      19.585 -20.348  97.148  0.00  0.00     0.043 C 
ATOM     87  N   ASG d 221      25.264 -19.076  97.681  0.00  0.00    -0.352 N 
ATOM     88  H   ASG d 221      23.673 -17.885  97.359  0.00  0.00     0.080 H 
ATOM     89  H   ASG d 221      23.645 -20.572  96.101  0.00  0.00     0.132 H 
ATOM     90  H   ASG d 221      23.325 -18.960  99.519  0.00  0.00     0.040 H 
ATOM     91  H   ASG d 221      23.059 -20.482  98.712  0.00  0.00     0.040 H 
ATOM     92  H   ASG d 221      18.160 -21.147  96.050  0.00  0.00     0.209 HD
ATOM     93  H   ASG d 221      21.449 -21.020  97.528  0.00  0.00     0.090 H 
ATOM     94  H   ASG d 221      20.901 -19.103  99.228  0.00  0.00     0.089 H 
ATOM     95  H   ASG d 221      27.571 -19.183 100.267  0.00  0.00     0.040 H 
ATOM     96  H   ASG d 221      27.937 -18.724  98.621  0.00  0.00     0.040 H 
ATOM     97  H   ASG d 221      27.454 -20.363  98.983  0.00  0.00     0.040 H 
ATOM     98  H   ASG d 221      19.319 -20.950  97.992  0.00  0.00     0.078 H 
ATOM     99  H   ASG d 221      19.124 -19.384  97.097  0.00  0.00     0.078 H 
ATOM    100  H   ASG d 221      25.859 -19.255  96.918  0.00  0.00     0.163 HD
ATOM    101  O5  BDP d 220      26.263 -20.273  92.632  0.00  0.00    -0.340 OA
ATOM    102  C5  BDP d 220      25.737 -19.467  93.667  0.00  0.00     0.152 C 
ATOM    103  C6  BDP d 220      26.658 -19.496  94.884  0.00  0.00     0.206 C 
ATOM    104  C1  BDP d 220      25.617 -20.017  91.404  0.00  0.00     0.160 C 
ATOM    105  C3  BDP d 220      23.457 -19.811  92.762  0.00  0.00     0.092 C 
ATOM    106  O2  BDP d 220      23.467 -20.047  90.358  0.00  0.00    -0.388 OA
ATOM    107  O6B BDP d 220      26.932 -20.609  95.395  0.00  0.00    -0.646 OA
ATOM    108  C2  BDP d 220      24.150 -20.418  91.536  0.00  0.00     0.110 C 
ATOM    109  O3  BDP d 220      22.221 -20.468  92.982  0.00  0.00    -0.390 OA
ATOM    110  O1  BDP d 220      26.211 -20.774  90.359  0.00  0.00    -0.348 OA
ATOM    111  O6A BDP d 220      27.091 -18.398  95.312  0.00  0.00    -0.646 OA
ATOM    112  C4  BDP d 220      24.328 -19.937  94.013  0.00  0.00     0.103 C 
ATOM    113  H   BDP d 220      25.680 -18.451  93.336  0.00  0.00     0.104 H 
ATOM    114  H   BDP d 220      25.706 -18.977  91.168  0.00  0.00     0.133 H 
ATOM    115  H   BDP d 220      23.292 -18.771  92.570  0.00  0.00     0.091 H 
ATOM    116  H   BDP d 220      23.913 -20.436  89.590  0.00  0.00     0.210 HD
ATOM    117  H   BDP d 220      24.122 -21.479  91.676  0.00  0.00     0.094 H 
ATOM    118  H   BDP d 220      22.381 -21.409  93.155  0.00  0.00     0.210 HD
ATOM    119  H   BDP d 220      24.275 -20.945  94.367  0.00  0.00     0.092 H 
ATOM    120  OSC ASG d 219      27.864 -24.734  88.016  0.00  0.00    -0.572 OA
ATOM    121  C5  ASG d 219      29.555 -20.481  88.820  0.00  0.00     0.090 C 
ATOM    122  C3  ASG d 219      27.275 -20.128  89.739  0.00  0.00     0.094 C 
ATOM    123  C6  ASG d 219      30.827 -21.391  88.730  0.00  0.00     0.043 C 
ATOM    124  C7  ASG d 219      24.523 -18.619  87.656  0.00  0.00     0.214 C 
ATOM    125  C4  ASG d 219      28.328 -21.189  89.458  0.00  0.00     0.114 C 
ATOM    126  S   ASG d 219      28.161 -23.830  89.125  0.00  0.00     0.252 S 
ATOM    127  C8  ASG d 219      23.425 -17.538  87.716  0.00  0.00    -0.003 C 
ATOM    128  O7  ASG d 219      24.462 -19.476  86.848  0.00  0.00    -0.274 OA
ATOM    129  O6  ASG d 219      31.952 -20.922  88.000  0.00  0.00    -0.398 OA
ATOM    130  OSB ASG d 219      29.563 -24.048  89.479  0.00  0.00    -0.572 OA
ATOM    131  O1  ASG d 219      27.641 -18.397  86.349  0.00  0.00    -0.348 OA
ATOM    132  O4  ASG d 219      27.892 -22.266  88.645  0.00  0.00    -0.246 OA
ATOM    133  OSA ASG d 219      27.274 -24.069  90.266  0.00  0.00    -0.572 OA
ATOM    134  O5  ASG d 219      29.100 -19.978  87.507  0.00  0.00    -0.349 OA
ATOM    135  N   ASG d 219      25.659 -18.579  88.575  0.00  0.00    -0.349 N 
ATOM    136  C2  ASG d 219      26.790 -19.515  88.435  0.00  0.00     0.087 C 
ATOM    137  C1  ASG d 219      28.004 -18.957  87.604  0.00  0.00     0.154 C 
ATOM    138  H   ASG d 219      29.886 -19.675  89.441  0.00  0.00     0.090 H 
ATOM    139  H   ASG d 219      27.677 -19.349  90.351  0.00  0.00     0.091 H 
ATOM    140  H   ASG d 219      30.523 -22.314  88.281  0.00  0.00     0.078 H 
ATOM    141  H   ASG d 219      31.178 -21.447  89.739  0.00  0.00     0.078 H 
ATOM    142  H   ASG d 219      28.574 -21.649  90.393  0.00  0.00     0.093 H 
ATOM    143  H   ASG d 219      23.645 -16.849  88.505  0.00  0.00     0.040 H 
ATOM    144  H   ASG d 219      22.478 -18.002  87.900  0.00  0.00     0.040 H 
ATOM    145  H   ASG d 219      23.390 -17.014  86.784  0.00  0.00     0.040 H 
ATOM    146  H   ASG d 219      31.718 -20.842  87.062  0.00  0.00     0.209 HD
ATOM    147  H   ASG d 219      25.669 -17.914  89.301  0.00  0.00     0.163 HD
ATOM    148  H   ASG d 219      26.353 -20.306  87.862  0.00  0.00     0.084 H 
ATOM    149  H   ASG d 219      28.389 -18.122  88.150  0.00  0.00     0.132 H 
ENDROOT
TORSDOF 38
ENDMDL
MODEL 55
REMARK VINA RESULT:      -6.1      4.268     15.319
REMARK  0 active torsions:
REMARK  status: ('A' for Active; 'I' for Inactive)
REMARK       I    between atoms: C6_2  and  C5_55 
REMARK       I    between atoms: O4_3  and  C4_83 
REMARK       I    between atoms: O4_3  and  S_75 
REMARK       I    between atoms: C6_4  and  C5_67 
REMARK       I    between atoms: O4_5  and  C4_61 
REMARK       I    between atoms: O4_5  and  S_71 
REMARK       I    between atoms: O3_6  and  C3_32 
REMARK       I    between atoms: C1_8  and  O1_30 
REMARK       I    between atoms: C3_12  and  O3_62 
REMARK       I    between atoms: C5_13  and  C6_25 
REMARK       I    between atoms: O1_14  and  C4_39 
REMARK       I    between atoms: O1_14  and  C1_23 
REMARK       I    between atoms: C5_15  and  C6_27 
REMARK       I    between atoms: C5_18  and  C6_44 
REMARK       I    between atoms: C3_19  and  O1_82 
REMARK       I    between atoms: C2_20  and  N_89 
REMARK       I    between atoms: C2_21  and  O2_80 
REMARK       I    between atoms: C1_24  and  O1_45 
REMARK       I    between atoms: C6_25  and  O6_48 
REMARK       I    between atoms: C6_27  and  O6_77 
REMARK       I    between atoms: C7_28  and  C8_35 
REMARK       I    between atoms: C7_28  and  N_70 
REMARK       I    between atoms: O1_30  and  C3_43 
REMARK       I    between atoms: C4_33  and  O4_53 
REMARK       I    between atoms: S_34  and  O4_53 
REMARK       I    between atoms: O2_40  and  C2_87 
REMARK       I    between atoms: C7_41  and  C8_81 
REMARK       I    between atoms: C7_41  and  N_89 
REMARK       I    between atoms: O6_42  and  C6_88 
REMARK       I    between atoms: O1_45  and  C4_90 
REMARK       I    between atoms: C7_46  and  C8_69 
REMARK       I    between atoms: C7_46  and  N_85 
REMARK       I    between atoms: C2_47  and  N_85 
REMARK       I    between atoms: O1_50  and  C4_73 
REMARK       I    between atoms: O1_50  and  C1_76 
REMARK       I    between atoms: C1_52  and  O1_82 
REMARK       I    between atoms: C3_54  and  O3_72 
REMARK       I    between atoms: C5_57  and  C6_88 
REMARK       I    between atoms: O1_59  and  C1_78 
REMARK       I    between atoms: O2_63  and  C2_68 
REMARK       I    between atoms: N_70  and  C2_74 
ROOT
ATOM      1  O6B BDP d 216      30.538 -10.040  85.300  0.00  0.00    -0.646 OA
ATOM      2  C6  BDP d 216      29.884  -9.625  84.319  0.00  0.00     0.206 C 
ATOM      3  C3  BDP d 216      31.943 -11.043  81.366  0.00  0.00     0.092 C 
ATOM      4  O6A BDP d 216      28.719  -9.181  84.399  0.00  0.00    -0.646 OA
ATOM      5  O5  BDP d 216      31.559  -8.669  82.899  0.00  0.00    -0.340 OA
ATOM      6  C4  BDP d 216      31.127 -11.043  82.658  0.00  0.00     0.103 C 
ATOM      7  O2  BDP d 216      33.505  -9.765  80.057  0.00  0.00    -0.388 OA
ATOM      8  C5  BDP d 216      30.546  -9.656  82.945  0.00  0.00     0.152 C 
ATOM      9  O1  BDP d 216      33.040  -7.469  81.571  0.00  0.00    -0.368 OA
ATOM     10  O3  BDP d 216      32.673 -12.248  81.265  0.00  0.00    -0.390 OA
ATOM     11  C1  BDP d 216      32.148  -8.564  81.621  0.00  0.00     0.156 C 
ATOM     12  C2  BDP d 216      32.901  -9.855  81.327  0.00  0.00     0.110 C 
ATOM     13  H   BDP d 216      31.269 -10.961  80.540  0.00  0.00     0.091 H 
ATOM     14  H   BDP d 216      31.755 -11.285  83.489  0.00  0.00     0.092 H 
ATOM     15  H   BDP d 216      33.986 -10.586  79.868  0.00  0.00     0.210 HD
ATOM     16  H   BDP d 216      29.815  -9.449  82.192  0.00  0.00     0.104 H 
ATOM     17  H   BDP d 216      32.556  -6.649  81.758  0.00  0.00     0.212 HD
ATOM     18  H   BDP d 216      33.283 -12.320  82.016  0.00  0.00     0.210 HD
ATOM     19  H   BDP d 216      31.383  -8.406  80.889  0.00  0.00     0.133 H 
ATOM     20  H   BDP d 216      33.657 -10.001  82.070  0.00  0.00     0.094 H 
ATOM     21  O4  ASG d 217      29.975 -16.431  83.136  0.00  0.00    -0.246 OA
ATOM     22  O7  ASG d 217      26.839 -13.426  81.850  0.00  0.00    -0.274 OA
ATOM     23  O1  ASG d 217      30.129 -11.993  82.530  0.00  0.00    -0.348 OA
ATOM     24  C5  ASG d 217      31.527 -14.973  84.355  0.00  0.00     0.090 C 
ATOM     25  C1  ASG d 217      30.229 -13.026  83.496  0.00  0.00     0.154 C 
ATOM     26  C6  ASG d 217      32.856 -15.805  84.241  0.00  0.00     0.043 C 
ATOM     27  OSA ASG d 217      29.253 -18.561  84.321  0.00  0.00    -0.572 OA
ATOM     28  C3  ASG d 217      29.079 -14.876  84.802  0.00  0.00     0.094 C 
ATOM     29  C7  ASG d 217      26.762 -12.754  82.819  0.00  0.00     0.214 C 
ATOM     30  C2  ASG d 217      28.893 -13.802  83.738  0.00  0.00     0.087 C 
ATOM     31  O5  ASG d 217      31.368 -13.973  83.276  0.00  0.00    -0.349 OA
ATOM     32  OSB ASG d 217      31.088 -18.669  82.773  0.00  0.00    -0.572 OA
ATOM     33  OSC ASG d 217      28.837 -18.354  81.993  0.00  0.00    -0.572 OA
ATOM     34  C8  ASG d 217      25.522 -11.868  83.032  0.00  0.00    -0.003 C 
ATOM     35  S   ASG d 217      29.792 -18.064  83.055  0.00  0.00     0.252 S 
ATOM     36  O6  ASG d 217      34.021 -15.300  84.879  0.00  0.00    -0.398 OA
ATOM     37  C4  ASG d 217      30.213 -15.812  84.389  0.00  0.00     0.114 C 
ATOM     38  N   ASG d 217      27.727 -12.919  83.902  0.00  0.00    -0.349 N 
ATOM     39  H   ASG d 217      31.656 -14.496  85.304  0.00  0.00     0.090 H 
ATOM     40  H   ASG d 217      30.447 -12.491  84.397  0.00  0.00     0.132 H 
ATOM     41  H   ASG d 217      33.082 -15.902  83.199  0.00  0.00     0.078 H 
ATOM     42  H   ASG d 217      32.644 -16.717  84.759  0.00  0.00     0.078 H 
ATOM     43  H   ASG d 217      29.227 -14.384  85.740  0.00  0.00     0.091 H 
ATOM     44  H   ASG d 217      28.643 -14.335  82.844  0.00  0.00     0.084 H 
ATOM     45  H   ASG d 217      24.930 -11.862  82.141  0.00  0.00     0.040 H 
ATOM     46  H   ASG d 217      25.832 -10.870  83.261  0.00  0.00     0.040 H 
ATOM     47  H   ASG d 217      24.941 -12.256  83.844  0.00  0.00     0.040 H 
ATOM     48  H   ASG d 217      34.281 -14.463  84.462  0.00  0.00     0.209 HD
ATOM     49  H   ASG d 217      30.288 -16.610  85.099  0.00  0.00     0.093 H 
ATOM     50  H   ASG d 217      27.597 -12.435  84.749  0.00  0.00     0.163 HD
ATOM     51  C6  BDP d 218      27.411 -16.387  89.414  0.00  0.00     0.206 C 
ATOM     52  O3  BDP d 218      23.621 -16.861  86.325  0.00  0.00    -0.390 OA
ATOM     53  C1  BDP d 218      27.080 -15.586  85.809  0.00  0.00     0.160 C 
ATOM     54  C2  BDP d 218      25.774 -16.307  85.485  0.00  0.00     0.110 C 
ATOM     55  O6A BDP d 218      27.656 -15.532  90.294  0.00  0.00    -0.646 OA
ATOM     56  O1  BDP d 218      27.993 -15.745  84.740  0.00  0.00    -0.348 OA
ATOM     57  C3  BDP d 218      24.786 -16.132  86.624  0.00  0.00     0.092 C 
ATOM     58  O5  BDP d 218      27.596 -16.146  87.001  0.00  0.00    -0.340 OA
ATOM     59  C5  BDP d 218      26.750 -15.919  88.118  0.00  0.00     0.152 C 
ATOM     60  C4  BDP d 218      25.414 -16.628  87.923  0.00  0.00     0.103 C 
ATOM     61  O2  BDP d 218      25.206 -15.810  84.294  0.00  0.00    -0.388 OA
ATOM     62  O6B BDP d 218      27.658 -17.607  89.545  0.00  0.00    -0.646 OA
ATOM     63  H   BDP d 218      23.238 -16.531  85.497  0.00  0.00     0.210 HD
ATOM     64  H   BDP d 218      26.914 -14.538  85.943  0.00  0.00     0.133 H 
ATOM     65  H   BDP d 218      25.994 -17.347  85.355  0.00  0.00     0.094 H 
ATOM     66  H   BDP d 218      24.533 -15.099  86.744  0.00  0.00     0.091 H 
ATOM     67  H   BDP d 218      26.579 -14.866  88.193  0.00  0.00     0.104 H 
ATOM     68  H   BDP d 218      25.440 -17.697  87.882  0.00  0.00     0.092 H 
ATOM     69  H   BDP d 218      25.002 -14.867  84.402  0.00  0.00     0.210 HD
ATOM     70  O4  ASG d 221      27.240 -16.606 101.986  0.00  0.00    -0.249 OA
ATOM     71  OSB ASG d 221      29.387 -15.248 102.197  0.00  0.00    -0.572 OA
ATOM     72  OSC ASG d 221      27.551 -14.658 103.608  0.00  0.00    -0.572 OA
ATOM     73  C2  ASG d 221      25.740 -18.379 100.468  0.00  0.00     0.062 C 
ATOM     74  C1  ASG d 221      25.011 -17.257  99.650  0.00  0.00     0.151 C 
ATOM     75  C3  ASG d 221      25.461 -18.247 101.950  0.00  0.00    -0.014 C 
ATOM     76  O7  ASG d 221      26.462 -20.850 101.755  0.00  0.00    -0.274 OA
ATOM     77  C7  ASG d 221      25.771 -20.920 100.798  0.00  0.00     0.214 C 
ATOM     78  O6  ASG d 221      23.842 -13.585 101.852  0.00  0.00    -0.398 OA
ATOM     79  O1  ASG d 221      25.394 -17.196  98.280  0.00  0.00    -0.348 OA
ATOM     80  C5  ASG d 221      24.824 -15.960 101.806  0.00  0.00     0.088 C 
ATOM     81  C4  ASG d 221      25.915 -16.884 102.410  0.00  0.00     0.089 C 
ATOM     82  OSA ASG d 221      27.488 -14.173 101.268  0.00  0.00    -0.572 OA
ATOM     83  S   ASG d 221      27.933 -15.132 102.277  0.00  0.00     0.252 S 
ATOM     84  O5  ASG d 221      25.052 -15.926 100.345  0.00  0.00    -0.349 OA
ATOM     85  C8  ASG d 221      25.311 -22.301 100.300  0.00  0.00    -0.003 C 
ATOM     86  C6  ASG d 221      24.611 -14.575 102.520  0.00  0.00     0.043 C 
ATOM     87  N   ASG d 221      25.532 -19.746  99.959  0.00  0.00    -0.352 N 
ATOM     88  H   ASG d 221      26.786 -18.214 100.319  0.00  0.00     0.080 H 
ATOM     89  H   ASG d 221      23.981 -17.547  99.621  0.00  0.00     0.132 H 
ATOM     90  H   ASG d 221      25.995 -19.004 102.485  0.00  0.00     0.040 H 
ATOM     91  H   ASG d 221      24.413 -18.362 102.134  0.00  0.00     0.040 H 
ATOM     92  H   ASG d 221      23.792 -12.788 102.403  0.00  0.00     0.209 HD
ATOM     93  H   ASG d 221      23.857 -16.374 102.002  0.00  0.00     0.090 H 
ATOM     94  H   ASG d 221      25.991 -16.765 103.470  0.00  0.00     0.089 H 
ATOM     95  H   ASG d 221      25.561 -23.044 101.028  0.00  0.00     0.040 H 
ATOM     96  H   ASG d 221      25.800 -22.528  99.376  0.00  0.00     0.040 H 
ATOM     97  H   ASG d 221      24.252 -22.291 100.149  0.00  0.00     0.040 H 
ATOM     98  H   ASG d 221      24.130 -14.771 103.456  0.00  0.00     0.078 H 
ATOM     99  H   ASG d 221      25.592 -14.154 102.577  0.00  0.00     0.078 H 
ATOM    100  H   ASG d 221      25.224 -19.873  99.032  0.00  0.00     0.163 HD
ATOM    101  O5  BDP d 220      23.692 -18.051  95.304  0.00  0.00    -0.340 OA
ATOM    102  C5  BDP d 220      24.648 -18.123  96.343  0.00  0.00     0.152 C 
ATOM    103  C6  BDP d 220      24.695 -19.533  96.926  0.00  0.00     0.206 C 
ATOM    104  C1  BDP d 220      23.850 -16.873  94.543  0.00  0.00     0.160 C 
ATOM    105  C3  BDP d 220      24.363 -15.697  96.758  0.00  0.00     0.092 C 
ATOM    106  O2  BDP d 220      23.851 -14.489  94.730  0.00  0.00    -0.388 OA
ATOM    107  O6B BDP d 220      23.631 -20.024  97.376  0.00  0.00    -0.646 OA
ATOM    108  C2  BDP d 220      23.571 -15.673  95.444  0.00  0.00     0.110 C 
ATOM    109  O3  BDP d 220      23.825 -14.741  97.654  0.00  0.00    -0.390 OA
ATOM    110  O1  BDP d 220      22.938 -16.855  93.454  0.00  0.00    -0.348 OA
ATOM    111  O6A BDP d 220      25.801 -20.125  96.926  0.00  0.00    -0.646 OA
ATOM    112  C4  BDP d 220      24.321 -17.081  97.408  0.00  0.00     0.103 C 
ATOM    113  H   BDP d 220      25.620 -17.909  95.951  0.00  0.00     0.104 H 
ATOM    114  H   BDP d 220      24.847 -16.833  94.156  0.00  0.00     0.133 H 
ATOM    115  H   BDP d 220      25.383 -15.461  96.536  0.00  0.00     0.091 H 
ATOM    116  H   BDP d 220      23.346 -14.485  93.902  0.00  0.00     0.210 HD
ATOM    117  H   BDP d 220      22.538 -15.717  95.722  0.00  0.00     0.094 H 
ATOM    118  H   BDP d 220      22.902 -14.964  97.849  0.00  0.00     0.210 HD
ATOM    119  H   BDP d 220      23.367 -17.212  97.873  0.00  0.00     0.092 H 
ATOM    120  OSC ASG d 219      18.627 -17.085  91.159  0.00  0.00    -0.572 OA
ATOM    121  C5  ASG d 219      22.814 -18.962  90.424  0.00  0.00     0.090 C 
ATOM    122  C3  ASG d 219      23.431 -17.460  92.304  0.00  0.00     0.094 C 
ATOM    123  C6  ASG d 219      21.813 -20.011  89.833  0.00  0.00     0.043 C 
ATOM    124  C7  ASG d 219      24.880 -14.037  91.698  0.00  0.00     0.214 C 
ATOM    125  C4  ASG d 219      22.273 -18.225  91.680  0.00  0.00     0.114 C 
ATOM    126  S   ASG d 219      19.630 -17.905  91.836  0.00  0.00     0.252 S 
ATOM    127  C8  ASG d 219      26.035 -13.123  92.153  0.00  0.00    -0.003 C 
ATOM    128  O7  ASG d 219      23.942 -13.573  91.153  0.00  0.00    -0.274 OA
ATOM    129  O6  ASG d 219      22.113 -20.613  88.582  0.00  0.00    -0.398 OA
ATOM    130  OSB ASG d 219      19.356 -19.293  91.466  0.00  0.00    -0.572 OA
ATOM    131  O1  ASG d 219      24.729 -16.066  88.988  0.00  0.00    -0.348 OA
ATOM    132  O4  ASG d 219      21.143 -17.435  91.349  0.00  0.00    -0.246 OA
ATOM    133  OSA ASG d 219      19.587 -17.716  93.288  0.00  0.00    -0.572 OA
ATOM    134  O5  ASG d 219      23.194 -17.906  89.462  0.00  0.00    -0.349 OA
ATOM    135  N   ASG d 219      24.946 -15.481  91.909  0.00  0.00    -0.349 N 
ATOM    136  C2  ASG d 219      23.922 -16.384  91.349  0.00  0.00     0.087 C 
ATOM    137  C1  ASG d 219      24.293 -17.012  89.955  0.00  0.00     0.154 C 
ATOM    138  H   ASG d 219      23.661 -19.564  90.680  0.00  0.00     0.090 H 
ATOM    139  H   ASG d 219      24.246 -18.119  92.521  0.00  0.00     0.091 H 
ATOM    140  H   ASG d 219      20.868 -19.520  89.726  0.00  0.00     0.078 H 
ATOM    141  H   ASG d 219      21.849 -20.824  90.527  0.00  0.00     0.078 H 
ATOM    142  H   ASG d 219      21.908 -18.909  92.417  0.00  0.00     0.093 H 
ATOM    143  H   ASG d 219      26.793 -13.713  92.624  0.00  0.00     0.040 H 
ATOM    144  H   ASG d 219      25.664 -12.398  92.847  0.00  0.00     0.040 H 
ATOM    145  H   ASG d 219      26.450 -12.622  91.303  0.00  0.00     0.040 H 
ATOM    146  H   ASG d 219      22.102 -19.937  87.886  0.00  0.00     0.209 HD
ATOM    147  H   ASG d 219      25.687 -15.859  92.435  0.00  0.00     0.163 HD
ATOM    148  H   ASG d 219      23.103 -15.716  91.185  0.00  0.00     0.084 H 
ATOM    149  H   ASG d 219      25.157 -17.623  90.116  0.00  0.00     0.132 H 
ENDROOT
TORSDOF 38
ENDMDL
MODEL 56
REMARK VINA RESULT:      -6.0      3.893     15.530
REMARK  0 active torsions:
REMARK  status: ('A' for Active; 'I' for Inactive)
REMARK       I    between atoms: C6_2  and  C5_55 
REMARK       I    between atoms: O4_3  and  C4_83 
REMARK       I    between atoms: O4_3  and  S_75 
REMARK       I    between atoms: C6_4  and  C5_67 
REMARK       I    between atoms: O4_5  and  C4_61 
REMARK       I    between atoms: O4_5  and  S_71 
REMARK       I    between atoms: O3_6  and  C3_32 
REMARK       I    between atoms: C1_8  and  O1_30 
REMARK       I    between atoms: C3_12  and  O3_62 
REMARK       I    between atoms: C5_13  and  C6_25 
REMARK       I    between atoms: O1_14  and  C4_39 
REMARK       I    between atoms: O1_14  and  C1_23 
REMARK       I    between atoms: C5_15  and  C6_27 
REMARK       I    between atoms: C5_18  and  C6_44 
REMARK       I    between atoms: C3_19  and  O1_82 
REMARK       I    between atoms: C2_20  and  N_89 
REMARK       I    between atoms: C2_21  and  O2_80 
REMARK       I    between atoms: C1_24  and  O1_45 
REMARK       I    between atoms: C6_25  and  O6_48 
REMARK       I    between atoms: C6_27  and  O6_77 
REMARK       I    between atoms: C7_28  and  C8_35 
REMARK       I    between atoms: C7_28  and  N_70 
REMARK       I    between atoms: O1_30  and  C3_43 
REMARK       I    between atoms: C4_33  and  O4_53 
REMARK       I    between atoms: S_34  and  O4_53 
REMARK       I    between atoms: O2_40  and  C2_87 
REMARK       I    between atoms: C7_41  and  C8_81 
REMARK       I    between atoms: C7_41  and  N_89 
REMARK       I    between atoms: O6_42  and  C6_88 
REMARK       I    between atoms: O1_45  and  C4_90 
REMARK       I    between atoms: C7_46  and  C8_69 
REMARK       I    between atoms: C7_46  and  N_85 
REMARK       I    between atoms: C2_47  and  N_85 
REMARK       I    between atoms: O1_50  and  C4_73 
REMARK       I    between atoms: O1_50  and  C1_76 
REMARK       I    between atoms: C1_52  and  O1_82 
REMARK       I    between atoms: C3_54  and  O3_72 
REMARK       I    between atoms: C5_57  and  C6_88 
REMARK       I    between atoms: O1_59  and  C1_78 
REMARK       I    between atoms: O2_63  and  C2_68 
REMARK       I    between atoms: N_70  and  C2_74 
ROOT
ATOM      1  O6B BDP d 216      25.250  -8.998  84.988  0.00  0.00    -0.646 OA
ATOM      2  C6  BDP d 216      24.571  -9.616  84.140  0.00  0.00     0.206 C 
ATOM      3  C3  BDP d 216      27.083  -9.918  81.213  0.00  0.00     0.092 C 
ATOM      4  O6A BDP d 216      23.510 -10.219  84.407  0.00  0.00    -0.646 OA
ATOM      5  O5  BDP d 216      24.891  -8.344  82.137  0.00  0.00    -0.340 OA
ATOM      6  C4  BDP d 216      26.528 -10.064  82.629  0.00  0.00     0.103 C 
ATOM      7  O2  BDP d 216      27.073  -8.512  79.260  0.00  0.00    -0.388 OA
ATOM      8  C5  BDP d 216      25.061  -9.633  82.695  0.00  0.00     0.152 C 
ATOM      9  O1  BDP d 216      24.895  -7.051  80.207  0.00  0.00    -0.368 OA
ATOM     10  O3  BDP d 216      28.487 -10.069  81.235  0.00  0.00    -0.390 OA
ATOM     11  C1  BDP d 216      25.224  -8.307  80.765  0.00  0.00     0.156 C 
ATOM     12  C2  BDP d 216      26.720  -8.557  80.623  0.00  0.00     0.110 C 
ATOM     13  H   BDP d 216      26.650 -10.679  80.599  0.00  0.00     0.091 H 
ATOM     14  H   BDP d 216      27.062  -9.424  83.300  0.00  0.00     0.092 H 
ATOM     15  H   BDP d 216      28.026  -8.671  79.167  0.00  0.00     0.210 HD
ATOM     16  H   BDP d 216      24.490 -10.342  82.133  0.00  0.00     0.104 H 
ATOM     17  H   BDP d 216      23.941  -6.896  80.299  0.00  0.00     0.212 HD
ATOM     18  H   BDP d 216      28.878  -9.378  81.792  0.00  0.00     0.210 HD
ATOM     19  H   BDP d 216      24.671  -9.060  80.244  0.00  0.00     0.133 H 
ATOM     20  H   BDP d 216      27.257  -7.800  81.155  0.00  0.00     0.094 H 
ATOM     21  O4  ASG d 217      30.094 -13.724  84.747  0.00  0.00    -0.246 OA
ATOM     22  O7  ASG d 217      25.868 -14.894  83.606  0.00  0.00    -0.274 OA
ATOM     23  O1  ASG d 217      26.686 -11.383  83.013  0.00  0.00    -0.348 OA
ATOM     24  C5  ASG d 217      29.815 -11.312  85.104  0.00  0.00     0.090 C 
ATOM     25  C1  ASG d 217      27.523 -11.528  84.149  0.00  0.00     0.154 C 
ATOM     26  C6  ASG d 217      31.286 -10.812  84.862  0.00  0.00     0.043 C 
ATOM     27  OSA ASG d 217      31.294 -15.010  86.581  0.00  0.00    -0.572 OA
ATOM     28  C3  ASG d 217      28.237 -12.938  86.137  0.00  0.00     0.094 C 
ATOM     29  C7  ASG d 217      25.242 -14.230  84.357  0.00  0.00     0.214 C 
ATOM     30  C2  ASG d 217      27.321 -12.872  84.921  0.00  0.00     0.087 C 
ATOM     31  O5  ASG d 217      28.975 -11.272  83.887  0.00  0.00    -0.349 OA
ATOM     32  OSB ASG d 217      32.563 -14.250  84.687  0.00  0.00    -0.572 OA
ATOM     33  OSC ASG d 217      30.988 -16.052  84.470  0.00  0.00    -0.572 OA
ATOM     34  C8  ASG d 217      23.777 -14.598  84.655  0.00  0.00    -0.003 C 
ATOM     35  S   ASG d 217      31.285 -14.790  85.135  0.00  0.00     0.252 S 
ATOM     36  O6  ASG d 217      31.558  -9.426  85.023  0.00  0.00    -0.398 OA
ATOM     37  C4  ASG d 217      29.686 -12.750  85.693  0.00  0.00     0.114 C 
ATOM     38  N   ASG d 217      25.905 -13.204  85.155  0.00  0.00    -0.349 N 
ATOM     39  H   ASG d 217      29.469 -10.609  85.833  0.00  0.00     0.090 H 
ATOM     40  H   ASG d 217      27.187 -10.743  84.794  0.00  0.00     0.132 H 
ATOM     41  H   ASG d 217      31.549 -11.072  83.858  0.00  0.00     0.078 H 
ATOM     42  H   ASG d 217      31.858 -11.286  85.632  0.00  0.00     0.078 H 
ATOM     43  H   ASG d 217      27.890 -12.217  86.846  0.00  0.00     0.091 H 
ATOM     44  H   ASG d 217      27.635 -13.678  84.291  0.00  0.00     0.084 H 
ATOM     45  H   ASG d 217      23.457 -15.363  83.979  0.00  0.00     0.040 H 
ATOM     46  H   ASG d 217      23.161 -13.733  84.533  0.00  0.00     0.040 H 
ATOM     47  H   ASG d 217      23.697 -14.955  85.661  0.00  0.00     0.040 H 
ATOM     48  H   ASG d 217      31.070  -8.921  84.354  0.00  0.00     0.209 HD
ATOM     49  H   ASG d 217      30.332 -12.876  86.537  0.00  0.00     0.093 H 
ATOM     50  H   ASG d 217      25.402 -12.728  85.854  0.00  0.00     0.163 HD
ATOM     51  C6  BDP d 218      28.211 -13.355  91.251  0.00  0.00     0.206 C 
ATOM     52  O3  BDP d 218      26.442 -17.585  89.488  0.00  0.00    -0.390 OA
ATOM     53  C1  BDP d 218      27.545 -14.468  87.779  0.00  0.00     0.160 C 
ATOM     54  C2  BDP d 218      27.344 -15.965  88.002  0.00  0.00     0.110 C 
ATOM     55  O6A BDP d 218      27.638 -12.381  91.789  0.00  0.00    -0.646 OA
ATOM     56  O1  BDP d 218      28.273 -14.256  86.585  0.00  0.00    -0.348 OA
ATOM     57  C3  BDP d 218      26.553 -16.199  89.277  0.00  0.00     0.092 C 
ATOM     58  O5  BDP d 218      28.245 -13.957  88.896  0.00  0.00    -0.340 OA
ATOM     59  C5  BDP d 218      27.500 -14.063  90.099  0.00  0.00     0.152 C 
ATOM     60  C4  BDP d 218      27.265 -15.530  90.447  0.00  0.00     0.103 C 
ATOM     61  O2  BDP d 218      26.661 -16.550  86.916  0.00  0.00    -0.388 OA
ATOM     62  O6B BDP d 218      29.324 -13.794  91.619  0.00  0.00    -0.646 OA
ATOM     63  H   BDP d 218      25.988 -17.992  88.734  0.00  0.00     0.210 HD
ATOM     64  H   BDP d 218      26.605 -13.967  87.680  0.00  0.00     0.133 H 
ATOM     65  H   BDP d 218      28.309 -16.419  88.089  0.00  0.00     0.094 H 
ATOM     66  H   BDP d 218      25.574 -15.777  89.191  0.00  0.00     0.091 H 
ATOM     67  H   BDP d 218      26.556 -13.586  89.946  0.00  0.00     0.104 H 
ATOM     68  H   BDP d 218      28.133 -16.113  90.674  0.00  0.00     0.092 H 
ATOM     69  H   BDP d 218      25.783 -16.145  86.830  0.00  0.00     0.210 HD
ATOM     70  O4  ASG d 221      27.687  -9.053 103.056  0.00  0.00    -0.249 OA
ATOM     71  OSB ASG d 221      27.896  -6.614 102.345  0.00  0.00    -0.572 OA
ATOM     72  OSC ASG d 221      26.250  -7.159 103.989  0.00  0.00    -0.572 OA
ATOM     73  C2  ASG d 221      28.262 -11.707 102.487  0.00  0.00     0.062 C 
ATOM     74  C1  ASG d 221      26.968 -11.934 101.631  0.00  0.00     0.151 C 
ATOM     75  C3  ASG d 221      27.918 -11.308 103.906  0.00  0.00    -0.014 C 
ATOM     76  O7  ASG d 221      30.602 -12.058 104.125  0.00  0.00    -0.274 OA
ATOM     77  C7  ASG d 221      30.286 -12.964 103.432  0.00  0.00     0.214 C 
ATOM     78  O6  ASG d 221      23.237  -9.994 103.053  0.00  0.00    -0.398 OA
ATOM     79  O1  ASG d 221      27.216 -12.108 100.239  0.00  0.00    -0.348 OA
ATOM     80  C5  ASG d 221      25.722 -10.579 103.357  0.00  0.00     0.088 C 
ATOM     81  C4  ASG d 221      27.088 -10.049 103.869  0.00  0.00     0.089 C 
ATOM     82  OSA ASG d 221      25.937  -7.787 101.704  0.00  0.00    -0.572 OA
ATOM     83  S   ASG d 221      26.921  -7.615 102.771  0.00  0.00     0.252 S 
ATOM     84  O5  ASG d 221      25.902 -10.918 101.928  0.00  0.00    -0.349 OA
ATOM     85  C8  ASG d 221      31.129 -14.250 103.441  0.00  0.00    -0.003 C 
ATOM     86  C6  ASG d 221      24.458  -9.719 103.725  0.00  0.00     0.043 C 
ATOM     87  N   ASG d 221      29.247 -12.801 102.415  0.00  0.00    -0.352 N 
ATOM     88  H   ASG d 221      28.771 -10.883 102.033  0.00  0.00     0.080 H 
ATOM     89  H   ASG d 221      26.577 -12.878 101.946  0.00  0.00     0.132 H 
ATOM     90  H   ASG d 221      28.818 -11.129 104.457  0.00  0.00     0.040 H 
ATOM     91  H   ASG d 221      27.367 -12.092 104.381  0.00  0.00     0.040 H 
ATOM     92  H   ASG d 221      22.548  -9.393 103.375  0.00  0.00     0.209 HD
ATOM     93  H   ASG d 221      25.456 -11.464 103.897  0.00  0.00     0.090 H 
ATOM     94  H   ASG d 221      26.989  -9.543 104.806  0.00  0.00     0.089 H 
ATOM     95  H   ASG d 221      31.836 -14.207 104.242  0.00  0.00     0.040 H 
ATOM     96  H   ASG d 221      31.649 -14.342 102.510  0.00  0.00     0.040 H 
ATOM     97  H   ASG d 221      30.488 -15.096 103.575  0.00  0.00     0.040 H 
ATOM     98  H   ASG d 221      24.279  -9.850 104.772  0.00  0.00     0.078 H 
ATOM     99  H   ASG d 221      24.714  -8.728 103.413  0.00  0.00     0.078 H 
ATOM    100  H   ASG d 221      29.206 -13.437 101.665  0.00  0.00     0.163 HD
ATOM    101  O5  BDP d 220      27.007 -14.936  98.131  0.00  0.00    -0.340 OA
ATOM    102  C5  BDP d 220      27.593 -13.881  98.867  0.00  0.00     0.152 C 
ATOM    103  C6  BDP d 220      28.714 -14.411  99.757  0.00  0.00     0.206 C 
ATOM    104  C1  BDP d 220      26.201 -14.445  97.082  0.00  0.00     0.160 C 
ATOM    105  C3  BDP d 220      25.473 -12.609  98.711  0.00  0.00     0.092 C 
ATOM    106  O2  BDP d 220      24.298 -13.064  96.650  0.00  0.00    -0.388 OA
ATOM    107  O6B BDP d 220      28.441 -15.318 100.579  0.00  0.00    -0.646 OA
ATOM    108  C2  BDP d 220      25.037 -13.667  97.689  0.00  0.00     0.110 C 
ATOM    109  O3  BDP d 220      24.345 -12.163  99.443  0.00  0.00    -0.390 OA
ATOM    110  O1  BDP d 220      25.688 -15.515  96.303  0.00  0.00    -0.348 OA
ATOM    111  O6A BDP d 220      29.855 -13.905  99.618  0.00  0.00    -0.646 OA
ATOM    112  C4  BDP d 220      26.517 -13.167  99.679  0.00  0.00     0.103 C 
ATOM    113  H   BDP d 220      28.029 -13.173  98.193  0.00  0.00     0.104 H 
ATOM    114  H   BDP d 220      26.791 -13.813  96.451  0.00  0.00     0.133 H 
ATOM    115  H   BDP d 220      25.912 -11.793  98.177  0.00  0.00     0.091 H 
ATOM    116  H   BDP d 220      24.029 -13.741  96.010  0.00  0.00     0.210 HD
ATOM    117  H   BDP d 220      24.434 -14.368  98.229  0.00  0.00     0.094 H 
ATOM    118  H   BDP d 220      23.954 -12.910  99.923  0.00  0.00     0.210 HD
ATOM    119  H   BDP d 220      26.022 -13.789 100.396  0.00  0.00     0.092 H 
ATOM    120  OSC ASG d 219      23.373 -19.715  95.353  0.00  0.00    -0.572 OA
ATOM    121  C5  ASG d 219      27.431 -17.865  94.051  0.00  0.00     0.090 C 
ATOM    122  C3  ASG d 219      26.521 -15.894  95.257  0.00  0.00     0.094 C 
ATOM    123  C6  ASG d 219      27.688 -19.410  94.029  0.00  0.00     0.043 C 
ATOM    124  C7  ASG d 219      24.704 -13.139  93.443  0.00  0.00     0.214 C 
ATOM    125  C4  ASG d 219      26.458 -17.411  95.174  0.00  0.00     0.114 C 
ATOM    126  S   ASG d 219      24.599 -19.167  95.929  0.00  0.00     0.252 S 
ATOM    127  C8  ASG d 219      24.654 -11.601  93.331  0.00  0.00    -0.003 C 
ATOM    128  O7  ASG d 219      23.794 -13.786  93.063  0.00  0.00    -0.274 OA
ATOM    129  O6  ASG d 219      28.407 -19.968  92.939  0.00  0.00    -0.398 OA
ATOM    130  OSB ASG d 219      25.554 -20.271  96.010  0.00  0.00    -0.572 OA
ATOM    131  O1  ASG d 219      26.354 -15.350  91.476  0.00  0.00    -0.348 OA
ATOM    132  O4  ASG d 219      25.163 -17.946  94.960  0.00  0.00    -0.246 OA
ATOM    133  OSA ASG d 219      24.354 -18.570  97.245  0.00  0.00    -0.572 OA
ATOM    134  O5  ASG d 219      26.867 -17.346  92.787  0.00  0.00    -0.349 OA
ATOM    135  N   ASG d 219      25.882 -13.808  93.989  0.00  0.00    -0.349 N 
ATOM    136  C2  ASG d 219      26.008 -15.277  93.966  0.00  0.00     0.087 C 
ATOM    137  C1  ASG d 219      26.797 -15.849  92.731  0.00  0.00     0.154 C 
ATOM    138  H   ASG d 219      28.410 -17.466  94.220  0.00  0.00     0.090 H 
ATOM    139  H   ASG d 219      27.527 -15.565  95.414  0.00  0.00     0.091 H 
ATOM    140  H   ASG d 219      26.731 -19.889  94.053  0.00  0.00     0.078 H 
ATOM    141  H   ASG d 219      28.323 -19.579  94.873  0.00  0.00     0.078 H 
ATOM    142  H   ASG d 219      26.747 -17.795  96.130  0.00  0.00     0.093 H 
ATOM    143  H   ASG d 219      25.560 -11.185  93.721  0.00  0.00     0.040 H 
ATOM    144  H   ASG d 219      23.821 -11.231  93.890  0.00  0.00     0.040 H 
ATOM    145  H   ASG d 219      24.547 -11.322  92.304  0.00  0.00     0.040 H 
ATOM    146  H   ASG d 219      27.895 -19.856  92.123  0.00  0.00     0.209 HD
ATOM    147  H   ASG d 219      26.607 -13.268  94.381  0.00  0.00     0.163 HD
ATOM    148  H   ASG d 219      24.989 -15.585  93.857  0.00  0.00     0.084 H 
ATOM    149  H   ASG d 219      27.798 -15.477  92.810  0.00  0.00     0.132 H 
ENDROOT
TORSDOF 38
ENDMDL
MODEL 57
REMARK VINA RESULT:      -6.0      3.051     15.605
REMARK  0 active torsions:
REMARK  status: ('A' for Active; 'I' for Inactive)
REMARK       I    between atoms: C6_2  and  C5_55 
REMARK       I    between atoms: O4_3  and  C4_83 
REMARK       I    between atoms: O4_3  and  S_75 
REMARK       I    between atoms: C6_4  and  C5_67 
REMARK       I    between atoms: O4_5  and  C4_61 
REMARK       I    between atoms: O4_5  and  S_71 
REMARK       I    between atoms: O3_6  and  C3_32 
REMARK       I    between atoms: C1_8  and  O1_30 
REMARK       I    between atoms: C3_12  and  O3_62 
REMARK       I    between atoms: C5_13  and  C6_25 
REMARK       I    between atoms: O1_14  and  C4_39 
REMARK       I    between atoms: O1_14  and  C1_23 
REMARK       I    between atoms: C5_15  and  C6_27 
REMARK       I    between atoms: C5_18  and  C6_44 
REMARK       I    between atoms: C3_19  and  O1_82 
REMARK       I    between atoms: C2_20  and  N_89 
REMARK       I    between atoms: C2_21  and  O2_80 
REMARK       I    between atoms: C1_24  and  O1_45 
REMARK       I    between atoms: C6_25  and  O6_48 
REMARK       I    between atoms: C6_27  and  O6_77 
REMARK       I    between atoms: C7_28  and  C8_35 
REMARK       I    between atoms: C7_28  and  N_70 
REMARK       I    between atoms: O1_30  and  C3_43 
REMARK       I    between atoms: C4_33  and  O4_53 
REMARK       I    between atoms: S_34  and  O4_53 
REMARK       I    between atoms: O2_40  and  C2_87 
REMARK       I    between atoms: C7_41  and  C8_81 
REMARK       I    between atoms: C7_41  and  N_89 
REMARK       I    between atoms: O6_42  and  C6_88 
REMARK       I    between atoms: O1_45  and  C4_90 
REMARK       I    between atoms: C7_46  and  C8_69 
REMARK       I    between atoms: C7_46  and  N_85 
REMARK       I    between atoms: C2_47  and  N_85 
REMARK       I    between atoms: O1_50  and  C4_73 
REMARK       I    between atoms: O1_50  and  C1_76 
REMARK       I    between atoms: C1_52  and  O1_82 
REMARK       I    between atoms: C3_54  and  O3_72 
REMARK       I    between atoms: C5_57  and  C6_88 
REMARK       I    between atoms: O1_59  and  C1_78 
REMARK       I    between atoms: O2_63  and  C2_68 
REMARK       I    between atoms: N_70  and  C2_74 
ROOT
ATOM      1  O6B BDP d 216      26.017  -9.816  81.899  0.00  0.00    -0.646 OA
ATOM      2  C6  BDP d 216      25.502 -10.534  81.014  0.00  0.00     0.206 C 
ATOM      3  C3  BDP d 216      28.333 -10.660  78.380  0.00  0.00     0.092 C 
ATOM      4  O6A BDP d 216      24.487 -11.239  81.197  0.00  0.00    -0.646 OA
ATOM      5  O5  BDP d 216      25.902  -9.303  78.999  0.00  0.00    -0.340 OA
ATOM      6  C4  BDP d 216      27.647 -10.817  79.736  0.00  0.00     0.103 C 
ATOM      7  O2  BDP d 216      28.387  -9.331  76.375  0.00  0.00    -0.388 OA
ATOM      8  C5  BDP d 216      26.145 -10.546  79.630  0.00  0.00     0.152 C 
ATOM      9  O1  BDP d 216      25.979  -8.083  77.023  0.00  0.00    -0.368 OA
ATOM     10  O3  BDP d 216      29.735 -10.656  78.554  0.00  0.00    -0.390 OA
ATOM     11  C1  BDP d 216      26.376  -9.276  77.670  0.00  0.00     0.156 C 
ATOM     12  C2  BDP d 216      27.895  -9.367  77.695  0.00  0.00     0.110 C 
ATOM     13  H   BDP d 216      28.050 -11.484  77.760  0.00  0.00     0.091 H 
ATOM     14  H   BDP d 216      28.035 -10.100  80.429  0.00  0.00     0.092 H 
ATOM     15  H   BDP d 216      29.356  -9.388  76.389  0.00  0.00     0.210 HD
ATOM     16  H   BDP d 216      25.714 -11.331  79.045  0.00  0.00     0.104 H 
ATOM     17  H   BDP d 216      25.010  -8.030  77.009  0.00  0.00     0.212 HD
ATOM     18  H   BDP d 216      29.989  -9.908  79.118  0.00  0.00     0.210 HD
ATOM     19  H   BDP d 216      25.963 -10.102  77.128  0.00  0.00     0.133 H 
ATOM     20  H   BDP d 216      28.290  -8.538  78.244  0.00  0.00     0.094 H 
ATOM     21  O4  ASG d 217      31.325 -13.993  82.376  0.00  0.00    -0.246 OA
ATOM     22  O7  ASG d 217      27.393 -15.654  80.857  0.00  0.00    -0.274 OA
ATOM     23  O1  ASG d 217      27.900 -12.098  80.194  0.00  0.00    -0.348 OA
ATOM     24  C5  ASG d 217      30.760 -11.616  82.593  0.00  0.00     0.090 C 
ATOM     25  C1  ASG d 217      28.619 -12.111  81.416  0.00  0.00     0.154 C 
ATOM     26  C6  ASG d 217      32.187 -10.967  82.482  0.00  0.00     0.043 C 
ATOM     27  OSA ASG d 217      32.449 -15.079  84.381  0.00  0.00    -0.572 OA
ATOM     28  C3  ASG d 217      29.257 -13.368  83.529  0.00  0.00     0.094 C 
ATOM     29  C7  ASG d 217      26.624 -15.037  81.509  0.00  0.00     0.214 C 
ATOM     30  C2  ASG d 217      28.476 -13.442  82.223  0.00  0.00     0.087 C 
ATOM     31  O5  ASG d 217      30.056 -11.709  81.295  0.00  0.00    -0.349 OA
ATOM     32  OSB ASG d 217      33.828 -14.250  82.596  0.00  0.00    -0.572 OA
ATOM     33  OSC ASG d 217      32.483 -16.219  82.299  0.00  0.00    -0.572 OA
ATOM     34  C8  ASG d 217      25.182 -15.552  81.670  0.00  0.00    -0.003 C 
ATOM     35  S   ASG d 217      32.572 -14.910  82.933  0.00  0.00     0.252 S 
ATOM     36  O6  ASG d 217      32.294  -9.556  82.607  0.00  0.00    -0.398 OA
ATOM     37  C4  ASG d 217      30.718 -13.038  83.230  0.00  0.00     0.114 C 
ATOM     38  N   ASG d 217      27.087 -13.918  82.323  0.00  0.00    -0.349 N 
ATOM     39  H   ASG d 217      30.265 -10.930  83.249  0.00  0.00     0.090 H 
ATOM     40  H   ASG d 217      28.135 -11.346  81.987  0.00  0.00     0.132 H 
ATOM     41  H   ASG d 217      32.583 -11.231  81.523  0.00  0.00     0.078 H 
ATOM     42  H   ASG d 217      32.719 -11.350  83.328  0.00  0.00     0.078 H 
ATOM     43  H   ASG d 217      28.763 -12.664  84.165  0.00  0.00     0.091 H 
ATOM     44  H   ASG d 217      28.939 -14.230  81.666  0.00  0.00     0.084 H 
ATOM     45  H   ASG d 217      25.019 -16.369  80.999  0.00  0.00     0.040 H 
ATOM     46  H   ASG d 217      24.495 -14.763  81.445  0.00  0.00     0.040 H 
ATOM     47  H   ASG d 217      25.031 -15.881  82.677  0.00  0.00     0.040 H 
ATOM     48  H   ASG d 217      31.832  -9.129  81.869  0.00  0.00     0.209 HD
ATOM     49  H   ASG d 217      31.279 -13.064  84.141  0.00  0.00     0.093 H 
ATOM     50  H   ASG d 217      26.463 -13.477  82.945  0.00  0.00     0.163 HD
ATOM     51  C6  BDP d 218      28.724 -13.611  88.627  0.00  0.00     0.206 C 
ATOM     52  O3  BDP d 218      27.607 -18.065  86.884  0.00  0.00    -0.390 OA
ATOM     53  C1  BDP d 218      28.556 -14.907  85.158  0.00  0.00     0.160 C 
ATOM     54  C2  BDP d 218      28.490 -16.408  85.427  0.00  0.00     0.110 C 
ATOM     55  O6A BDP d 218      27.998 -12.687  89.057  0.00  0.00    -0.646 OA
ATOM     56  O1  BDP d 218      29.383 -14.657  84.037  0.00  0.00    -0.348 OA
ATOM     57  C3  BDP d 218      27.595 -16.684  86.622  0.00  0.00     0.092 C 
ATOM     58  O5  BDP d 218      29.075 -14.285  86.317  0.00  0.00    -0.340 OA
ATOM     59  C5  BDP d 218      28.220 -14.431  87.440  0.00  0.00     0.152 C 
ATOM     60  C4  BDP d 218      28.103 -15.902  87.829  0.00  0.00     0.103 C 
ATOM     61  O2  BDP d 218      27.993 -17.100  84.303  0.00  0.00    -0.388 OA
ATOM     62  O6B BDP d 218      29.830 -13.913  89.127  0.00  0.00    -0.646 OA
ATOM     63  H   BDP d 218      27.281 -18.544  86.105  0.00  0.00     0.210 HD
ATOM     64  H   BDP d 218      27.585 -14.515  84.940  0.00  0.00     0.133 H 
ATOM     65  H   BDP d 218      29.482 -16.751  85.633  0.00  0.00     0.094 H 
ATOM     66  H   BDP d 218      26.591 -16.374  86.416  0.00  0.00     0.091 H 
ATOM     67  H   BDP d 218      27.252 -14.064  87.169  0.00  0.00     0.104 H 
ATOM     68  H   BDP d 218      28.997 -16.379  88.170  0.00  0.00     0.092 H 
ATOM     69  H   BDP d 218      27.092 -16.796  84.108  0.00  0.00     0.210 HD
ATOM     70  O4  ASG d 221      26.483  -8.992 100.106  0.00  0.00    -0.249 OA
ATOM     71  OSB ASG d 221      26.511  -6.571  99.311  0.00  0.00    -0.572 OA
ATOM     72  OSC ASG d 221      24.763  -7.235 100.798  0.00  0.00    -0.572 OA
ATOM     73  C2  ASG d 221      27.389 -11.586  99.720  0.00  0.00     0.062 C 
ATOM     74  C1  ASG d 221      26.226 -11.981  98.747  0.00  0.00     0.151 C 
ATOM     75  C3  ASG d 221      26.854 -11.178 101.077  0.00  0.00    -0.014 C 
ATOM     76  O7  ASG d 221      29.563 -11.625 101.607  0.00  0.00    -0.274 OA
ATOM     77  C7  ASG d 221      29.419 -12.582 100.927  0.00  0.00     0.214 C 
ATOM     78  O6  ASG d 221      22.181 -10.411  99.684  0.00  0.00    -0.398 OA
ATOM     79  O1  ASG d 221      26.639 -12.174  97.397  0.00  0.00    -0.348 OA
ATOM     80  C5  ASG d 221      24.666 -10.712 100.271  0.00  0.00     0.088 C 
ATOM     81  C4  ASG d 221      25.906 -10.019 100.897  0.00  0.00     0.089 C 
ATOM     82  OSA ASG d 221      24.765  -7.971  98.524  0.00  0.00    -0.572 OA
ATOM     83  S   ASG d 221      25.605  -7.656  99.678  0.00  0.00     0.252 S 
ATOM     84  O5  ASG d 221      25.034 -11.078  98.885  0.00  0.00    -0.349 OA
ATOM     85  C8  ASG d 221      30.386 -13.768 101.081  0.00  0.00    -0.003 C 
ATOM     86  C6  ASG d 221      23.287  -9.982 100.466  0.00  0.00     0.043 C 
ATOM     87  N   ASG d 221      28.485 -12.568  99.801  0.00  0.00    -0.352 N 
ATOM     88  H   ASG d 221      27.855 -10.727  99.285  0.00  0.00     0.080 H 
ATOM     89  H   ASG d 221      25.904 -12.951  99.062  0.00  0.00     0.132 H 
ATOM     90  H   ASG d 221      27.666 -10.884 101.709  0.00  0.00     0.040 H 
ATOM     91  H   ASG d 221      26.341 -12.002 101.528  0.00  0.00     0.040 H 
ATOM     92  H   ASG d 221      21.402  -9.878  99.906  0.00  0.00     0.209 HD
ATOM     93  H   ASG d 221      24.438 -11.602 100.820  0.00  0.00     0.090 H 
ATOM     94  H   ASG d 221      25.654  -9.495 101.794  0.00  0.00     0.089 H 
ATOM     95  H   ASG d 221      30.995 -13.622 101.949  0.00  0.00     0.040 H 
ATOM     96  H   ASG d 221      31.011 -13.834 100.215  0.00  0.00     0.040 H 
ATOM     97  H   ASG d 221      29.827 -14.674 101.186  0.00  0.00     0.040 H 
ATOM     98  H   ASG d 221      23.011 -10.096 101.494  0.00  0.00     0.078 H 
ATOM     99  H   ASG d 221      23.470  -8.981 100.138  0.00  0.00     0.078 H 
ATOM    100  H   ASG d 221      28.592 -13.230  99.080  0.00  0.00     0.163 HD
ATOM    101  O5  BDP d 220      26.956 -15.078  95.410  0.00  0.00    -0.340 OA
ATOM    102  C5  BDP d 220      27.346 -13.941  96.153  0.00  0.00     0.152 C 
ATOM    103  C6  BDP d 220      28.414 -14.316  97.178  0.00  0.00     0.206 C 
ATOM    104  C1  BDP d 220      26.221 -14.713  94.261  0.00  0.00     0.160 C 
ATOM    105  C3  BDP d 220      25.133 -12.914  95.721  0.00  0.00     0.092 C 
ATOM    106  O2  BDP d 220      24.242 -13.563  93.572  0.00  0.00    -0.388 OA
ATOM    107  O6B BDP d 220      28.150 -15.219  98.007  0.00  0.00    -0.646 OA
ATOM    108  C2  BDP d 220      24.923 -14.047  94.709  0.00  0.00     0.110 C 
ATOM    109  O3  BDP d 220      23.892 -12.568  96.311  0.00  0.00    -0.390 OA
ATOM    110  O1  BDP d 220      25.909 -15.859  93.482  0.00  0.00    -0.348 OA
ATOM    111  O6A BDP d 220      29.503 -13.694  97.135  0.00  0.00    -0.646 OA
ATOM    112  C4  BDP d 220      26.119 -13.322  96.816  0.00  0.00     0.103 C 
ATOM    113  H   BDP d 220      27.776 -13.214  95.497  0.00  0.00     0.104 H 
ATOM    114  H   BDP d 220      26.806 -14.043  93.666  0.00  0.00     0.133 H 
ATOM    115  H   BDP d 220      25.540 -12.073  95.199  0.00  0.00     0.091 H 
ATOM    116  H   BDP d 220      24.115 -14.287  92.939  0.00  0.00     0.210 HD
ATOM    117  H   BDP d 220      24.342 -14.790  95.214  0.00  0.00     0.094 H 
ATOM    118  H   BDP d 220      23.533 -13.336  96.781  0.00  0.00     0.210 HD
ATOM    119  H   BDP d 220      25.618 -13.969  97.505  0.00  0.00     0.092 H 
ATOM    120  OSC ASG d 219      24.162 -20.316  92.489  0.00  0.00    -0.572 OA
ATOM    121  C5  ASG d 219      28.121 -18.080  91.532  0.00  0.00     0.090 C 
ATOM    122  C3  ASG d 219      26.886 -16.180  92.547  0.00  0.00     0.094 C 
ATOM    123  C6  ASG d 219      28.539 -19.589  91.607  0.00  0.00     0.043 C 
ATOM    124  C7  ASG d 219      24.998 -13.702  90.431  0.00  0.00     0.214 C 
ATOM    125  C4  ASG d 219      26.991 -17.698  92.526  0.00  0.00     0.114 C 
ATOM    126  S   ASG d 219      25.255 -19.619  93.164  0.00  0.00     0.252 S 
ATOM    127  C8  ASG d 219      24.800 -12.184  90.245  0.00  0.00    -0.003 C 
ATOM    128  O7  ASG d 219      24.206 -14.457  89.988  0.00  0.00    -0.274 OA
ATOM    129  O6  ASG d 219      29.426 -20.102  90.624  0.00  0.00    -0.398 OA
ATOM    130  OSB ASG d 219      26.305 -20.609  93.393  0.00  0.00    -0.572 OA
ATOM    131  O1  ASG d 219      27.072 -15.787  88.747  0.00  0.00    -0.348 OA
ATOM    132  O4  ASG d 219      25.789 -18.377  92.204  0.00  0.00    -0.246 OA
ATOM    133  OSA ASG d 219      24.808 -19.007  94.418  0.00  0.00    -0.572 OA
ATOM    134  O5  ASG d 219      27.646 -17.670  90.194  0.00  0.00    -0.349 OA
ATOM    135  N   ASG d 219      26.173 -14.221  91.126  0.00  0.00    -0.349 N 
ATOM    136  C2  ASG d 219      26.453 -15.667  91.182  0.00  0.00     0.087 C 
ATOM    137  C1  ASG d 219      27.427 -16.191  90.063  0.00  0.00     0.154 C 
ATOM    138  H   ASG d 219      29.029 -17.573  91.784  0.00  0.00     0.090 H 
ATOM    139  H   ASG d 219      27.829 -15.739  92.792  0.00  0.00     0.091 H 
ATOM    140  H   ASG d 219      27.640 -20.167  91.553  0.00  0.00     0.078 H 
ATOM    141  H   ASG d 219      29.094 -19.659  92.519  0.00  0.00     0.078 H 
ATOM    142  H   ASG d 219      27.213 -18.015  93.524  0.00  0.00     0.093 H 
ATOM    143  H   ASG d 219      25.609 -11.659  90.708  0.00  0.00     0.040 H 
ATOM    144  H   ASG d 219      23.876 -11.887  90.697  0.00  0.00     0.040 H 
ATOM    145  H   ASG d 219      24.776 -11.953  89.201  0.00  0.00     0.040 H 
ATOM    146  H   ASG d 219      28.996 -20.074  89.754  0.00  0.00     0.209 HD
ATOM    147  H   ASG d 219      26.791 -13.592  91.566  0.00  0.00     0.163 HD
ATOM    148  H   ASG d 219      25.490 -16.087  90.983  0.00  0.00     0.084 H 
ATOM    149  H   ASG d 219      28.368 -15.711  90.228  0.00  0.00     0.132 H 
ENDROOT
TORSDOF 38
ENDMDL
MODEL 58
REMARK VINA RESULT:      -6.0      4.431      8.566
REMARK  0 active torsions:
REMARK  status: ('A' for Active; 'I' for Inactive)
REMARK       I    between atoms: C6_2  and  C5_55 
REMARK       I    between atoms: O4_3  and  C4_83 
REMARK       I    between atoms: O4_3  and  S_75 
REMARK       I    between atoms: C6_4  and  C5_67 
REMARK       I    between atoms: O4_5  and  C4_61 
REMARK       I    between atoms: O4_5  and  S_71 
REMARK       I    between atoms: O3_6  and  C3_32 
REMARK       I    between atoms: C1_8  and  O1_30 
REMARK       I    between atoms: C3_12  and  O3_62 
REMARK       I    between atoms: C5_13  and  C6_25 
REMARK       I    between atoms: O1_14  and  C4_39 
REMARK       I    between atoms: O1_14  and  C1_23 
REMARK       I    between atoms: C5_15  and  C6_27 
REMARK       I    between atoms: C5_18  and  C6_44 
REMARK       I    between atoms: C3_19  and  O1_82 
REMARK       I    between atoms: C2_20  and  N_89 
REMARK       I    between atoms: C2_21  and  O2_80 
REMARK       I    between atoms: C1_24  and  O1_45 
REMARK       I    between atoms: C6_25  and  O6_48 
REMARK       I    between atoms: C6_27  and  O6_77 
REMARK       I    between atoms: C7_28  and  C8_35 
REMARK       I    between atoms: C7_28  and  N_70 
REMARK       I    between atoms: O1_30  and  C3_43 
REMARK       I    between atoms: C4_33  and  O4_53 
REMARK       I    between atoms: S_34  and  O4_53 
REMARK       I    between atoms: O2_40  and  C2_87 
REMARK       I    between atoms: C7_41  and  C8_81 
REMARK       I    between atoms: C7_41  and  N_89 
REMARK       I    between atoms: O6_42  and  C6_88 
REMARK       I    between atoms: O1_45  and  C4_90 
REMARK       I    between atoms: C7_46  and  C8_69 
REMARK       I    between atoms: C7_46  and  N_85 
REMARK       I    between atoms: C2_47  and  N_85 
REMARK       I    between atoms: O1_50  and  C4_73 
REMARK       I    between atoms: O1_50  and  C1_76 
REMARK       I    between atoms: C1_52  and  O1_82 
REMARK       I    between atoms: C3_54  and  O3_72 
REMARK       I    between atoms: C5_57  and  C6_88 
REMARK       I    between atoms: O1_59  and  C1_78 
REMARK       I    between atoms: O2_63  and  C2_68 
REMARK       I    between atoms: N_70  and  C2_74 
ROOT
ATOM      1  O6B BDP d 216      23.885 -20.214  95.648  0.00  0.00    -0.646 OA
ATOM      2  C6  BDP d 216      22.835 -19.973  96.281  0.00  0.00     0.206 C 
ATOM      3  C3  BDP d 216      24.154 -19.782  99.914  0.00  0.00     0.092 C 
ATOM      4  O6A BDP d 216      21.776 -19.581  95.747  0.00  0.00    -0.646 OA
ATOM      5  O5  BDP d 216      22.892 -21.559  98.075  0.00  0.00    -0.340 OA
ATOM      6  C4  BDP d 216      24.032 -19.448  98.428  0.00  0.00     0.103 C 
ATOM      7  O2  BDP d 216      23.964 -21.557 101.527  0.00  0.00    -0.388 OA
ATOM      8  C5  BDP d 216      22.843 -20.173  97.794  0.00  0.00     0.152 C 
ATOM      9  O1  BDP d 216      22.689 -23.220  99.686  0.00  0.00    -0.368 OA
ATOM     10  O3  BDP d 216      25.394 -19.317 100.405  0.00  0.00    -0.390 OA
ATOM     11  C1  BDP d 216      22.794 -21.829  99.457  0.00  0.00     0.156 C 
ATOM     12  C2  BDP d 216      24.039 -21.287 100.146  0.00  0.00     0.110 C 
ATOM     13  H   BDP d 216      23.356 -19.297 100.436  0.00  0.00     0.091 H 
ATOM     14  H   BDP d 216      24.904 -19.783  97.904  0.00  0.00     0.092 H 
ATOM     15  H   BDP d 216      24.757 -21.212 101.967  0.00  0.00     0.210 HD
ATOM     16  H   BDP d 216      21.950 -19.758  98.213  0.00  0.00     0.104 H 
ATOM     17  H   BDP d 216      21.895 -23.562  99.246  0.00  0.00     0.212 HD
ATOM     18  H   BDP d 216      26.116 -19.757  99.930  0.00  0.00     0.210 HD
ATOM     19  H   BDP d 216      21.917 -21.359  99.850  0.00  0.00     0.133 H 
ATOM     20  H   BDP d 216      24.906 -21.763  99.737  0.00  0.00     0.094 H 
ATOM     21  O4  ASG d 217      26.854 -14.696  98.216  0.00  0.00    -0.246 OA
ATOM     22  O7  ASG d 217      22.333 -14.800  97.958  0.00  0.00    -0.274 OA
ATOM     23  O1  ASG d 217      23.911 -18.075  98.309  0.00  0.00    -0.348 OA
ATOM     24  C5  ASG d 217      27.404 -16.964  97.455  0.00  0.00     0.090 C 
ATOM     25  C1  ASG d 217      24.970 -17.493  97.569  0.00  0.00     0.154 C 
ATOM     26  C6  ASG d 217      28.813 -17.160  98.125  0.00  0.00     0.043 C 
ATOM     27  OSA ASG d 217      28.126 -12.791  97.114  0.00  0.00    -0.572 OA
ATOM     28  C3  ASG d 217      25.809 -15.545  96.171  0.00  0.00     0.094 C 
ATOM     29  C7  ASG d 217      22.180 -15.400  96.951  0.00  0.00     0.214 C 
ATOM     30  C2  ASG d 217      24.631 -16.090  96.968  0.00  0.00     0.087 C 
ATOM     31  O5  ASG d 217      26.286 -17.466  98.284  0.00  0.00    -0.349 OA
ATOM     32  OSB ASG d 217      28.929 -13.654  99.208  0.00  0.00    -0.572 OA
ATOM     33  OSC ASG d 217      26.913 -12.351  99.107  0.00  0.00    -0.572 OA
ATOM     34  C8  ASG d 217      20.831 -15.315  96.214  0.00  0.00    -0.003 C 
ATOM     35  S   ASG d 217      27.746 -13.329  98.420  0.00  0.00     0.252 S 
ATOM     36  O6  ASG d 217      29.508 -18.375  97.880  0.00  0.00    -0.398 OA
ATOM     37  C4  ASG d 217      27.048 -15.497  97.062  0.00  0.00     0.114 C 
ATOM     38  N   ASG d 217      23.319 -16.043  96.303  0.00  0.00    -0.349 N 
ATOM     39  H   ASG d 217      27.510 -17.543  96.562  0.00  0.00     0.090 H 
ATOM     40  H   ASG d 217      25.085 -18.167  96.745  0.00  0.00     0.132 H 
ATOM     41  H   ASG d 217      28.675 -17.081  99.183  0.00  0.00     0.078 H 
ATOM     42  H   ASG d 217      29.427 -16.407  97.677  0.00  0.00     0.078 H 
ATOM     43  H   ASG d 217      25.915 -16.147  95.293  0.00  0.00     0.091 H 
ATOM     44  H   ASG d 217      24.495 -15.398  97.773  0.00  0.00     0.084 H 
ATOM     45  H   ASG d 217      20.117 -14.816  96.834  0.00  0.00     0.040 H 
ATOM     46  H   ASG d 217      20.484 -16.302  95.992  0.00  0.00     0.040 H 
ATOM     47  H   ASG d 217      20.957 -14.767  95.302  0.00  0.00     0.040 H 
ATOM     48  H   ASG d 217      29.009 -19.115  98.260  0.00  0.00     0.209 HD
ATOM     49  H   ASG d 217      27.853 -15.041  96.523  0.00  0.00     0.093 H 
ATOM     50  H   ASG d 217      23.208 -16.449  95.413  0.00  0.00     0.163 HD
ATOM     51  C6  BDP d 218      27.201 -13.999  91.480  0.00  0.00     0.206 C 
ATOM     52  O3  BDP d 218      23.844 -10.789  93.078  0.00  0.00    -0.390 OA
ATOM     53  C1  BDP d 218      25.232 -13.881  94.618  0.00  0.00     0.160 C 
ATOM     54  C2  BDP d 218      24.685 -12.458  94.547  0.00  0.00     0.110 C 
ATOM     55  O6A BDP d 218      27.122 -14.930  90.647  0.00  0.00    -0.646 OA
ATOM     56  O1  BDP d 218      25.597 -14.187  95.950  0.00  0.00    -0.348 OA
ATOM     57  C3  BDP d 218      24.280 -12.126  93.122  0.00  0.00     0.092 C 
ATOM     58  O5  BDP d 218      26.352 -13.954  93.757  0.00  0.00    -0.340 OA
ATOM     59  C5  BDP d 218      26.005 -13.750  92.397  0.00  0.00     0.152 C 
ATOM     60  C4  BDP d 218      25.473 -12.334  92.194  0.00  0.00     0.103 C 
ATOM     61  O2  BDP d 218      23.569 -12.303  95.396  0.00  0.00    -0.388 OA
ATOM     62  O6B BDP d 218      28.196 -13.249  91.588  0.00  0.00    -0.646 OA
ATOM     63  H   BDP d 218      23.087 -10.678  93.674  0.00  0.00     0.210 HD
ATOM     64  H   BDP d 218      24.492 -14.590  94.312  0.00  0.00     0.133 H 
ATOM     65  H   BDP d 218      25.457 -11.790  94.867  0.00  0.00     0.094 H 
ATOM     66  H   BDP d 218      23.486 -12.766  92.800  0.00  0.00     0.091 H 
ATOM     67  H   BDP d 218      25.238 -14.450  92.143  0.00  0.00     0.104 H 
ATOM     68  H   BDP d 218      26.161 -11.534  92.367  0.00  0.00     0.092 H 
ATOM     69  H   BDP d 218      22.862 -12.905  95.113  0.00  0.00     0.210 HD
ATOM     70  O4  ASG d 221      31.508 -15.525  79.764  0.00  0.00    -0.249 OA
ATOM     71  OSB ASG d 221      32.188 -17.949  80.160  0.00  0.00    -0.572 OA
ATOM     72  OSC ASG d 221      31.027 -17.432  78.136  0.00  0.00    -0.572 OA
ATOM     73  C2  ASG d 221      31.094 -13.008  80.858  0.00  0.00     0.062 C 
ATOM     74  C1  ASG d 221      29.596 -13.279  81.230  0.00  0.00     0.151 C 
ATOM     75  C3  ASG d 221      31.323 -13.143  79.368  0.00  0.00    -0.014 C 
ATOM     76  O7  ASG d 221      33.612 -11.776  80.207  0.00  0.00    -0.274 OA
ATOM     77  C7  ASG d 221      32.856 -11.147  80.863  0.00  0.00     0.214 C 
ATOM     78  O6  ASG d 221      27.189 -15.638  78.341  0.00  0.00    -0.398 OA
ATOM     79  O1  ASG d 221      29.353 -13.373  82.631  0.00  0.00    -0.348 OA
ATOM     80  C5  ASG d 221      29.371 -14.454  79.008  0.00  0.00     0.088 C 
ATOM     81  C4  ASG d 221      30.920 -14.532  78.939  0.00  0.00     0.089 C 
ATOM     82  OSA ASG d 221      29.875 -17.425  80.230  0.00  0.00    -0.572 OA
ATOM     83  S   ASG d 221      31.140 -17.125  79.562  0.00  0.00     0.252 S 
ATOM     84  O5  ASG d 221      29.008 -14.415  80.442  0.00  0.00    -0.349 OA
ATOM     85  C8  ASG d 221      33.254  -9.736  81.327  0.00  0.00    -0.003 C 
ATOM     86  C6  ASG d 221      28.580 -15.471  78.107  0.00  0.00     0.043 C 
ATOM     87  N   ASG d 221      31.653 -11.766  81.420  0.00  0.00    -0.352 N 
ATOM     88  H   ASG d 221      31.658 -13.777  81.343  0.00  0.00     0.080 H 
ATOM     89  H   ASG d 221      29.062 -12.401  80.931  0.00  0.00     0.132 H 
ATOM     90  H   ASG d 221      32.358 -12.985  79.147  0.00  0.00     0.040 H 
ATOM     91  H   ASG d 221      30.738 -12.417  78.843  0.00  0.00     0.040 H 
ATOM     92  H   ASG d 221      26.832 -16.290  77.718  0.00  0.00     0.209 HD
ATOM     93  H   ASG d 221      29.036 -13.553  78.537  0.00  0.00     0.090 H 
ATOM     94  H   ASG d 221      31.257 -14.822  77.966  0.00  0.00     0.089 H 
ATOM     95  H   ASG d 221      34.150  -9.435  80.826  0.00  0.00     0.040 H 
ATOM     96  H   ASG d 221      33.421  -9.742  82.384  0.00  0.00     0.040 H 
ATOM     97  H   ASG d 221      32.468  -9.049  81.096  0.00  0.00     0.040 H 
ATOM     98  H   ASG d 221      28.694 -15.151  77.092  0.00  0.00     0.078 H 
ATOM     99  H   ASG d 221      29.005 -16.423  78.348  0.00  0.00     0.078 H 
ATOM    100  H   ASG d 221      31.207 -11.342  82.188  0.00  0.00     0.163 HD
ATOM    101  O5  BDP d 220      27.715 -11.217  84.901  0.00  0.00    -0.340 OA
ATOM    102  C5  BDP d 220      28.773 -11.918  84.279  0.00  0.00     0.152 C 
ATOM    103  C6  BDP d 220      29.907 -10.962  83.919  0.00  0.00     0.206 C 
ATOM    104  C1  BDP d 220      26.809 -12.102  85.524  0.00  0.00     0.160 C 
ATOM    105  C3  BDP d 220      27.165 -13.638  83.507  0.00  0.00     0.092 C 
ATOM    106  O2  BDP d 220      25.347 -13.938  85.069  0.00  0.00    -0.388 OA
ATOM    107  O6B BDP d 220      29.643  -9.978  83.187  0.00  0.00    -0.646 OA
ATOM    108  C2  BDP d 220      26.157 -12.964  84.447  0.00  0.00     0.110 C 
ATOM    109  O3  BDP d 220      26.487 -14.150  82.372  0.00  0.00    -0.390 OA
ATOM    110  O1  BDP d 220      25.800 -11.380  86.214  0.00  0.00    -0.348 OA
ATOM    111  O6A BDP d 220      31.048 -11.215  84.377  0.00  0.00    -0.646 OA
ATOM    112  C4  BDP d 220      28.244 -12.654  83.051  0.00  0.00     0.103 C 
ATOM    113  H   BDP d 220      29.171 -12.643  84.958  0.00  0.00     0.104 H 
ATOM    114  H   BDP d 220      27.338 -12.710  86.228  0.00  0.00     0.133 H 
ATOM    115  H   BDP d 220      27.639 -14.433  84.042  0.00  0.00     0.091 H 
ATOM    116  H   BDP d 220      24.715 -13.502  85.660  0.00  0.00     0.210 HD
ATOM    117  H   BDP d 220      25.568 -12.315  83.832  0.00  0.00     0.094 H 
ATOM    118  H   BDP d 220      26.061 -13.421  81.894  0.00  0.00     0.210 HD
ATOM    119  H   BDP d 220      27.830 -12.015  82.300  0.00  0.00     0.092 H 
ATOM    120  OSC ASG d 219      22.198  -8.138  86.864  0.00  0.00    -0.572 OA
ATOM    121  C5  ASG d 219      26.031  -9.270  89.234  0.00  0.00     0.090 C 
ATOM    122  C3  ASG d 219      26.135 -11.070  87.527  0.00  0.00     0.094 C 
ATOM    123  C6  ASG d 219      25.813  -7.752  89.557  0.00  0.00     0.043 C 
ATOM    124  C7  ASG d 219      24.732 -14.501  88.193  0.00  0.00     0.214 C 
ATOM    125  C4  ASG d 219      25.615  -9.665  87.791  0.00  0.00     0.114 C 
ATOM    126  S   ASG d 219      23.644  -8.250  86.683  0.00  0.00     0.252 S 
ATOM    127  C8  ASG d 219      25.097 -15.994  88.067  0.00  0.00    -0.003 C 
ATOM    128  O7  ASG d 219      23.604 -14.179  88.316  0.00  0.00    -0.274 OA
ATOM    129  O6  ASG d 219      25.979  -7.307  90.896  0.00  0.00    -0.398 OA
ATOM    130  OSB ASG d 219      24.218  -6.970  87.094  0.00  0.00    -0.572 OA
ATOM    131  O1  ASG d 219      25.005 -12.478  90.898  0.00  0.00    -0.348 OA
ATOM    132  O4  ASG d 219      24.218  -9.499  87.610  0.00  0.00    -0.246 OA
ATOM    133  OSA ASG d 219      23.989  -8.574  85.296  0.00  0.00    -0.572 OA
ATOM    134  O5  ASG d 219      25.288 -10.174  90.137  0.00  0.00    -0.349 OA
ATOM    135  N   ASG d 219      25.775 -13.477  88.191  0.00  0.00    -0.349 N 
ATOM    136  C2  ASG d 219      25.458 -12.062  88.459  0.00  0.00     0.087 C 
ATOM    137  C1  ASG d 219      25.640 -11.622  89.958  0.00  0.00     0.154 C 
ATOM    138  H   ASG d 219      27.087  -9.388  89.364  0.00  0.00     0.090 H 
ATOM    139  H   ASG d 219      27.191 -11.119  87.688  0.00  0.00     0.091 H 
ATOM    140  H   ASG d 219      24.812  -7.510  89.267  0.00  0.00     0.078 H 
ATOM    141  H   ASG d 219      26.595  -7.258  89.020  0.00  0.00     0.078 H 
ATOM    142  H   ASG d 219      26.053  -9.020  87.059  0.00  0.00     0.093 H 
ATOM    143  H   ASG d 219      26.157 -16.095  87.965  0.00  0.00     0.040 H 
ATOM    144  H   ASG d 219      24.613 -16.407  87.207  0.00  0.00     0.040 H 
ATOM    145  H   ASG d 219      24.772 -16.516  88.943  0.00  0.00     0.040 H 
ATOM    146  H   ASG d 219      25.300  -7.714  91.458  0.00  0.00     0.209 HD
ATOM    147  H   ASG d 219      26.706 -13.737  88.007  0.00  0.00     0.163 HD
ATOM    148  H   ASG d 219      24.410 -12.025  88.246  0.00  0.00     0.084 H 
ATOM    149  H   ASG d 219      26.681 -11.729  90.183  0.00  0.00     0.132 H 
ENDROOT
TORSDOF 38
ENDMDL
MODEL 59
REMARK VINA RESULT:      -6.0      5.292     16.259
REMARK  0 active torsions:
REMARK  status: ('A' for Active; 'I' for Inactive)
REMARK       I    between atoms: C6_2  and  C5_55 
REMARK       I    between atoms: O4_3  and  C4_83 
REMARK       I    between atoms: O4_3  and  S_75 
REMARK       I    between atoms: C6_4  and  C5_67 
REMARK       I    between atoms: O4_5  and  C4_61 
REMARK       I    between atoms: O4_5  and  S_71 
REMARK       I    between atoms: O3_6  and  C3_32 
REMARK       I    between atoms: C1_8  and  O1_30 
REMARK       I    between atoms: C3_12  and  O3_62 
REMARK       I    between atoms: C5_13  and  C6_25 
REMARK       I    between atoms: O1_14  and  C4_39 
REMARK       I    between atoms: O1_14  and  C1_23 
REMARK       I    between atoms: C5_15  and  C6_27 
REMARK       I    between atoms: C5_18  and  C6_44 
REMARK       I    between atoms: C3_19  and  O1_82 
REMARK       I    between atoms: C2_20  and  N_89 
REMARK       I    between atoms: C2_21  and  O2_80 
REMARK       I    between atoms: C1_24  and  O1_45 
REMARK       I    between atoms: C6_25  and  O6_48 
REMARK       I    between atoms: C6_27  and  O6_77 
REMARK       I    between atoms: C7_28  and  C8_35 
REMARK       I    between atoms: C7_28  and  N_70 
REMARK       I    between atoms: O1_30  and  C3_43 
REMARK       I    between atoms: C4_33  and  O4_53 
REMARK       I    between atoms: S_34  and  O4_53 
REMARK       I    between atoms: O2_40  and  C2_87 
REMARK       I    between atoms: C7_41  and  C8_81 
REMARK       I    between atoms: C7_41  and  N_89 
REMARK       I    between atoms: O6_42  and  C6_88 
REMARK       I    between atoms: O1_45  and  C4_90 
REMARK       I    between atoms: C7_46  and  C8_69 
REMARK       I    between atoms: C7_46  and  N_85 
REMARK       I    between atoms: C2_47  and  N_85 
REMARK       I    between atoms: O1_50  and  C4_73 
REMARK       I    between atoms: O1_50  and  C1_76 
REMARK       I    between atoms: C1_52  and  O1_82 
REMARK       I    between atoms: C3_54  and  O3_72 
REMARK       I    between atoms: C5_57  and  C6_88 
REMARK       I    between atoms: O1_59  and  C1_78 
REMARK       I    between atoms: O2_63  and  C2_68 
REMARK       I    between atoms: N_70  and  C2_74 
ROOT
ATOM      1  O6B BDP d 216      31.451 -15.857  87.157  0.00  0.00    -0.646 OA
ATOM      2  C6  BDP d 216      30.957 -14.972  86.425  0.00  0.00     0.206 C 
ATOM      3  C3  BDP d 216      30.817 -16.788  83.011  0.00  0.00     0.092 C 
ATOM      4  O6A BDP d 216      30.388 -13.949  86.860  0.00  0.00    -0.646 OA
ATOM      5  O5  BDP d 216      32.405 -14.959  84.517  0.00  0.00    -0.340 OA
ATOM      6  C4  BDP d 216      30.560 -16.533  84.495  0.00  0.00     0.103 C 
ATOM      7  O2  BDP d 216      32.409 -16.473  81.235  0.00  0.00    -0.388 OA
ATOM      8  C5  BDP d 216      31.059 -15.147  84.912  0.00  0.00     0.152 C 
ATOM      9  O1  BDP d 216      33.882 -14.653  82.750  0.00  0.00    -0.368 OA
ATOM     10  O3  BDP d 216      30.590 -18.151  82.717  0.00  0.00    -0.390 OA
ATOM     11  C1  BDP d 216      32.561 -15.000  83.114  0.00  0.00     0.156 C 
ATOM     12  C2  BDP d 216      32.247 -16.410  82.633  0.00  0.00     0.110 C 
ATOM     13  H   BDP d 216      30.145 -16.182  82.441  0.00  0.00     0.091 H 
ATOM     14  H   BDP d 216      31.101 -17.240  85.089  0.00  0.00     0.092 H 
ATOM     15  H   BDP d 216      32.210 -17.371  80.926  0.00  0.00     0.210 HD
ATOM     16  H   BDP d 216      30.442 -14.421  84.427  0.00  0.00     0.104 H 
ATOM     17  H   BDP d 216      34.078 -13.754  83.058  0.00  0.00     0.212 HD
ATOM     18  H   BDP d 216      31.201 -18.699  83.235  0.00  0.00     0.210 HD
ATOM     19  H   BDP d 216      31.894 -14.296  82.661  0.00  0.00     0.133 H 
ATOM     20  H   BDP d 216      32.918 -17.101  83.100  0.00  0.00     0.094 H 
ATOM     21  O4  ASG d 217      26.523 -20.185  85.473  0.00  0.00    -0.246 OA
ATOM     22  O7  ASG d 217      25.699 -15.740  85.171  0.00  0.00    -0.274 OA
ATOM     23  O1  ASG d 217      29.202 -16.671  84.721  0.00  0.00    -0.348 OA
ATOM     24  C5  ASG d 217      28.898 -20.164  86.088  0.00  0.00     0.090 C 
ATOM     25  C1  ASG d 217      28.901 -17.713  85.634  0.00  0.00     0.154 C 
ATOM     26  C6  ASG d 217      29.342 -21.584  85.580  0.00  0.00     0.043 C 
ATOM     27  OSA ASG d 217      24.998 -21.645  86.888  0.00  0.00    -0.572 OA
ATOM     28  C3  ASG d 217      27.263 -18.722  87.292  0.00  0.00     0.094 C 
ATOM     29  C7  ASG d 217      26.316 -15.335  86.093  0.00  0.00     0.214 C 
ATOM     30  C2  ASG d 217      27.499 -17.579  86.312  0.00  0.00     0.087 C 
ATOM     31  O5  ASG d 217      29.104 -19.093  85.089  0.00  0.00    -0.349 OA
ATOM     32  OSB ASG d 217      25.875 -22.541  84.838  0.00  0.00    -0.572 OA
ATOM     33  OSC ASG d 217      24.190 -20.829  84.810  0.00  0.00    -0.572 OA
ATOM     34  C8  ASG d 217      25.998 -13.942  86.666  0.00  0.00    -0.003 C 
ATOM     35  S   ASG d 217      25.362 -21.349  85.502  0.00  0.00     0.252 S 
ATOM     36  O6  ASG d 217      30.688 -21.984  85.798  0.00  0.00    -0.398 OA
ATOM     37  C4  ASG d 217      27.417 -20.056  86.565  0.00  0.00     0.114 C 
ATOM     38  N   ASG d 217      27.221 -16.224  86.815  0.00  0.00    -0.349 N 
ATOM     39  H   ASG d 217      29.542 -20.030  86.933  0.00  0.00     0.090 H 
ATOM     40  H   ASG d 217      29.634 -17.578  86.401  0.00  0.00     0.132 H 
ATOM     41  H   ASG d 217      29.169 -21.612  84.524  0.00  0.00     0.078 H 
ATOM     42  H   ASG d 217      28.763 -22.268  86.165  0.00  0.00     0.078 H 
ATOM     43  H   ASG d 217      27.927 -18.585  88.119  0.00  0.00     0.091 H 
ATOM     44  H   ASG d 217      26.745 -17.695  85.562  0.00  0.00     0.084 H 
ATOM     45  H   ASG d 217      25.323 -13.433  86.011  0.00  0.00     0.040 H 
ATOM     46  H   ASG d 217      26.902 -13.379  86.754  0.00  0.00     0.040 H 
ATOM     47  H   ASG d 217      25.547 -14.048  87.631  0.00  0.00     0.040 H 
ATOM     48  H   ASG d 217      31.282 -21.405  85.295  0.00  0.00     0.209 HD
ATOM     49  H   ASG d 217      27.174 -20.854  87.237  0.00  0.00     0.093 H 
ATOM     50  H   ASG d 217      27.650 -15.914  87.645  0.00  0.00     0.163 HD
ATOM     51  C6  BDP d 218      26.339 -19.736  92.237  0.00  0.00     0.206 C 
ATOM     52  O3  BDP d 218      22.406 -17.333  90.537  0.00  0.00    -0.390 OA
ATOM     53  C1  BDP d 218      25.615 -18.279  88.906  0.00  0.00     0.160 C 
ATOM     54  C2  BDP d 218      24.117 -18.020  89.038  0.00  0.00     0.110 C 
ATOM     55  O6A BDP d 218      27.283 -19.361  92.967  0.00  0.00    -0.646 OA
ATOM     56  O1  BDP d 218      25.907 -18.755  87.606  0.00  0.00    -0.348 OA
ATOM     57  C3  BDP d 218      23.798 -17.498  90.427  0.00  0.00     0.092 C 
ATOM     58  O5  BDP d 218      25.975 -19.233  89.886  0.00  0.00    -0.340 OA
ATOM     59  C5  BDP d 218      25.788 -18.750  91.207  0.00  0.00     0.152 C 
ATOM     60  C4  BDP d 218      24.308 -18.486  91.470  0.00  0.00     0.103 C 
ATOM     61  O2  BDP d 218      23.680 -17.084  88.077  0.00  0.00    -0.388 OA
ATOM     62  O6B BDP d 218      25.808 -20.865  92.317  0.00  0.00    -0.646 OA
ATOM     63  H   BDP d 218      22.101 -16.702  89.866  0.00  0.00     0.210 HD
ATOM     64  H   BDP d 218      26.173 -17.378  89.055  0.00  0.00     0.133 H 
ATOM     65  H   BDP d 218      23.606 -18.946  88.875  0.00  0.00     0.094 H 
ATOM     66  H   BDP d 218      24.278 -16.556  90.591  0.00  0.00     0.091 H 
ATOM     67  H   BDP d 218      26.328 -17.832  91.303  0.00  0.00     0.104 H 
ATOM     68  H   BDP d 218      23.660 -19.337  91.454  0.00  0.00     0.092 H 
ATOM     69  H   BDP d 218      24.138 -16.240  88.217  0.00  0.00     0.210 HD
ATOM     70  O4  ASG d 221      29.462 -22.007 104.204  0.00  0.00    -0.249 OA
ATOM     71  OSB ASG d 221      31.945 -22.240 103.678  0.00  0.00    -0.572 OA
ATOM     72  OSC ASG d 221      31.327 -20.939 105.584  0.00  0.00    -0.572 OA
ATOM     73  C2  ASG d 221      26.851 -22.254 103.298  0.00  0.00     0.062 C 
ATOM     74  C1  ASG d 221      26.780 -20.797 102.724  0.00  0.00     0.151 C 
ATOM     75  C3  ASG d 221      27.125 -22.245 104.787  0.00  0.00    -0.014 C 
ATOM     76  O7  ASG d 221      26.215 -24.853 104.358  0.00  0.00    -0.274 OA
ATOM     77  C7  ASG d 221      25.401 -24.333 103.674  0.00  0.00     0.214 C 
ATOM     78  O6  ASG d 221      28.763 -17.597 105.077  0.00  0.00    -0.398 OA
ATOM     79  O1  ASG d 221      26.733 -20.735 101.302  0.00  0.00    -0.348 OA
ATOM     80  C5  ASG d 221      28.020 -20.041 104.788  0.00  0.00     0.088 C 
ATOM     81  C4  ASG d 221      28.423 -21.519 105.038  0.00  0.00     0.089 C 
ATOM     82  OSA ASG d 221      30.948 -20.109 103.375  0.00  0.00    -0.572 OA
ATOM     83  S   ASG d 221      30.960 -21.305 104.216  0.00  0.00     0.252 S 
ATOM     84  O5  ASG d 221      27.816 -19.893 103.330  0.00  0.00    -0.349 OA
ATOM     85  C8  ASG d 221      24.078 -25.064 103.390  0.00  0.00    -0.003 C 
ATOM     86  C6  ASG d 221      28.905 -18.948 105.492  0.00  0.00     0.043 C 
ATOM     87  N   ASG d 221      25.720 -23.120 102.922  0.00  0.00    -0.352 N 
ATOM     88  H   ASG d 221      27.689 -22.715 102.818  0.00  0.00     0.080 H 
ATOM     89  H   ASG d 221      25.831 -20.412 103.034  0.00  0.00     0.132 H 
ATOM     90  H   ASG d 221      27.200 -23.250 105.145  0.00  0.00     0.040 H 
ATOM     91  H   ASG d 221      26.327 -21.750 105.300  0.00  0.00     0.040 H 
ATOM     92  H   ASG d 221      29.364 -17.036 105.591  0.00  0.00     0.209 HD
ATOM     93  H   ASG d 221      27.100 -19.831 105.294  0.00  0.00     0.090 H 
ATOM     94  H   ASG d 221      28.838 -21.656 106.014  0.00  0.00     0.089 H 
ATOM     95  H   ASG d 221      24.002 -25.924 104.021  0.00  0.00     0.040 H 
ATOM     96  H   ASG d 221      24.052 -25.370 102.365  0.00  0.00     0.040 H 
ATOM     97  H   ASG d 221      23.258 -24.405 103.585  0.00  0.00     0.040 H 
ATOM     98  H   ASG d 221      28.680 -18.983 106.537  0.00  0.00     0.078 H 
ATOM     99  H   ASG d 221      29.907 -19.205 105.219  0.00  0.00     0.078 H 
ATOM    100  H   ASG d 221      25.164 -22.877 102.146  0.00  0.00     0.163 HD
ATOM    101  O5  BDP d 220      24.145 -19.884  99.052  0.00  0.00    -0.340 OA
ATOM    102  C5  BDP d 220      25.089 -20.686  99.733  0.00  0.00     0.152 C 
ATOM    103  C6  BDP d 220      24.414 -21.927 100.312  0.00  0.00     0.206 C 
ATOM    104  C1  BDP d 220      24.781 -18.915  98.247  0.00  0.00     0.160 C 
ATOM    105  C3  BDP d 220      26.480 -18.679 100.147  0.00  0.00     0.092 C 
ATOM    106  O2  BDP d 220      26.297 -17.070  98.355  0.00  0.00    -0.388 OA
ATOM    107  O6B BDP d 220      23.444 -21.766 101.092  0.00  0.00    -0.646 OA
ATOM    108  C2  BDP d 220      25.554 -17.963  99.155  0.00  0.00     0.110 C 
ATOM    109  O3  BDP d 220      26.910 -17.765 101.140  0.00  0.00    -0.390 OA
ATOM    110  O1  BDP d 220      23.822 -18.173  97.507  0.00  0.00    -0.348 OA
ATOM    111  O6A BDP d 220      24.870 -23.047  99.975  0.00  0.00    -0.646 OA
ATOM    112  C4  BDP d 220      25.773 -19.859 100.816  0.00  0.00     0.103 C 
ATOM    113  H   BDP d 220      25.836 -21.023  99.045  0.00  0.00     0.104 H 
ATOM    114  H   BDP d 220      25.440 -19.404  97.561  0.00  0.00     0.133 H 
ATOM    115  H   BDP d 220      27.322 -19.055  99.603  0.00  0.00     0.091 H 
ATOM    116  H   BDP d 220      25.702 -16.624  97.732  0.00  0.00     0.210 HD
ATOM    117  H   BDP d 220      24.836 -17.437  99.750  0.00  0.00     0.094 H 
ATOM    118  H   BDP d 220      26.140 -17.430 101.626  0.00  0.00     0.210 HD
ATOM    119  H   BDP d 220      25.111 -19.481 101.566  0.00  0.00     0.092 H 
ATOM    120  OSC ASG d 219      19.867 -15.410  96.718  0.00  0.00    -0.572 OA
ATOM    121  C5  ASG d 219      21.620 -19.231  94.739  0.00  0.00     0.090 C 
ATOM    122  C3  ASG d 219      23.506 -18.740  96.278  0.00  0.00     0.094 C 
ATOM    123  C6  ASG d 219      20.073 -19.363  94.529  0.00  0.00     0.043 C 
ATOM    124  C7  ASG d 219      26.521 -16.790  95.141  0.00  0.00     0.214 C 
ATOM    125  C4  ASG d 219      22.010 -18.550  96.079  0.00  0.00     0.114 C 
ATOM    126  S   ASG d 219      20.288 -16.766  97.062  0.00  0.00     0.252 S 
ATOM    127  C8  ASG d 219      28.062 -16.830  95.176  0.00  0.00    -0.003 C 
ATOM    128  O7  ASG d 219      25.964 -15.775  94.912  0.00  0.00    -0.274 OA
ATOM    129  O6  ASG d 219      19.589 -19.797  93.266  0.00  0.00    -0.398 OA
ATOM    130  OSB ASG d 219      19.133 -17.634  96.841  0.00  0.00    -0.572 OA
ATOM    131  O1  ASG d 219      24.433 -17.826  92.682  0.00  0.00    -0.348 OA
ATOM    132  O4  ASG d 219      21.569 -17.203  96.104  0.00  0.00    -0.246 OA
ATOM    133  OSA ASG d 219      20.763 -16.846  98.446  0.00  0.00    -0.572 OA
ATOM    134  O5  ASG d 219      22.291 -18.454  93.675  0.00  0.00    -0.349 OA
ATOM    135  N   ASG d 219      25.739 -18.004  95.362  0.00  0.00    -0.349 N 
ATOM    136  C2  ASG d 219      24.275 -18.014  95.185  0.00  0.00     0.087 C 
ATOM    137  C1  ASG d 219      23.789 -18.484  93.765  0.00  0.00     0.154 C 
ATOM    138  H   ASG d 219      21.947 -20.249  94.727  0.00  0.00     0.090 H 
ATOM    139  H   ASG d 219      23.764 -19.777  96.242  0.00  0.00     0.091 H 
ATOM    140  H   ASG d 219      19.646 -18.400  94.716  0.00  0.00     0.078 H 
ATOM    141  H   ASG d 219      19.787 -20.147  95.199  0.00  0.00     0.078 H 
ATOM    142  H   ASG d 219      21.518 -19.003  96.914  0.00  0.00     0.093 H 
ATOM    143  H   ASG d 219      28.389 -17.825  95.397  0.00  0.00     0.040 H 
ATOM    144  H   ASG d 219      28.419 -16.161  95.931  0.00  0.00     0.040 H 
ATOM    145  H   ASG d 219      28.449 -16.532  94.224  0.00  0.00     0.040 H 
ATOM    146  H   ASG d 219      19.809 -19.135  92.591  0.00  0.00     0.209 HD
ATOM    147  H   ASG d 219      26.198 -18.831  95.634  0.00  0.00     0.163 HD
ATOM    148  H   ASG d 219      24.034 -16.975  95.272  0.00  0.00     0.084 H 
ATOM    149  H   ASG d 219      24.097 -19.503  93.659  0.00  0.00     0.132 H 
ENDROOT
TORSDOF 38
ENDMDL
