REMARK  0 active torsions:
REMARK  status: ('A' for Active; 'I' for Inactive)
REMARK       I    between atoms: C6_2  and  C5_55 
REMARK       I    between atoms: O4_3  and  C4_83 
REMARK       I    between atoms: O4_3  and  S_75 
REMARK       I    between atoms: C6_4  and  C5_67 
REMARK       I    between atoms: O4_5  and  C4_61 
REMARK       I    between atoms: O4_5  and  S_71 
REMARK       I    between atoms: O3_6  and  C3_32 
REMARK       I    between atoms: C1_8  and  O1_30 
REMARK       I    between atoms: C3_12  and  O3_62 
REMARK       I    between atoms: C5_13  and  C6_25 
REMARK       I    between atoms: O1_14  and  C4_39 
REMARK       I    between atoms: O1_14  and  C1_23 
REMARK       I    between atoms: C5_15  and  C6_27 
REMARK       I    between atoms: C5_18  and  C6_44 
REMARK       I    between atoms: C3_19  and  O1_82 
REMARK       I    between atoms: C2_20  and  N_89 
REMARK       I    between atoms: C2_21  and  O2_80 
REMARK       I    between atoms: C1_24  and  O1_45 
REMARK       I    between atoms: C6_25  and  O6_48 
REMARK       I    between atoms: C6_27  and  O6_77 
REMARK       I    between atoms: C7_28  and  C8_35 
REMARK       I    between atoms: C7_28  and  N_70 
REMARK       I    between atoms: O1_30  and  C3_43 
REMARK       I    between atoms: C4_33  and  O4_53 
REMARK       I    between atoms: S_34  and  O4_53 
REMARK       I    between atoms: O2_40  and  C2_87 
REMARK       I    between atoms: C7_41  and  C8_81 
REMARK       I    between atoms: C7_41  and  N_89 
REMARK       I    between atoms: O6_42  and  C6_88 
REMARK       I    between atoms: O1_45  and  C4_90 
REMARK       I    between atoms: C7_46  and  C8_69 
REMARK       I    between atoms: C7_46  and  N_85 
REMARK       I    between atoms: C2_47  and  N_85 
REMARK       I    between atoms: O1_50  and  C4_73 
REMARK       I    between atoms: O1_50  and  C1_76 
REMARK       I    between atoms: C1_52  and  O1_82 
REMARK       I    between atoms: C3_54  and  O3_72 
REMARK       I    between atoms: C5_57  and  C6_88 
REMARK       I    between atoms: O1_59  and  C1_78 
REMARK       I    between atoms: O2_63  and  C2_68 
REMARK       I    between atoms: N_70  and  C2_74 
ROOT
ATOM      1  O6B BDP d 216      26.698 -10.050  98.318  0.00  0.00    -0.646 OA
ATOM      2  C6  BDP d 216      27.301 -10.377  99.363  0.00  0.00     0.206 C 
ATOM      3  C3  BDP d 216      24.386 -10.585 101.899  0.00  0.00     0.092 C 
ATOM      4  O6A BDP d 216      28.468 -10.822  99.381  0.00  0.00    -0.646 OA
ATOM      5  O5  BDP d 216      26.455  -8.842 100.995  0.00  0.00    -0.340 OA
ATOM      6  C4  BDP d 216      25.195 -10.883 100.638  0.00  0.00     0.103 C 
ATOM      7  O2  BDP d 216      23.851  -8.872 103.502  0.00  0.00    -0.388 OA
ATOM      8  C5  BDP d 216      26.573 -10.220 100.695  0.00  0.00     0.152 C 
ATOM      9  O1  BDP d 216      25.927  -7.244 102.597  0.00  0.00    -0.368 OA
ATOM     10  O3  BDP d 216      23.044 -10.982 101.708  0.00  0.00    -0.390 OA
ATOM     11  C1  BDP d 216      25.885  -8.618 102.267  0.00  0.00     0.156 C 
ATOM     12  C2  BDP d 216      24.440  -9.098 102.242  0.00  0.00     0.110 C 
ATOM     13  H   BDP d 216      24.811 -11.135 102.712  0.00  0.00     0.091 H 
ATOM     14  H   BDP d 216      24.700 -10.478  99.780  0.00  0.00     0.092 H 
ATOM     15  H   BDP d 216      22.930  -9.177 103.488  0.00  0.00     0.210 HD
ATOM     16  H   BDP d 216      27.134 -10.704 101.467  0.00  0.00     0.104 H 
ATOM     17  H   BDP d 216      26.849  -6.943 102.612  0.00  0.00     0.212 HD
ATOM     18  H   BDP d 216      22.661 -10.482 100.970  0.00  0.00     0.210 HD
ATOM     19  H   BDP d 216      26.442  -9.156 103.006  0.00  0.00     0.133 H 
ATOM     20  H   BDP d 216      23.900  -8.555 101.495  0.00  0.00     0.094 H 
ATOM     21  O4  ASG d 217      22.622 -15.433  98.830  0.00  0.00    -0.246 OA
ATOM     22  O7  ASG d 217      26.707 -15.617 100.780  0.00  0.00    -0.274 OA
ATOM     23  O1  ASG d 217      25.299 -12.257 100.515  0.00  0.00    -0.348 OA
ATOM     24  C5  ASG d 217      22.607 -13.114  98.028  0.00  0.00     0.090 C 
ATOM     25  C1  ASG d 217      24.704 -12.748  99.325  0.00  0.00     0.154 C 
ATOM     26  C6  ASG d 217      21.060 -12.845  97.949  0.00  0.00     0.043 C 
ATOM     27  OSA ASG d 217      21.959 -17.219  97.147  0.00  0.00    -0.572 OA
ATOM     28  C3  ASG d 217      24.560 -14.596  97.589  0.00  0.00     0.094 C 
ATOM     29  C7  ASG d 217      27.352 -15.000 100.006  0.00  0.00     0.214 C 
ATOM     30  C2  ASG d 217      25.230 -14.152  98.883  0.00  0.00     0.087 C 
ATOM     31  O5  ASG d 217      23.207 -12.709  99.318  0.00  0.00    -0.349 OA
ATOM     32  OSB ASG d 217      20.283 -16.366  98.643  0.00  0.00    -0.572 OA
ATOM     33  OSC ASG d 217      22.039 -17.794  99.449  0.00  0.00    -0.572 OA
ATOM     34  C8  ASG d 217      28.884 -15.152 100.003  0.00  0.00    -0.003 C 
ATOM     35  S   ASG d 217      21.684 -16.744  98.503  0.00  0.00     0.252 S 
ATOM     36  O6  ASG d 217      20.623 -11.581  97.469  0.00  0.00    -0.398 OA
ATOM     37  C4  ASG d 217      23.044 -14.589  97.772  0.00  0.00     0.114 C 
ATOM     38  N   ASG d 217      26.697 -14.266  98.928  0.00  0.00    -0.349 N 
ATOM     39  H   ASG d 217      22.970 -12.504  97.227  0.00  0.00     0.090 H 
ATOM     40  H   ASG d 217      25.030 -12.045  98.587  0.00  0.00     0.132 H 
ATOM     41  H   ASG d 217      20.666 -12.963  98.937  0.00  0.00     0.078 H 
ATOM     42  H   ASG d 217      20.706 -13.543  97.219  0.00  0.00     0.078 H 
ATOM     43  H   ASG d 217      24.917 -13.964  96.803  0.00  0.00     0.091 H 
ATOM     44  H   ASG d 217      24.930 -14.874  99.614  0.00  0.00     0.084 H 
ATOM     45  H   ASG d 217      29.188 -15.714 100.861  0.00  0.00     0.040 H 
ATOM     46  H   ASG d 217      29.338 -14.184 100.032  0.00  0.00     0.040 H 
ATOM     47  H   ASG d 217      29.190 -15.664  99.114  0.00  0.00     0.040 H 
ATOM     48  H   ASG d 217      20.908 -10.886  98.083  0.00  0.00     0.209 HD
ATOM     49  H   ASG d 217      22.580 -14.976  96.888  0.00  0.00     0.093 H 
ATOM     50  H   ASG d 217      27.241 -13.843  98.225  0.00  0.00     0.163 HD
ATOM     51  C6  BDP d 218      25.539 -15.914  92.727  0.00  0.00     0.206 C 
ATOM     52  O3  BDP d 218      27.565 -19.380  95.557  0.00  0.00    -0.390 OA
ATOM     53  C1  BDP d 218      25.742 -16.250  96.413  0.00  0.00     0.160 C 
ATOM     54  C2  BDP d 218      26.193 -17.703  96.533  0.00  0.00     0.110 C 
ATOM     55  O6A BDP d 218      26.050 -14.967  92.088  0.00  0.00    -0.646 OA
ATOM     56  O1  BDP d 218      24.793 -15.958  97.421  0.00  0.00    -0.348 OA
ATOM     57  C3  BDP d 218      27.220 -18.020  95.461  0.00  0.00     0.092 C 
ATOM     58  O5  BDP d 218      25.181 -16.079  95.126  0.00  0.00    -0.340 OA
ATOM     59  C5  BDP d 218      26.132 -16.267  94.090  0.00  0.00     0.152 C 
ATOM     60  C4  BDP d 218      26.634 -17.708  94.088  0.00  0.00     0.103 C 
ATOM     61  O2  BDP d 218      26.753 -17.954  97.803  0.00  0.00    -0.388 OA
ATOM     62  O6B BDP d 218      24.583 -16.600  92.302  0.00  0.00    -0.646 OA
ATOM     63  H   BDP d 218      27.935 -19.558  96.436  0.00  0.00     0.210 HD
ATOM     64  H   BDP d 218      26.568 -15.582  96.540  0.00  0.00     0.133 H 
ATOM     65  H   BDP d 218      25.334 -18.328  96.405  0.00  0.00     0.094 H 
ATOM     66  H   BDP d 218      28.098 -17.424  95.597  0.00  0.00     0.091 H 
ATOM     67  H   BDP d 218      26.956 -15.611  94.275  0.00  0.00     0.104 H 
ATOM     68  H   BDP d 218      25.913 -18.466  93.864  0.00  0.00     0.092 H 
ATOM     69  H   BDP d 218      27.534 -17.392  97.929  0.00  0.00     0.210 HD
ATOM     70  O4  ASG d 221      27.490 -13.778  80.489  0.00  0.00    -0.249 OA
ATOM     71  OSB ASG d 221      26.810 -11.327  80.646  0.00  0.00    -0.572 OA
ATOM     72  OSC ASG d 221      28.779 -11.860  79.402  0.00  0.00    -0.572 OA
ATOM     73  C2  ASG d 221      27.215 -16.346  81.504  0.00  0.00     0.062 C 
ATOM     74  C1  ASG d 221      28.358 -16.184  82.564  0.00  0.00     0.151 C 
ATOM     75  C3  ASG d 221      27.740 -16.154  80.097  0.00  0.00    -0.014 C 
ATOM     76  O7  ASG d 221      25.273 -17.392  79.655  0.00  0.00    -0.274 OA
ATOM     77  C7  ASG d 221      25.591 -18.088  80.557  0.00  0.00     0.214 C 
ATOM     78  O6  ASG d 221      31.960 -13.906  81.323  0.00  0.00    -0.398 OA
ATOM     79  O1  ASG d 221      27.899 -16.146  83.912  0.00  0.00    -0.348 OA
ATOM     80  C5  ASG d 221      29.678 -14.964  80.793  0.00  0.00     0.088 C 
ATOM     81  C4  ASG d 221      28.360 -14.783  79.993  0.00  0.00     0.089 C 
ATOM     82  OSA ASG d 221      28.776 -12.002  81.788  0.00  0.00    -0.572 OA
ATOM     83  S   ASG d 221      27.979 -12.200  80.579  0.00  0.00     0.252 S 
ATOM     84  O5  ASG d 221      29.302 -15.067  82.220  0.00  0.00    -0.349 OA
ATOM     85  C8  ASG d 221      24.957 -19.483  80.693  0.00  0.00    -0.003 C 
ATOM     86  C6  ASG d 221      30.849 -13.975  80.441  0.00  0.00     0.043 C 
ATOM     87  N   ASG d 221      26.401 -17.565  81.657  0.00  0.00    -0.352 N 
ATOM     88  H   ASG d 221      26.521 -15.556  81.701  0.00  0.00     0.080 H 
ATOM     89  H   ASG d 221      28.931 -17.086  82.509  0.00  0.00     0.132 H 
ATOM     90  H   ASG d 221      26.934 -16.238  79.398  0.00  0.00     0.040 H 
ATOM     91  H   ASG d 221      28.473 -16.902  79.877  0.00  0.00     0.040 H 
ATOM     92  H   ASG d 221      32.601 -13.261  80.986  0.00  0.00     0.209 HD
ATOM     93  H   ASG d 221      30.159 -15.871  80.490  0.00  0.00     0.090 H 
ATOM     94  H   ASG d 221      28.547 -14.444  78.996  0.00  0.00     0.089 H 
ATOM     95  H   ASG d 221      24.402 -19.710  79.807  0.00  0.00     0.040 H 
ATOM     96  H   ASG d 221      24.301 -19.496  81.538  0.00  0.00     0.040 H 
ATOM     97  H   ASG d 221      25.727 -20.213  80.829  0.00  0.00     0.040 H 
ATOM     98  H   ASG d 221      31.225 -14.258  79.480  0.00  0.00     0.078 H 
ATOM     99  H   ASG d 221      30.402 -13.005  80.502  0.00  0.00     0.078 H 
ATOM    100  H   ASG d 221      26.402 -18.039  82.520  0.00  0.00     0.163 HD
ATOM    101  O5  BDP d 220      28.143 -18.468  86.564  0.00  0.00    -0.340 OA
ATOM    102  C5  BDP d 220      27.548 -17.682  85.551  0.00  0.00     0.152 C 
ATOM    103  C6  BDP d 220      26.688 -18.552  84.638  0.00  0.00     0.206 C 
ATOM    104  C1  BDP d 220      28.673 -17.662  87.594  0.00  0.00     0.160 C 
ATOM    105  C3  BDP d 220      29.402 -16.050  85.744  0.00  0.00     0.092 C 
ATOM    106  O2  BDP d 220      30.251 -15.913  88.001  0.00  0.00    -0.388 OA
ATOM    107  O6B BDP d 220      27.229 -19.530  84.068  0.00  0.00    -0.646 OA
ATOM    108  C2  BDP d 220      29.801 -16.814  87.013  0.00  0.00     0.110 C 
ATOM    109  O3  BDP d 220      30.564 -15.551  85.105  0.00  0.00    -0.390 OA
ATOM    110  O1  BDP d 220      29.192 -18.468  88.642  0.00  0.00    -0.348 OA
ATOM    111  O6A BDP d 220      25.480 -18.238  84.505  0.00  0.00    -0.646 OA
ATOM    112  C4  BDP d 220      28.635 -16.948  84.772  0.00  0.00     0.103 C 
ATOM    113  H   BDP d 220      26.903 -16.953  85.995  0.00  0.00     0.104 H 
ATOM    114  H   BDP d 220      27.897 -17.041  87.991  0.00  0.00     0.133 H 
ATOM    115  H   BDP d 220      28.763 -15.241  86.030  0.00  0.00     0.091 H 
ATOM    116  H   BDP d 220      30.500 -16.406  88.798  0.00  0.00     0.210 HD
ATOM    117  H   BDP d 220      30.584 -17.483  86.721  0.00  0.00     0.094 H 
ATOM    118  H   BDP d 220      31.136 -16.292  84.850  0.00  0.00     0.210 HD
ATOM    119  H   BDP d 220      29.332 -17.591  84.277  0.00  0.00     0.092 H 
ATOM    120  OSC ASG d 219      31.888 -21.955  90.757  0.00  0.00    -0.572 OA
ATOM    121  C5  ASG d 219      27.440 -20.644  91.056  0.00  0.00     0.090 C 
ATOM    122  C3  ASG d 219      28.252 -18.793  89.613  0.00  0.00     0.094 C 
ATOM    123  C6  ASG d 219      27.410 -22.181  91.358  0.00  0.00     0.043 C 
ATOM    124  C7  ASG d 219      29.306 -15.481  91.063  0.00  0.00     0.214 C 
ATOM    125  C4  ASG d 219      28.518 -20.236  90.015  0.00  0.00     0.114 C 
ATOM    126  S   ASG d 219      30.715 -21.744  89.911  0.00  0.00     0.252 S 
ATOM    127  C8  ASG d 219      29.113 -13.964  90.862  0.00  0.00    -0.003 C 
ATOM    128  O7  ASG d 219      30.220 -15.879  91.694  0.00  0.00    -0.274 OA
ATOM    129  O6  ASG d 219      26.599 -22.652  92.425  0.00  0.00    -0.398 OA
ATOM    130  OSB ASG d 219      29.959 -22.995  89.923  0.00  0.00    -0.572 OA
ATOM    131  O1  ASG d 219      27.675 -17.558  93.186  0.00  0.00    -0.348 OA
ATOM    132  O4  ASG d 219      29.820 -20.487  90.517  0.00  0.00    -0.246 OA
ATOM    133  OSA ASG d 219      31.097 -21.359  88.550  0.00  0.00    -0.572 OA
ATOM    134  O5  ASG d 219      27.694 -19.816  92.254  0.00  0.00    -0.349 OA
ATOM    135  N   ASG d 219      28.351 -16.434  90.503  0.00  0.00    -0.349 N 
ATOM    136  C2  ASG d 219      28.437 -17.874  90.810  0.00  0.00     0.087 C 
ATOM    137  C1  ASG d 219      27.535 -18.344  92.010  0.00  0.00     0.154 C 
ATOM    138  H   ASG d 219      26.459 -20.461  90.670  0.00  0.00     0.090 H 
ATOM    139  H   ASG d 219      27.252 -18.680  89.250  0.00  0.00     0.091 H 
ATOM    140  H   ASG d 219      28.415 -22.480  91.571  0.00  0.00     0.078 H 
ATOM    141  H   ASG d 219      26.963 -22.608  90.485  0.00  0.00     0.078 H 
ATOM    142  H   ASG d 219      28.460 -20.830  89.127  0.00  0.00     0.093 H 
ATOM    143  H   ASG d 219      28.239 -13.791  90.269  0.00  0.00     0.040 H 
ATOM    144  H   ASG d 219      29.969 -13.559  90.364  0.00  0.00     0.040 H 
ATOM    145  H   ASG d 219      28.997 -13.490  91.814  0.00  0.00     0.040 H 
ATOM    146  H   ASG d 219      26.939 -22.307  93.266  0.00  0.00     0.209 HD
ATOM    147  H   ASG d 219      27.636 -16.109  89.909  0.00  0.00     0.163 HD
ATOM    148  H   ASG d 219      29.455 -17.973  91.124  0.00  0.00     0.084 H 
ATOM    149  H   ASG d 219      26.521 -18.175  91.714  0.00  0.00     0.132 H 
ENDROOT
TORSDOF 38
