REMARK  0 active torsions:
REMARK  status: ('A' for Active; 'I' for Inactive)
REMARK       I    between atoms: C2_1  and  N_18 
REMARK       I    between atoms: O4_5  and  C1_17 
REMARK       I    between atoms: O4_5  and  C4_30 
REMARK       I    between atoms: O6_6  and  C6_7 
REMARK       I    between atoms: O6_6  and  S2_22 
REMARK       I    between atoms: C6_7  and  C5_28 
REMARK       I    between atoms: C3_8  and  O3_10 
REMARK       I    between atoms: C1_9  and  O1_16 
REMARK       I    between atoms: S1_12  and  N_18 
REMARK       I    between atoms: S1_12  and  O1S_13 
REMARK       I    between atoms: S1_12  and  O2S_15 
REMARK       I    between atoms: S1_12  and  O3S_26 
REMARK       I    between atoms: O2_24  and  C2_31 
REMARK       I    between atoms: O2_24  and  S_34 
REMARK       I    between atoms: C6_25  and  C5_27 
REMARK       I    between atoms: C3_32  and  O3_33 
ROOT
ATOM      1  C2  SGN d1219      25.221 -10.621  -5.199  0.00  0.00     0.081 C 
ATOM      2  O4  SGN d1219      21.797 -12.155  -4.872  0.00  0.00    -0.348 OA
ATOM      3  O6  SGN d1219      21.374  -8.004  -5.109  0.00  0.00    -0.254 OA
ATOM      4  C6  SGN d1219      21.125  -9.340  -5.495  0.00  0.00     0.067 C 
ATOM      5  C3  SGN d1219      24.156 -11.678  -4.878  0.00  0.00     0.083 C 
ATOM      6  C1  SGN d1219      24.755  -9.614  -6.260  0.00  0.00     0.147 C 
ATOM      7  O3  SGN d1219      24.494 -12.341  -3.677  0.00  0.00    -0.391 OA
ATOM      8  O4S SGN d1219      20.348  -7.886  -2.888  0.00  0.00    -0.572 OA
ATOM      9  S1  SGN d1219      27.865 -10.851  -4.978  0.00  0.00     0.156 S 
ATOM     10  O1S SGN d1219      28.898 -11.433  -5.831  0.00  0.00    -0.296 OA
ATOM     11  O5  SGN d1219      23.485  -9.089  -5.909  0.00  0.00    -0.350 OA
ATOM     12  O2S SGN d1219      27.890 -11.409  -3.626  0.00  0.00    -0.296 OA
ATOM     13  O1  SGN d1219      24.702 -10.205  -7.544  0.00  0.00    -0.369 OA
ATOM     14  N   SGN d1219      26.455 -11.263  -5.621  0.00  0.00    -0.210 NA
ATOM     15  O5S SGN d1219      19.050  -7.377  -4.844  0.00  0.00    -0.572 OA
ATOM     16  S2  SGN d1219      20.353  -7.249  -4.202  0.00  0.00     0.251 S 
ATOM     17  O3S SGN d1219      27.938  -9.389  -4.964  0.00  0.00    -0.296 OA
ATOM     18  C5  SGN d1219      22.437 -10.044  -5.823  0.00  0.00     0.091 C 
ATOM     19  O6S SGN d1219      20.811  -5.867  -4.127  0.00  0.00    -0.572 OA
ATOM     20  C4  SGN d1219      22.738 -11.104  -4.759  0.00  0.00     0.095 C 
ATOM     21  H   SGN d1219      25.394 -10.068  -4.299  0.00  0.00     0.076 H 
ATOM     22  H   SGN d1219      20.494  -9.347  -6.359  0.00  0.00     0.080 H 
ATOM     23  H   SGN d1219      20.644  -9.854  -4.689  0.00  0.00     0.080 H 
ATOM     24  H   SGN d1219      24.145 -12.360  -5.703  0.00  0.00     0.089 H 
ATOM     25  H   SGN d1219      25.468  -8.817  -6.295  0.00  0.00     0.131 H 
ATOM     26  H   SGN d1219      24.497 -11.704  -2.946  0.00  0.00     0.210 HD
ATOM     27  H   SGN d1219      28.821 -12.400  -5.818  0.00  0.00     0.231 HD
ATOM     28  H   SGN d1219      27.840 -12.377  -3.675  0.00  0.00     0.231 HD
ATOM     29  H   SGN d1219      24.061 -10.933  -7.539  0.00  0.00     0.212 HD
ATOM     30  H   SGN d1219      26.537 -11.102  -6.625  0.00  0.00     0.140 HD
ATOM     31  H   SGN d1219      27.919  -9.056  -5.875  0.00  0.00     0.231 HD
ATOM     32  H   SGN d1219      22.355 -10.537  -6.769  0.00  0.00     0.090 H 
ATOM     33  H   SGN d1219      22.668 -10.628  -3.804  0.00  0.00     0.091 H 
ATOM     34  C4  IDU d1218      20.495 -15.319  -3.178  0.00  0.00    -0.005 C 
ATOM     35  O61 IDU d1218      23.396 -16.788  -3.663  0.00  0.00    -0.646 OA
ATOM     36  O5  IDU d1218      22.206 -13.627  -2.997  0.00  0.00    -0.343 OA
ATOM     37  C1  IDU d1218      21.404 -12.569  -3.548  0.00  0.00     0.161 C 
ATOM     38  O62 IDU d1218      23.144 -15.828  -1.674  0.00  0.00    -0.646 OA
ATOM     39  O1S IDU d1218      18.617 -10.368  -0.896  0.00  0.00    -0.572 OA
ATOM     40  O3S IDU d1218      18.677 -10.170  -3.295  0.00  0.00    -0.572 OA
ATOM     41  O2  IDU d1218      19.391 -12.388  -2.247  0.00  0.00    -0.244 OA
ATOM     42  C6  IDU d1218      22.888 -15.915  -2.910  0.00  0.00     0.203 C 
ATOM     43  C5  IDU d1218      21.933 -14.929  -3.518  0.00  0.00     0.127 C 
ATOM     44  C2  IDU d1218      19.893 -12.839  -3.503  0.00  0.00     0.132 C 
ATOM     45  C3  IDU d1218      19.485 -14.304  -3.720  0.00  0.00     0.069 C 
ATOM     46  O3  IDU d1218      19.268 -14.543  -5.116  0.00  0.00    -0.393 OA
ATOM     47  S   IDU d1218      18.399 -11.090  -2.171  0.00  0.00     0.252 S 
ATOM     48  O2S IDU d1218      16.998 -11.559  -2.253  0.00  0.00    -0.572 OA
ATOM     49  H   IDU d1218      20.286 -16.277  -3.606  0.00  0.00     0.041 H 
ATOM     50  H   IDU d1218      20.401 -15.344  -2.112  0.00  0.00     0.041 H 
ATOM     51  H   IDU d1218      21.605 -11.752  -2.887  0.00  0.00     0.133 H 
ATOM     52  H   IDU d1218      22.055 -14.928  -4.581  0.00  0.00     0.100 H 
ATOM     53  H   IDU d1218      19.468 -12.304  -4.327  0.00  0.00     0.097 H 
ATOM     54  H   IDU d1218      18.584 -14.448  -3.162  0.00  0.00     0.087 H 
ATOM     55  H   IDU d1218      20.097 -14.406  -5.600  0.00  0.00     0.210 HD
ENDROOT
TORSDOF 16
